TITL C-612600-6631-283 -5881.07305670099 125000 -1107.92121719329 0 0 182 (C1) n - 1
REM
REM in /home/nfs/bkarasulu/CARBON/AIRSS/Generating-Clusters/TERSOFF/Only-C1/FIRE-HFTN
REM
REM
REM
REM
REM
REM ./C.cell (11c1c37f851c82e70ff6c80c92926a4b)
REM AIRSS Version 0.9.1 bugfix July 2018 build 013d7b7c2542+ Fri, 06 Jul 2018 19:26:36 +0100
REM compiler GCC version 9.2.1 20190827 (Red Hat 9.2.1-1)
REM options -cpp -mtune=generic -march=x86-64 -g -O0 -fpre-include=/usr/include/finclude/math-vector-fortran.h
REM seed -1357199895 -2132708888 -1172978979 610132316 306040059 1052371377 -2126144178 1556784805 -515627656 -1946842480 -1296294164 552143872 -1433569233 378939418 -2137158288 -848411513 -1767056428 -768538355 219522455 533579249 -1476854425 -1827989118 -1963032814 -1664658156 146605487 266466276 -227094181 110893332 44907177 1062719723 -1723039260 17135906 -933548741
REM
CELL 1.54180   50.00000   50.00000   50.00000   90.00000   90.00000   90.00000
LATT -1
SFAC C  
C      1  0.4240810000000  0.5592240000000  0.4721230000000 1.0
C      1  0.5088550000000  0.5367310000000  0.5688710000000 1.0
C      1  0.4967070000000  0.5206970000000  0.4665940000000 1.0
C      1  0.5454560000000  0.5275420000000  0.4152910000000 1.0
C      1  0.5322490000000  0.5304260000000  0.6292610000000 1.0
C      1  0.5388660000000  0.6108010000000  0.5380470000000 1.0
C      1  0.4838350000000  0.3885980000000  0.5111040000000 1.0
C      1  0.6341740000000  0.4272600000000  0.4347570000000 1.0
C      1  0.4193600000000  0.4668960000000  0.5858440000000 1.0
C      1  0.5899920000000  0.5462010000000  0.4497780000000 1.0
C      1  0.4475450000000  0.4027770000000  0.4754580000000 1.0
C      1  0.4932940000000  0.5658540000000  0.5353480000000 1.0
C      1  0.4025700000000  0.4542230000000  0.5687300000000 1.0
C      1  0.5280460000000  0.4512670000000  0.4004550000000 1.0
C      1  0.5163700000000  0.5783710000000  0.6060680000000 1.0
C      1  0.4154020000000  0.5473420000000  0.5665700000000 1.0
C      1  0.5584170000000  0.4374360000000  0.5403980000000 1.0
C      1  0.4392540000000  0.4839390000000  0.5428380000000 1.0
C      1  0.5896750000000  0.4618600000000  0.6369040000000 1.0
C      1  0.3783740000000  0.5485110000000  0.4632720000000 1.0
C      1  0.5150030000000  0.5491950000000  0.5433580000000 1.0
C      1  0.5435410000000  0.5097410000000  0.3717010000000 1.0
C      1  0.4223390000000  0.5875200000000  0.5387320000000 1.0
C      1  0.6057580000000  0.5119520000000  0.5327570000000 1.0
C      1  0.4478310000000  0.6307410000000  0.4927200000000 1.0
C      1  0.5658860000000  0.4196400000000  0.5619960000000 1.0
C      1  0.5372580000000  0.4533510000000  0.5493830000000 1.0
C      1  0.5078840000000  0.4879680000000  0.6132360000000 1.0
C      1  0.3837710000000  0.5309430000000  0.5070070000000 1.0
C      1  0.5028460000000  0.4818440000000  0.5291360000000 1.0
C      1  0.4789070000000  0.5408560000000  0.5718340000000 1.0
C      1  0.5497010000000  0.5545810000000  0.4254930000000 1.0
C      1  0.4498630000000  0.4439690000000  0.5104980000000 1.0
C      1  0.5222910000000  0.6158290000000  0.4710290000000 1.0
C      1  0.4198270000000  0.4017730000000  0.4849700000000 1.0
C      1  0.6118080000000  0.5046030000000  0.5601980000000 1.0
C      1  0.4690120000000  0.4387140000000  0.5566310000000 1.0
C      1  0.5480510000000  0.6071080000000  0.4833110000000 1.0
C      1  0.4520910000000  0.5203200000000  0.4554710000000 1.0
C      1  0.4098870000000  0.5088820000000  0.4396260000000 1.0
C      1  0.4534420000000  0.5313370000000  0.5046500000000 1.0
C      1  0.4036460000000  0.5558470000000  0.4517120000000 1.0
C      1  0.3840540000000  0.3765990000000  0.4532510000000 1.0
C      1  0.5586970000000  0.5239560000000  0.5049300000000 1.0
C      1  0.4158730000000  0.5704020000000  0.4970120000000 1.0
C      1  0.5917490000000  0.4483410000000  0.6590870000000 1.0
C      1  0.3949730000000  0.4727810000000  0.4733340000000 1.0
C      1  0.4423660000000  0.3855130000000  0.5386850000000 1.0
C      1  0.5912640000000  0.5474680000000  0.5544750000000 1.0
C      1  0.5590220000000  0.5010540000000  0.5477260000000 1.0
C      1  0.5738930000000  0.6136100000000  0.4427090000000 1.0
C      1  0.4754880000000  0.4402150000000  0.4130380000000 1.0
C      1  0.4843270000000  0.3648950000000  0.5530730000000 1.0
C      1  0.5844880000000  0.4987400000000  0.4222560000000 1.0
C      1  0.5766350000000  0.4373300000000  0.5188790000000 1.0
C      1  0.3974030000000  0.4392370000000  0.5162730000000 1.0
C      1  0.5301010000000  0.6177770000000  0.4195470000000 1.0
C      1  0.5208490000000  0.4537710000000  0.4501830000000 1.0
C      1  0.4866960000000  0.6048400000000  0.4049840000000 1.0
C      1  0.5004850000000  0.4558920000000  0.4901400000000 1.0
C      1  0.5610490000000  0.6033040000000  0.5806230000000 1.0
C      1  0.4318890000000  0.5391450000000  0.5885890000000 1.0
C      1  0.4577500000000  0.5264310000000  0.5852130000000 1.0
C      1  0.3927230000000  0.4645600000000  0.5015140000000 1.0
C      1  0.5266620000000  0.3865270000000  0.5409110000000 1.0
C      1  0.4377110000000  0.5022400000000  0.4372310000000 1.0
C      1  0.4400580000000  0.5045140000000  0.5030250000000 1.0
C      1  0.4924870000000  0.4570230000000  0.5178780000000 1.0
C      1  0.4915300000000  0.3534630000000  0.4488220000000 1.0
C      1  0.5820980000000  0.4252230000000  0.4476570000000 1.0
C      1  0.4809670000000  0.3690610000000  0.4668270000000 1.0
C      1  0.6088950000000  0.4253210000000  0.4407840000000 1.0
C      1  0.6081060000000  0.4761090000000  0.5659970000000 1.0
C      1  0.6113610000000  0.4607490000000  0.5420170000000 1.0
C      1  0.5191960000000  0.5556580000000  0.4972400000000 1.0
C      1  0.5820420000000  0.5698030000000  0.4621180000000 1.0
C      1  0.5249920000000  0.5575700000000  0.6218480000000 1.0
C      1  0.4823410000000  0.5216130000000  0.5114770000000 1.0
C      1  0.5235170000000  0.4606760000000  0.5711600000000 1.0
C      1  0.5139250000000  0.6162510000000  0.4437390000000 1.0
C      1  0.5510270000000  0.5734710000000  0.4047600000000 1.0
C      1  0.4779630000000  0.4775630000000  0.4480700000000 1.0
C      1  0.4826920000000  0.5986330000000  0.5005180000000 1.0
C      1  0.5297870000000  0.5569710000000  0.4471740000000 1.0
C      1  0.4566900000000  0.4622780000000  0.4074460000000 1.0
C      1  0.3969040000000  0.4869900000000  0.5189630000000 1.0
C      1  0.5018830000000  0.5305580000000  0.4926520000000 1.0
C      1  0.5585250000000  0.5182480000000  0.6315820000000 1.0
C      1  0.5617850000000  0.4911740000000  0.3794160000000 1.0
C      1  0.4632340000000  0.4498920000000  0.5805200000000 1.0
C      1  0.5851940000000  0.4818450000000  0.5060220000000 1.0
C      1  0.4708580000000  0.4433530000000  0.5289650000000 1.0
C      1  0.4555800000000  0.4867890000000  0.4871100000000 1.0
C      1  0.3795210000000  0.5084260000000  0.5232750000000 1.0
C      1  0.5498000000000  0.3963760000000  0.5555990000000 1.0
C      1  0.4947230000000  0.5444160000000  0.4169380000000 1.0
C      1  0.4704430000000  0.3877910000000  0.4850930000000 1.0
C      1  0.4698730000000  0.5821650000000  0.3987690000000 1.0
C      1  0.5774630000000  0.5054700000000  0.5236460000000 1.0
C      1  0.5800600000000  0.4187720000000  0.4983240000000 1.0
C      1  0.4205200000000  0.3991910000000  0.5319130000000 1.0
C      1  0.5109520000000  0.3679140000000  0.5558260000000 1.0
C      1  0.4010780000000  0.3880450000000  0.4693190000000 1.0
C      1  0.5641310000000  0.5544430000000  0.5465130000000 1.0
C      1  0.5323750000000  0.5283880000000  0.3893010000000 1.0
C      1  0.4504880000000  0.4228530000000  0.4547680000000 1.0
C      1  0.4109080000000  0.4139700000000  0.5096070000000 1.0
C      1  0.5150370000000  0.6035710000000  0.3982830000000 1.0
C      1  0.4234810000000  0.4731750000000  0.3727770000000 1.0
C      1  0.5163780000000  0.5959480000000  0.5846830000000 1.0
C      1  0.5119560000000  0.5107790000000  0.6265490000000 1.0
C      1  0.5811720000000  0.4354880000000  0.5813310000000 1.0
C      1  0.4590600000000  0.4199180000000  0.4272570000000 1.0
C      1  0.4560560000000  0.4811980000000  0.4283490000000 1.0
C      1  0.4110220000000  0.4552790000000  0.4574670000000 1.0
C      1  0.5253440000000  0.5775030000000  0.3919840000000 1.0
C      1  0.5759300000000  0.5032790000000  0.6141230000000 1.0
C      1  0.5125900000000  0.5499110000000  0.3931200000000 1.0
C      1  0.4482280000000  0.4592460000000  0.4867140000000 1.0
C      1  0.5859280000000  0.4759900000000  0.6130350000000 1.0
C      1  0.5710260000000  0.4146210000000  0.4722990000000 1.0
C      1  0.5363160000000  0.6078280000000  0.5665340000000 1.0
C      1  0.4736550000000  0.5012610000000  0.4660300000000 1.0
C      1  0.5923380000000  0.4625730000000  0.5874410000000 1.0
C      1  0.5352000000000  0.5334710000000  0.5785640000000 1.0
C      1  0.3992510000000  0.5537960000000  0.5160540000000 1.0
C      1  0.4078600000000  0.5623400000000  0.5436270000000 1.0
C      1  0.5003090000000  0.6176100000000  0.4889950000000 1.0
C      1  0.4473630000000  0.4724060000000  0.5885780000000 1.0
C      1  0.5419250000000  0.4129140000000  0.4699740000000 1.0
C      1  0.4690400000000  0.3789390000000  0.5340440000000 1.0
C      1  0.4754610000000  0.5814040000000  0.4435340000000 1.0
C      1  0.4387490000000  0.4104160000000  0.4092560000000 1.0
C      1  0.4877240000000  0.6066110000000  0.4355420000000 1.0
C      1  0.5696500000000  0.5964750000000  0.4652790000000 1.0
C      1  0.4543520000000  0.6054590000000  0.5020120000000 1.0
C      1  0.5361610000000  0.4303890000000  0.4474310000000 1.0
C      1  0.5023300000000  0.4427390000000  0.4036940000000 1.0
C      1  0.5826330000000  0.4920840000000  0.4799000000000 1.0
C      1  0.5481280000000  0.6087330000000  0.5123700000000 1.0
C      1  0.5431340000000  0.5006720000000  0.4580500000000 1.0
C      1  0.5520230000000  0.5570330000000  0.5730130000000 1.0
C      1  0.4941480000000  0.4570600000000  0.4607900000000 1.0
C      1  0.5551070000000  0.4552750000000  0.4111200000000 1.0
C      1  0.4238940000000  0.4932170000000  0.5223920000000 1.0
C      1  0.5771130000000  0.5155330000000  0.5890140000000 1.0
C      1  0.5314970000000  0.5126640000000  0.4354370000000 1.0
C      1  0.5140890000000  0.4707260000000  0.5938930000000 1.0
C      1  0.5267720000000  0.4706650000000  0.4910690000000 1.0
C      1  0.4731800000000  0.5629560000000  0.4207200000000 1.0
C      1  0.5095270000000  0.5328960000000  0.4421250000000 1.0
C      1  0.4320940000000  0.5902090000000  0.5115200000000 1.0
C      1  0.4373900000000  0.4470240000000  0.4633480000000 1.0
C      1  0.4066170000000  0.5363420000000  0.4309290000000 1.0
C      1  0.3951590000000  0.4434260000000  0.5451050000000 1.0
C      1  0.5396140000000  0.5467900000000  0.5223820000000 1.0
C      1  0.5533530000000  0.5119080000000  0.5733700000000 1.0
C      1  0.4840080000000  0.5020850000000  0.5332420000000 1.0
C      1  0.5645500000000  0.5774040000000  0.5883220000000 1.0
C      1  0.5271180000000  0.4025050000000  0.4914850000000 1.0
C      1  0.5575130000000  0.6223240000000  0.4231250000000 1.0
C      1  0.5608840000000  0.5116640000000  0.4779380000000 1.0
C      1  0.4351590000000  0.4554450000000  0.3898190000000 1.0
C      1  0.5352660000000  0.4747450000000  0.4643710000000 1.0
C      1  0.5944280000000  0.4590740000000  0.5193960000000 1.0
C      1  0.5314690000000  0.5650870000000  0.4732120000000 1.0
C      1  0.4272550000000  0.4280940000000  0.3919010000000 1.0
C      1  0.4634290000000  0.4952800000000  0.5517810000000 1.0
C      1  0.3807930000000  0.5245990000000  0.4787830000000 1.0
C      1  0.4496330000000  0.5477970000000  0.5293300000000 1.0
C      1  0.5984830000000  0.5259610000000  0.5737680000000 1.0
C      1  0.4964620000000  0.5756970000000  0.5095470000000 1.0
C      1  0.5132640000000  0.3936600000000  0.5148110000000 1.0
C      1  0.5606930000000  0.4362290000000  0.4317570000000 1.0
C      1  0.5270180000000  0.4857360000000  0.5147850000000 1.0
C      1  0.4228240000000  0.5435600000000  0.6141450000000 1.0
C      1  0.4586660000000  0.4983210000000  0.5803510000000 1.0
C      1  0.4461600000000  0.5409790000000  0.4752910000000 1.0
C      1  0.5694440000000  0.4801540000000  0.4048290000000 1.0
C      1  0.4696080000000  0.5561600000000  0.5479380000000 1.0
C      1  0.5910360000000  0.5223270000000  0.4355160000000 1.0
C      1  0.3931870000000  0.5010430000000  0.4639550000000 1.0
END
