TITL C-612602-9376-643 4255.0049984004 125000 -554.839382437724 0 0 92 (C1) n - 1
REM
REM in /home/nfs/bkarasulu/CARBON/AIRSS/Generating-Clusters/TERSOFF/Only-C1/FIRE-HFTN
REM
REM
REM
REM
REM
REM ./C.cell (11c1c37f851c82e70ff6c80c92926a4b)
REM AIRSS Version 0.9.1 bugfix July 2018 build 013d7b7c2542+ Fri, 06 Jul 2018 19:26:36 +0100
REM compiler GCC version 9.2.1 20190827 (Red Hat 9.2.1-1)
REM options -cpp -mtune=generic -march=x86-64 -g -O0 -fpre-include=/usr/include/finclude/math-vector-fortran.h
REM seed 1790966253 68157521 1017377600 1031833230 1378242930 -315294493 -1243336835 -442277619 -589135248 -924245677 1944855747 -1584647315 1537854302 -1832869468 -1141961326 -1023888184 -1197228445 -1675832535 817182172 1251397179 56114094 -383495871 1248648898 -1448849271 1519822309 -1233112856 -416646045 1360281084 271576711 -1892451745 -683549381 606590991 -447035726
REM
CELL 1.54180   50.00000   50.00000   50.00000   90.00000   90.00000   90.00000
LATT -1
SFAC C  
C      1  0.4798170000000  0.4246370000000  0.4886510000000 1.0
C      1  0.4763780000000  0.4761890000000  0.5823340000000 1.0
C      1  0.4181620000000  0.5347570000000  0.5660500000000 1.0
C      1  0.4403700000000  0.4549890000000  0.5092550000000 1.0
C      1  0.5809860000000  0.4950260000000  0.5042070000000 1.0
C      1  0.5148480000000  0.4483580000000  0.6026000000000 1.0
C      1  0.4870530000000  0.4821440000000  0.4175410000000 1.0
C      1  0.4720310000000  0.5052150000000  0.4652600000000 1.0
C      1  0.4811050000000  0.5014040000000  0.5119280000000 1.0
C      1  0.5519240000000  0.5629870000000  0.4440540000000 1.0
C      1  0.4334600000000  0.5555670000000  0.4679980000000 1.0
C      1  0.5313780000000  0.4683520000000  0.4465730000000 1.0
C      1  0.5057830000000  0.4840570000000  0.4393070000000 1.0
C      1  0.5191050000000  0.4590480000000  0.5268840000000 1.0
C      1  0.4379230000000  0.4634480000000  0.4616140000000 1.0
C      1  0.4462690000000  0.4718500000000  0.4872070000000 1.0
C      1  0.5504570000000  0.4216520000000  0.5742260000000 1.0
C      1  0.5029900000000  0.5784770000000  0.5286320000000 1.0
C      1  0.4827940000000  0.5327560000000  0.4082250000000 1.0
C      1  0.5534300000000  0.4894050000000  0.4360680000000 1.0
C      1  0.4985350000000  0.4495340000000  0.5446300000000 1.0
C      1  0.4761860000000  0.5799440000000  0.5161880000000 1.0
C      1  0.5275230000000  0.5747980000000  0.4549680000000 1.0
C      1  0.4500540000000  0.5142870000000  0.4500410000000 1.0
C      1  0.5545730000000  0.5052780000000  0.5030340000000 1.0
C      1  0.5827620000000  0.4686950000000  0.4939010000000 1.0
C      1  0.4454790000000  0.5448450000000  0.5751410000000 1.0
C      1  0.5354620000000  0.4345120000000  0.5924140000000 1.0
C      1  0.5393010000000  0.5041330000000  0.5260420000000 1.0
C      1  0.5227400000000  0.4403830000000  0.4363440000000 1.0
C      1  0.4821400000000  0.5062680000000  0.4036150000000 1.0
C      1  0.5366650000000  0.4784460000000  0.5368590000000 1.0
C      1  0.4892140000000  0.5456330000000  0.4881010000000 1.0
C      1  0.5078690000000  0.4267290000000  0.4966930000000 1.0
C      1  0.5252170000000  0.5859870000000  0.4819130000000 1.0
C      1  0.4209460000000  0.4669570000000  0.5281610000000 1.0
C      1  0.5172140000000  0.4542560000000  0.4983240000000 1.0
C      1  0.4924550000000  0.4632760000000  0.6013630000000 1.0
C      1  0.5830730000000  0.5289000000000  0.4512570000000 1.0
C      1  0.4939120000000  0.5703120000000  0.5567140000000 1.0
C      1  0.5367370000000  0.4610870000000  0.4774590000000 1.0
C      1  0.5585070000000  0.4251380000000  0.5021510000000 1.0
C      1  0.4573430000000  0.5245390000000  0.5923790000000 1.0
C      1  0.5305860000000  0.4017670000000  0.5338030000000 1.0
C      1  0.4657580000000  0.4638330000000  0.4194500000000 1.0
C      1  0.5026960000000  0.5638870000000  0.4444250000000 1.0
C      1  0.4582360000000  0.4982600000000  0.5811070000000 1.0
C      1  0.4825110000000  0.5611900000000  0.4647720000000 1.0
C      1  0.5913050000000  0.5364640000000  0.5309030000000 1.0
C      1  0.4437930000000  0.5408250000000  0.5211410000000 1.0
C      1  0.5718460000000  0.5533660000000  0.4632210000000 1.0
C      1  0.5006820000000  0.4255620000000  0.4423670000000 1.0
C      1  0.4866660000000  0.4946620000000  0.5397770000000 1.0
C      1  0.4496780000000  0.5754660000000  0.4304350000000 1.0
C      1  0.4879970000000  0.4230400000000  0.5465190000000 1.0
C      1  0.4581010000000  0.4312390000000  0.5086400000000 1.0
C      1  0.5573950000000  0.5483390000000  0.4869680000000 1.0
C      1  0.5724360000000  0.5561600000000  0.5308470000000 1.0
C      1  0.5059760000000  0.4015120000000  0.5472270000000 1.0
C      1  0.4629900000000  0.4195020000000  0.5340830000000 1.0
C      1  0.4974280000000  0.5262280000000  0.5073990000000 1.0
C      1  0.4321960000000  0.5355680000000  0.4460290000000 1.0
C      1  0.5636290000000  0.5166040000000  0.4328700000000 1.0
C      1  0.5526240000000  0.5627780000000  0.5116000000000 1.0
C      1  0.4643320000000  0.5616850000000  0.5588320000000 1.0
C      1  0.4135660000000  0.5621220000000  0.4851760000000 1.0
C      1  0.5719600000000  0.4204930000000  0.5276840000000 1.0
C      1  0.5541110000000  0.4112980000000  0.5483730000000 1.0
C      1  0.4805740000000  0.4211100000000  0.4602380000000 1.0
C      1  0.4995530000000  0.5044010000000  0.4579570000000 1.0
C      1  0.4468850000000  0.5009640000000  0.5544690000000 1.0
C      1  0.4658020000000  0.4922520000000  0.4899030000000 1.0
C      1  0.4049830000000  0.5120830000000  0.5551990000000 1.0
C      1  0.4433950000000  0.5163160000000  0.5322830000000 1.0
C      1  0.5622110000000  0.4498890000000  0.4874560000000 1.0
C      1  0.4844420000000  0.4711440000000  0.5552300000000 1.0
C      1  0.5021080000000  0.5503020000000  0.4186180000000 1.0
C      1  0.5182140000000  0.5234420000000  0.5287580000000 1.0
C      1  0.5312330000000  0.4117270000000  0.5060740000000 1.0
C      1  0.4072830000000  0.4873860000000  0.5416530000000 1.0
C      1  0.5272090000000  0.5780480000000  0.5106150000000 1.0
C      1  0.4566610000000  0.5716990000000  0.4588840000000 1.0
C      1  0.5276260000000  0.5453940000000  0.4071530000000 1.0
C      1  0.5098260000000  0.5217950000000  0.5774610000000 1.0
C      1  0.5975640000000  0.5125920000000  0.5192440000000 1.0
C      1  0.5443920000000  0.5231940000000  0.4846200000000 1.0
C      1  0.4563780000000  0.5642560000000  0.5302890000000 1.0
C      1  0.5031230000000  0.5154740000000  0.5519910000000 1.0
C      1  0.5494850000000  0.5413120000000  0.4237960000000 1.0
C      1  0.5218310000000  0.5174460000000  0.4690750000000 1.0
C      1  0.4348340000000  0.5529890000000  0.4225980000000 1.0
C      1  0.4457170000000  0.4586780000000  0.4364760000000 1.0
END
