TITL C-612602-9376-396 1.46564585536421e-06 125000 -506.972789790796 0 0 82 (C1) n - 1
REM
REM in /home/nfs/bkarasulu/CARBON/AIRSS/Generating-Clusters/TERSOFF/Only-C1/FIRE-HFTN
REM
REM
REM
REM
REM
REM ./C.cell (11c1c37f851c82e70ff6c80c92926a4b)
REM AIRSS Version 0.9.1 bugfix July 2018 build 013d7b7c2542+ Fri, 06 Jul 2018 19:26:36 +0100
REM compiler GCC version 9.2.1 20190827 (Red Hat 9.2.1-1)
REM options -cpp -mtune=generic -march=x86-64 -g -O0 -fpre-include=/usr/include/finclude/math-vector-fortran.h
REM seed -1495414247 -1929115397 -629401640 1259823136 896361942 -1181921655 983421492 -1337822805 449083427 1386021148 -1495544455 -347113893 992687572 -1118326969 488391849 94404255 826753968 -768189201 20172381 911045706 -896660165 -1216666222 -27563722 -1068659363 -463288968 1546725185 1069275837 2140687170 -101824162 1173591176 -1994514123 -1434835826 957481618
REM
CELL 1.54180   50.00000   50.00000   50.00000   90.00000   90.00000   90.00000
LATT -1
SFAC C  
C      1  0.5583400000000  0.4682400000000  0.5095110000000 1.0
C      1  0.5677310000000  0.4972380000000  0.5515980000000 1.0
C      1  0.4795650000000  0.4288640000000  0.5555570000000 1.0
C      1  0.5265790000000  0.4373830000000  0.5414940000000 1.0
C      1  0.4906940000000  0.4921630000000  0.5712700000000 1.0
C      1  0.4317630000000  0.5216380000000  0.4485670000000 1.0
C      1  0.5234050000000  0.4597040000000  0.4277520000000 1.0
C      1  0.4840870000000  0.4577050000000  0.4590910000000 1.0
C      1  0.5098690000000  0.4765030000000  0.5871580000000 1.0
C      1  0.4860120000000  0.5018110000000  0.4790760000000 1.0
C      1  0.5511030000000  0.5158600000000  0.5111790000000 1.0
C      1  0.4455080000000  0.4888650000000  0.5494810000000 1.0
C      1  0.4283140000000  0.4415640000000  0.4822020000000 1.0
C      1  0.4202640000000  0.5203810000000  0.4736130000000 1.0
C      1  0.5700400000000  0.5328210000000  0.4590590000000 1.0
C      1  0.4648970000000  0.5328320000000  0.5704830000000 1.0
C      1  0.5457980000000  0.5586880000000  0.5502890000000 1.0
C      1  0.4697150000000  0.5604480000000  0.5606540000000 1.0
C      1  0.5386090000000  0.5177460000000  0.5873190000000 1.0
C      1  0.5513020000000  0.5467970000000  0.4746810000000 1.0
C      1  0.4921110000000  0.5668080000000  0.5001630000000 1.0
C      1  0.5685540000000  0.4789190000000  0.4350880000000 1.0
C      1  0.5239470000000  0.5119250000000  0.5064260000000 1.0
C      1  0.5278090000000  0.4394270000000  0.4704190000000 1.0
C      1  0.6128440000000  0.5148370000000  0.4734080000000 1.0
C      1  0.5558870000000  0.4426320000000  0.4689550000000 1.0
C      1  0.5373810000000  0.4487150000000  0.5171970000000 1.0
C      1  0.4299250000000  0.5023370000000  0.4904870000000 1.0
C      1  0.4883230000000  0.5203570000000  0.5820270000000 1.0
C      1  0.5564660000000  0.5428700000000  0.5036170000000 1.0
C      1  0.4665670000000  0.4484480000000  0.5684150000000 1.0
C      1  0.5197610000000  0.5559010000000  0.5645550000000 1.0
C      1  0.5472940000000  0.4701070000000  0.4213950000000 1.0
C      1  0.5107370000000  0.4517740000000  0.4515320000000 1.0
C      1  0.5924020000000  0.5561160000000  0.5666230000000 1.0
C      1  0.5627790000000  0.4931350000000  0.5239020000000 1.0
C      1  0.4745740000000  0.5504810000000  0.4568760000000 1.0
C      1  0.4529060000000  0.5343820000000  0.4108970000000 1.0
C      1  0.4725330000000  0.4780550000000  0.4753850000000 1.0
C      1  0.5157950000000  0.5763730000000  0.4880830000000 1.0
C      1  0.4677690000000  0.4673780000000  0.4087700000000 1.0
C      1  0.4535750000000  0.5397840000000  0.4396630000000 1.0
C      1  0.4379330000000  0.5113630000000  0.4051560000000 1.0
C      1  0.4962840000000  0.5623280000000  0.5499230000000 1.0
C      1  0.4782060000000  0.5163720000000  0.5014880000000 1.0
C      1  0.4475410000000  0.4804150000000  0.4899550000000 1.0
C      1  0.4150950000000  0.4564060000000  0.4598230000000 1.0
C      1  0.4949990000000  0.4252130000000  0.5077150000000 1.0
C      1  0.5036060000000  0.5469570000000  0.4501830000000 1.0
C      1  0.5366000000000  0.4410630000000  0.5671750000000 1.0
C      1  0.5006550000000  0.5079240000000  0.4137810000000 1.0
C      1  0.4350390000000  0.4591010000000  0.5046790000000 1.0
C      1  0.5150390000000  0.5333910000000  0.5828490000000 1.0
C      1  0.4998710000000  0.5203870000000  0.5210560000000 1.0
C      1  0.4473440000000  0.5180870000000  0.5494590000000 1.0
C      1  0.5352980000000  0.5849140000000  0.5073940000000 1.0
C      1  0.4577000000000  0.5364750000000  0.5023370000000 1.0
C      1  0.4326280000000  0.4697990000000  0.5314540000000 1.0
C      1  0.5675960000000  0.4657070000000  0.4815200000000 1.0
C      1  0.4481910000000  0.5639860000000  0.5415850000000 1.0
C      1  0.5189980000000  0.4373290000000  0.4967120000000 1.0
C      1  0.4976980000000  0.5511090000000  0.5239860000000 1.0
C      1  0.4633590000000  0.4401850000000  0.4492160000000 1.0
C      1  0.4651340000000  0.4765620000000  0.5666680000000 1.0
C      1  0.5871480000000  0.5109580000000  0.4650400000000 1.0
C      1  0.4858000000000  0.4871150000000  0.4055700000000 1.0
C      1  0.5251900000000  0.5581230000000  0.4673500000000 1.0
C      1  0.4275080000000  0.4705240000000  0.4372300000000 1.0
C      1  0.4717540000000  0.4188700000000  0.4925800000000 1.0
C      1  0.4437480000000  0.5387830000000  0.5274080000000 1.0
C      1  0.5679650000000  0.5448530000000  0.5624250000000 1.0
C      1  0.4694380000000  0.5571510000000  0.4848530000000 1.0
C      1  0.5612400000000  0.5179720000000  0.5700140000000 1.0
C      1  0.4997830000000  0.4264870000000  0.5364250000000 1.0
C      1  0.4521040000000  0.4271060000000  0.4729200000000 1.0
C      1  0.5085910000000  0.5282150000000  0.4294350000000 1.0
C      1  0.4992600000000  0.4997060000000  0.5428820000000 1.0
C      1  0.5489600000000  0.5643560000000  0.5218210000000 1.0
C      1  0.5285800000000  0.4574950000000  0.5866980000000 1.0
C      1  0.5763150000000  0.4849950000000  0.4618010000000 1.0
C      1  0.4277090000000  0.4989200000000  0.4296860000000 1.0
C      1  0.4505580000000  0.4552850000000  0.4278350000000 1.0
END
