TITL C-612603-7354-1382 8.15097300514881e-06 125000 -439.385098384595 0 0 72 (C1) n - 1
REM
REM in /home/nfs/bkarasulu/CARBON/AIRSS/Generating-Clusters/TERSOFF/Only-C1/FIRE-HFTN
REM
REM
REM
REM
REM
REM ./C.cell (11c1c37f851c82e70ff6c80c92926a4b)
REM AIRSS Version 0.9.1 bugfix July 2018 build 013d7b7c2542+ Fri, 06 Jul 2018 19:26:36 +0100
REM compiler GCC version 9.2.1 20190827 (Red Hat 9.2.1-1)
REM options -cpp -mtune=generic -march=x86-64 -g -O0 -fpre-include=/usr/include/finclude/math-vector-fortran.h
REM seed 1792420377 58682159 -1029100777 -426348454 570068165 -1767657665 1435638721 -1380538925 -1203917220 792622546 1692523198 -634999097 -1612558390 1227117700 1682742739 838839535 2040704599 1081695603 -1391430530 -922499606 -642058398 -280617088 -1193785658 1791762173 -562714064 1936311767 -578396351 1056572512 923434454 1943801684 -1389658615 -465716390 704972406
REM
CELL 1.54180   50.00000   50.00000   50.00000   90.00000   90.00000   90.00000
LATT -1
SFAC C  
C      1  0.5127500000000  0.5098680000000  0.5891960000000 1.0
C      1  0.4341230000000  0.5203760000000  0.5105880000000 1.0
C      1  0.5442360000000  0.5507410000000  0.4887020000000 1.0
C      1  0.4815200000000  0.4786850000000  0.5677320000000 1.0
C      1  0.4807460000000  0.4885880000000  0.4649220000000 1.0
C      1  0.5270700000000  0.5719690000000  0.4968890000000 1.0
C      1  0.4768850000000  0.4506080000000  0.5626910000000 1.0
C      1  0.5694940000000  0.5548580000000  0.4778050000000 1.0
C      1  0.4612920000000  0.5745480000000  0.4962180000000 1.0
C      1  0.4383440000000  0.4903020000000  0.5472910000000 1.0
C      1  0.5310380000000  0.5086180000000  0.4668650000000 1.0
C      1  0.4987900000000  0.4112090000000  0.4994750000000 1.0
C      1  0.4564990000000  0.4321770000000  0.4860180000000 1.0
C      1  0.6187730000000  0.5416500000000  0.4823270000000 1.0
C      1  0.4893070000000  0.4441020000000  0.4561700000000 1.0
C      1  0.4962410000000  0.5833020000000  0.5318300000000 1.0
C      1  0.5433750000000  0.4505210000000  0.5580590000000 1.0
C      1  0.4924610000000  0.5293010000000  0.4433740000000 1.0
C      1  0.5280690000000  0.4650680000000  0.5748910000000 1.0
C      1  0.4785070000000  0.5044300000000  0.4419980000000 1.0
C      1  0.6284370000000  0.5268810000000  0.5024160000000 1.0
C      1  0.4914840000000  0.4145060000000  0.5271200000000 1.0
C      1  0.4437020000000  0.4373590000000  0.4605650000000 1.0
C      1  0.4789970000000  0.5692950000000  0.4737180000000 1.0
C      1  0.4325200000000  0.5465560000000  0.5212420000000 1.0
C      1  0.4830930000000  0.4278160000000  0.5492400000000 1.0
C      1  0.5524830000000  0.4451470000000  0.5332150000000 1.0
C      1  0.6186400000000  0.5155760000000  0.5245790000000 1.0
C      1  0.4642740000000  0.4996110000000  0.5562670000000 1.0
C      1  0.4531720000000  0.4692200000000  0.4221520000000 1.0
C      1  0.5406950000000  0.3798730000000  0.4863770000000 1.0
C      1  0.4716440000000  0.5723980000000  0.5243620000000 1.0
C      1  0.5535270000000  0.4504030000000  0.5067660000000 1.0
C      1  0.5016020000000  0.4691850000000  0.4636330000000 1.0
C      1  0.5685100000000  0.5201930000000  0.5388380000000 1.0
C      1  0.5483580000000  0.5009150000000  0.5359460000000 1.0
C      1  0.5251300000000  0.5562780000000  0.5703040000000 1.0
C      1  0.5175180000000  0.5358720000000  0.5857680000000 1.0
C      1  0.5956470000000  0.5520200000000  0.4740240000000 1.0
C      1  0.4721790000000  0.5250740000000  0.5428040000000 1.0
C      1  0.4569390000000  0.5507260000000  0.5388900000000 1.0
C      1  0.5955880000000  0.5133870000000  0.5378120000000 1.0
C      1  0.5058440000000  0.5778510000000  0.4787340000000 1.0
C      1  0.4826310000000  0.4597470000000  0.5162770000000 1.0
C      1  0.5314220000000  0.5252130000000  0.4901100000000 1.0
C      1  0.5226270000000  0.5757000000000  0.5251810000000 1.0
C      1  0.4139850000000  0.4565960000000  0.3970210000000 1.0
C      1  0.4602930000000  0.4925230000000  0.4834380000000 1.0
C      1  0.5375430000000  0.5623980000000  0.5456670000000 1.0
C      1  0.4626010000000  0.4490780000000  0.4413580000000 1.0
C      1  0.4606740000000  0.5170040000000  0.4976110000000 1.0
C      1  0.4844310000000  0.4249940000000  0.4789370000000 1.0
C      1  0.5200030000000  0.3943810000000  0.4927380000000 1.0
C      1  0.5605420000000  0.5471480000000  0.5403820000000 1.0
C      1  0.4568760000000  0.4549700000000  0.3762310000000 1.0
C      1  0.4337900000000  0.5667220000000  0.5003100000000 1.0
C      1  0.4295820000000  0.4931850000000  0.5203190000000 1.0
C      1  0.4557580000000  0.4979510000000  0.4263180000000 1.0
C      1  0.5089020000000  0.5236470000000  0.5070440000000 1.0
C      1  0.4742070000000  0.5511280000000  0.4510210000000 1.0
C      1  0.5052760000000  0.4729040000000  0.5214870000000 1.0
C      1  0.4423440000000  0.4760710000000  0.5000820000000 1.0
C      1  0.5458010000000  0.4634170000000  0.4844620000000 1.0
C      1  0.4568670000000  0.4526430000000  0.5058130000000 1.0
C      1  0.4404890000000  0.5225060000000  0.4255590000000 1.0
C      1  0.5073590000000  0.4842590000000  0.5791890000000 1.0
C      1  0.4486910000000  0.5459500000000  0.4379710000000 1.0
C      1  0.5278580000000  0.4795480000000  0.4695220000000 1.0
C      1  0.4411260000000  0.4600930000000  0.3980400000000 1.0
C      1  0.5259510000000  0.4879430000000  0.5293820000000 1.0
C      1  0.4826460000000  0.5212390000000  0.5156120000000 1.0
C      1  0.5202230000000  0.5239780000000  0.4451070000000 1.0
END
