TITL C-612605-9286-1455 1.57342414559098e-05 125000 -996.086890890442 0 0 160 (C1) n - 1
REM
REM in /home/nfs/bkarasulu/CARBON/AIRSS/Generating-Clusters/TERSOFF/Only-C1/FIRE-HFTN
REM
REM
REM
REM
REM
REM ./C.cell (11c1c37f851c82e70ff6c80c92926a4b)
REM AIRSS Version 0.9.1 bugfix July 2018 build 013d7b7c2542+ Fri, 06 Jul 2018 19:26:36 +0100
REM compiler GCC version 9.2.1 20190827 (Red Hat 9.2.1-1)
REM options -cpp -mtune=generic -march=x86-64 -g -O0 -fpre-include=/usr/include/finclude/math-vector-fortran.h
REM seed -1753445111 871437023 -907716405 434699893 -1629837653 -1576590036 1887762083 -338716722 -1872081483 -220196461 822343808 1424297889 1374934023 103009216 1304959059 -1379894255 2141314719 2006904644 476252605 1604869403 -1538911237 770918560 -1624673362 618975282 -2024094056 -897163042 -406606663 1923286626 241057133 -1522498088 119012443 453489198 753088167
REM
CELL 1.54180   50.00000   50.00000   50.00000   90.00000   90.00000   90.00000
LATT -1
SFAC C  
C      1  0.4068500000000  0.5600890000000  0.4226050000000 1.0
C      1  0.5043270000000  0.6249290000000  0.5268270000000 1.0
C      1  0.4286450000000  0.5380230000000  0.4787350000000 1.0
C      1  0.4685410000000  0.6120750000000  0.5613780000000 1.0
C      1  0.4620260000000  0.4230320000000  0.5831070000000 1.0
C      1  0.4901430000000  0.4899110000000  0.3730100000000 1.0
C      1  0.4710770000000  0.5331210000000  0.3643320000000 1.0
C      1  0.4098650000000  0.4690390000000  0.4342020000000 1.0
C      1  0.4212130000000  0.4850280000000  0.5878660000000 1.0
C      1  0.3773970000000  0.4843530000000  0.4807230000000 1.0
C      1  0.5527150000000  0.4653570000000  0.4805620000000 1.0
C      1  0.3931210000000  0.4528090000000  0.4477050000000 1.0
C      1  0.5324760000000  0.4937030000000  0.4180930000000 1.0
C      1  0.5497630000000  0.5122940000000  0.4743230000000 1.0
C      1  0.5896230000000  0.5103020000000  0.5057300000000 1.0
C      1  0.5371850000000  0.3947870000000  0.5170550000000 1.0
C      1  0.4833100000000  0.5587770000000  0.6054960000000 1.0
C      1  0.4920830000000  0.5286780000000  0.5302610000000 1.0
C      1  0.5402750000000  0.5451120000000  0.5612650000000 1.0
C      1  0.5736670000000  0.4482400000000  0.4889650000000 1.0
C      1  0.4037430000000  0.4653740000000  0.5188290000000 1.0
C      1  0.5673930000000  0.4208320000000  0.4884150000000 1.0
C      1  0.4491320000000  0.4923290000000  0.4611650000000 1.0
C      1  0.4406490000000  0.5738680000000  0.5413570000000 1.0
C      1  0.5033610000000  0.4486090000000  0.4842100000000 1.0
C      1  0.5029120000000  0.4480120000000  0.5342770000000 1.0
C      1  0.5404040000000  0.5179440000000  0.5688680000000 1.0
C      1  0.5620430000000  0.4879300000000  0.4660810000000 1.0
C      1  0.3906350000000  0.5948810000000  0.4572810000000 1.0
C      1  0.5471610000000  0.4425190000000  0.5526620000000 1.0
C      1  0.5035970000000  0.5506970000000  0.5150730000000 1.0
C      1  0.4272290000000  0.4588020000000  0.5904280000000 1.0
C      1  0.4518160000000  0.4743610000000  0.4864170000000 1.0
C      1  0.4012150000000  0.5977430000000  0.4821290000000 1.0
C      1  0.6002390000000  0.4856930000000  0.4974210000000 1.0
C      1  0.4818660000000  0.5107250000000  0.5085930000000 1.0
C      1  0.4649200000000  0.5394330000000  0.6062560000000 1.0
C      1  0.5426310000000  0.4430510000000  0.4213110000000 1.0
C      1  0.4834780000000  0.4418300000000  0.5821680000000 1.0
C      1  0.6298810000000  0.5521050000000  0.4449900000000 1.0
C      1  0.5399750000000  0.4928160000000  0.5569020000000 1.0
C      1  0.4274650000000  0.5032560000000  0.5355440000000 1.0
C      1  0.5168240000000  0.4943380000000  0.4422540000000 1.0
C      1  0.4721260000000  0.5885480000000  0.4434970000000 1.0
C      1  0.5598060000000  0.4126720000000  0.5151640000000 1.0
C      1  0.4821980000000  0.5153210000000  0.3818910000000 1.0
C      1  0.3944600000000  0.5048640000000  0.4922350000000 1.0
C      1  0.4440280000000  0.4165370000000  0.5329400000000 1.0
C      1  0.4662510000000  0.3987550000000  0.5682030000000 1.0
C      1  0.4828150000000  0.3926140000000  0.5169300000000 1.0
C      1  0.5832140000000  0.4887690000000  0.4466720000000 1.0
C      1  0.4981690000000  0.4645930000000  0.3746880000000 1.0
C      1  0.5896390000000  0.4654360000000  0.5829120000000 1.0
C      1  0.5811640000000  0.5697930000000  0.3929030000000 1.0
C      1  0.5616390000000  0.4124160000000  0.4619570000000 1.0
C      1  0.4491670000000  0.4478850000000  0.4076150000000 1.0
C      1  0.3911530000000  0.4542190000000  0.5403340000000 1.0
C      1  0.4805540000000  0.5571480000000  0.4981000000000 1.0
C      1  0.4240570000000  0.5380500000000  0.4291120000000 1.0
C      1  0.4076070000000  0.4943470000000  0.5169260000000 1.0
C      1  0.4546600000000  0.4226230000000  0.4152290000000 1.0
C      1  0.5563080000000  0.4247110000000  0.4383600000000 1.0
C      1  0.4927050000000  0.5817300000000  0.4242830000000 1.0
C      1  0.4568760000000  0.5161990000000  0.5930160000000 1.0
C      1  0.4951470000000  0.4769990000000  0.4469300000000 1.0
C      1  0.5483280000000  0.4674600000000  0.5662680000000 1.0
C      1  0.5302430000000  0.5876580000000  0.4680070000000 1.0
C      1  0.6032670000000  0.5184760000000  0.5289820000000 1.0
C      1  0.5622420000000  0.4670600000000  0.5913190000000 1.0
C      1  0.6007050000000  0.5176610000000  0.5765060000000 1.0
C      1  0.5914980000000  0.5435560000000  0.5758580000000 1.0
C      1  0.5220450000000  0.4300510000000  0.5493270000000 1.0
C      1  0.6352810000000  0.5689460000000  0.4943010000000 1.0
C      1  0.4708070000000  0.4826050000000  0.5585740000000 1.0
C      1  0.4176560000000  0.4097860000000  0.5330310000000 1.0
C      1  0.6056190000000  0.5720810000000  0.4030160000000 1.0
C      1  0.5929980000000  0.4601430000000  0.5057820000000 1.0
C      1  0.4090880000000  0.4516900000000  0.4939440000000 1.0
C      1  0.4568190000000  0.4412460000000  0.5256880000000 1.0
C      1  0.5091650000000  0.5400460000000  0.4559880000000 1.0
C      1  0.3939320000000  0.5804620000000  0.4347220000000 1.0
C      1  0.5502270000000  0.4705270000000  0.4159380000000 1.0
C      1  0.5429750000000  0.4698350000000  0.6118680000000 1.0
C      1  0.5647450000000  0.5235480000000  0.4971790000000 1.0
C      1  0.6383530000000  0.5651930000000  0.4681690000000 1.0
C      1  0.4983020000000  0.4501680000000  0.4566770000000 1.0
C      1  0.4510770000000  0.4227760000000  0.4822300000000 1.0
C      1  0.5770080000000  0.4766880000000  0.4220820000000 1.0
C      1  0.5007720000000  0.4449070000000  0.6048310000000 1.0
C      1  0.5161920000000  0.4358620000000  0.4142070000000 1.0
C      1  0.3885630000000  0.4583720000000  0.4748210000000 1.0
C      1  0.4209770000000  0.4141020000000  0.6070520000000 1.0
C      1  0.4687590000000  0.5824760000000  0.5024740000000 1.0
C      1  0.5330560000000  0.5486880000000  0.4034900000000 1.0
C      1  0.5345270000000  0.5197590000000  0.4056300000000 1.0
C      1  0.4751540000000  0.4120390000000  0.4959820000000 1.0
C      1  0.4752850000000  0.6089860000000  0.4625250000000 1.0
C      1  0.5560760000000  0.5611480000000  0.3930960000000 1.0
C      1  0.4048250000000  0.5239080000000  0.4729860000000 1.0
C      1  0.4234400000000  0.5837630000000  0.4921260000000 1.0
C      1  0.5218630000000  0.3849750000000  0.5780100000000 1.0
C      1  0.5110220000000  0.3869650000000  0.5173550000000 1.0
C      1  0.5052000000000  0.5677370000000  0.5931780000000 1.0
C      1  0.4807320000000  0.5354150000000  0.4335200000000 1.0
C      1  0.5290390000000  0.4918700000000  0.5315190000000 1.0
C      1  0.4992200000000  0.4918740000000  0.5987640000000 1.0
C      1  0.5119950000000  0.5667510000000  0.4119800000000 1.0
C      1  0.4803360000000  0.6054230000000  0.4900840000000 1.0
C      1  0.4757570000000  0.4146450000000  0.4300890000000 1.0
C      1  0.4984400000000  0.4302700000000  0.4360720000000 1.0
C      1  0.6058560000000  0.5468710000000  0.5317670000000 1.0
C      1  0.4855580000000  0.5225140000000  0.4089170000000 1.0
C      1  0.5270540000000  0.4618500000000  0.4929360000000 1.0
C      1  0.4764820000000  0.4980550000000  0.5828660000000 1.0
C      1  0.5033330000000  0.4248740000000  0.6240550000000 1.0
C      1  0.6226120000000  0.5250940000000  0.4466810000000 1.0
C      1  0.4526710000000  0.4881420000000  0.5359640000000 1.0
C      1  0.5520540000000  0.5445280000000  0.5125220000000 1.0
C      1  0.5975800000000  0.4724220000000  0.5554590000000 1.0
C      1  0.5275610000000  0.5533350000000  0.5009180000000 1.0
C      1  0.4420480000000  0.5826010000000  0.5137960000000 1.0
C      1  0.4686840000000  0.4834460000000  0.4400620000000 1.0
C      1  0.4366870000000  0.4320480000000  0.5934350000000 1.0
C      1  0.4576850000000  0.4717480000000  0.4166510000000 1.0
C      1  0.6232760000000  0.5625460000000  0.5171110000000 1.0
C      1  0.5248360000000  0.5633030000000  0.5757250000000 1.0
C      1  0.5900360000000  0.4531470000000  0.5335100000000 1.0
C      1  0.5203380000000  0.4688810000000  0.5195990000000 1.0
C      1  0.4529270000000  0.5454760000000  0.4347940000000 1.0
C      1  0.4369810000000  0.4486080000000  0.4858050000000 1.0
C      1  0.6236040000000  0.5661630000000  0.4216680000000 1.0
C      1  0.5065980000000  0.4437770000000  0.3890720000000 1.0
C      1  0.4275950000000  0.5235600000000  0.5556930000000 1.0
C      1  0.5684260000000  0.4328070000000  0.5363350000000 1.0
C      1  0.4105300000000  0.5169970000000  0.4447190000000 1.0
C      1  0.4725920000000  0.5379380000000  0.5485470000000 1.0
C      1  0.4731470000000  0.5301880000000  0.4891320000000 1.0
C      1  0.4514090000000  0.5212600000000  0.4746710000000 1.0
C      1  0.5144600000000  0.4698550000000  0.6079780000000 1.0
C      1  0.5048070000000  0.4064310000000  0.6424070000000 1.0
C      1  0.5242590000000  0.5157620000000  0.4599010000000 1.0
C      1  0.5856490000000  0.5550620000000  0.5500510000000 1.0
C      1  0.5179390000000  0.4064120000000  0.5636330000000 1.0
C      1  0.4896620000000  0.6230980000000  0.5491790000000 1.0
C      1  0.4231050000000  0.4915370000000  0.4445360000000 1.0
C      1  0.4648050000000  0.4876930000000  0.5098480000000 1.0
C      1  0.4846130000000  0.4384610000000  0.5099000000000 1.0
C      1  0.4308860000000  0.5113690000000  0.5821370000000 1.0
C      1  0.4335390000000  0.5654310000000  0.4726020000000 1.0
C      1  0.5586190000000  0.5518230000000  0.5402340000000 1.0
C      1  0.5268560000000  0.6095360000000  0.4837570000000 1.0
C      1  0.4644430000000  0.3964770000000  0.5397110000000 1.0
C      1  0.5048160000000  0.6159480000000  0.5003130000000 1.0
C      1  0.4488230000000  0.5939400000000  0.5596790000000 1.0
C      1  0.6062370000000  0.5043330000000  0.4486750000000 1.0
C      1  0.4450070000000  0.5461960000000  0.5492660000000 1.0
C      1  0.4516070000000  0.5697130000000  0.4503230000000 1.0
C      1  0.4854970000000  0.4579890000000  0.5579980000000 1.0
C      1  0.5228520000000  0.5607640000000  0.4727700000000 1.0
C      1  0.6031350000000  0.5013490000000  0.5526760000000 1.0
END
