TITL C-612602-9376-851 0.000114238935007918 125000 -424.092476603284 0 0 71 (C1) n - 1
REM
REM in /home/nfs/bkarasulu/CARBON/AIRSS/Generating-Clusters/TERSOFF/Only-C1/FIRE-HFTN
REM
REM
REM
REM
REM
REM ./C.cell (11c1c37f851c82e70ff6c80c92926a4b)
REM AIRSS Version 0.9.1 bugfix July 2018 build 013d7b7c2542+ Fri, 06 Jul 2018 19:26:36 +0100
REM compiler GCC version 9.2.1 20190827 (Red Hat 9.2.1-1)
REM options -cpp -mtune=generic -march=x86-64 -g -O0 -fpre-include=/usr/include/finclude/math-vector-fortran.h
REM seed -1668815326 1002222199 489717490 -15075089 -1728699205 -1105093693 -1224323232 -595407285 -212234670 844421282 -2091296801 -1403363431 -279869029 1617856922 -1650704404 -299972097 645882766 -1352340098 2023805208 693027121 1966960485 94698175 -566825142 1907184775 -356602141 -1712019892 1676806590 639660478 1282185187 1026710535 -19180840 -1699025135 -2032788431
REM
CELL 1.54180   50.00000   50.00000   50.00000   90.00000   90.00000   90.00000
LATT -1
SFAC C  
C      1  0.5150920000000  0.5629590000000  0.5497020000000 1.0
C      1  0.5876420000000  0.4650520000000  0.4325100000000 1.0
C      1  0.5376900000000  0.5598660000000  0.4600590000000 1.0
C      1  0.5579040000000  0.5020080000000  0.4387070000000 1.0
C      1  0.5201470000000  0.5201100000000  0.4862800000000 1.0
C      1  0.4475740000000  0.5473720000000  0.4927640000000 1.0
C      1  0.4893990000000  0.4610200000000  0.5180740000000 1.0
C      1  0.4590690000000  0.5443400000000  0.4653570000000 1.0
C      1  0.4194960000000  0.4990590000000  0.4263120000000 1.0
C      1  0.4608680000000  0.5719150000000  0.5014410000000 1.0
C      1  0.4618050000000  0.5255320000000  0.4219160000000 1.0
C      1  0.4435970000000  0.4915970000000  0.4151360000000 1.0
C      1  0.5731400000000  0.5260730000000  0.4432010000000 1.0
C      1  0.4264980000000  0.5096720000000  0.5271630000000 1.0
C      1  0.4817860000000  0.5790820000000  0.4844640000000 1.0
C      1  0.4795140000000  0.4389590000000  0.4767610000000 1.0
C      1  0.4995420000000  0.5625250000000  0.5731860000000 1.0
C      1  0.4532420000000  0.4745840000000  0.4910170000000 1.0
C      1  0.4686270000000  0.4191530000000  0.5422890000000 1.0
C      1  0.5062170000000  0.5471790000000  0.5275250000000 1.0
C      1  0.5324080000000  0.4161310000000  0.4947200000000 1.0
C      1  0.5634340000000  0.5408090000000  0.4975370000000 1.0
C      1  0.4303130000000  0.4335370000000  0.5118290000000 1.0
C      1  0.4986380000000  0.5255730000000  0.6083770000000 1.0
C      1  0.5616170000000  0.5507110000000  0.4467110000000 1.0
C      1  0.5139990000000  0.4582040000000  0.5774330000000 1.0
C      1  0.4289440000000  0.4870600000000  0.5424170000000 1.0
C      1  0.5113810000000  0.4925490000000  0.4822390000000 1.0
C      1  0.5427320000000  0.4341150000000  0.4768300000000 1.0
C      1  0.4199200000000  0.5217640000000  0.4418140000000 1.0
C      1  0.5791140000000  0.5315730000000  0.5202060000000 1.0
C      1  0.5415270000000  0.5618990000000  0.4907420000000 1.0
C      1  0.4715610000000  0.4652990000000  0.4707190000000 1.0
C      1  0.4701230000000  0.4814880000000  0.5136630000000 1.0
C      1  0.4873530000000  0.5162330000000  0.4264440000000 1.0
C      1  0.4170750000000  0.4108780000000  0.5045400000000 1.0
C      1  0.5159350000000  0.4673480000000  0.5249410000000 1.0
C      1  0.4655320000000  0.4756650000000  0.4202910000000 1.0
C      1  0.5332580000000  0.5115240000000  0.4285270000000 1.0
C      1  0.5113080000000  0.5291580000000  0.4321450000000 1.0
C      1  0.4330180000000  0.5292400000000  0.5092280000000 1.0
C      1  0.4851700000000  0.4365680000000  0.5039850000000 1.0
C      1  0.5413200000000  0.5723890000000  0.5524510000000 1.0
C      1  0.5170060000000  0.5455920000000  0.5013170000000 1.0
C      1  0.5752350000000  0.5027490000000  0.5227050000000 1.0
C      1  0.4866700000000  0.5279360000000  0.5331940000000 1.0
C      1  0.4880890000000  0.4138270000000  0.5205310000000 1.0
C      1  0.4798190000000  0.4201030000000  0.5682120000000 1.0
C      1  0.5456700000000  0.5895610000000  0.5004050000000 1.0
C      1  0.5236810000000  0.4641940000000  0.5516040000000 1.0
C      1  0.4946810000000  0.5483760000000  0.5952400000000 1.0
C      1  0.5550080000000  0.4925320000000  0.5048990000000 1.0
C      1  0.4379110000000  0.4619090000000  0.5488680000000 1.0
C      1  0.4446580000000  0.4362810000000  0.5367980000000 1.0
C      1  0.5072320000000  0.5004180000000  0.6088970000000 1.0
C      1  0.5109500000000  0.5521070000000  0.4500310000000 1.0
C      1  0.5674320000000  0.5668920000000  0.5529230000000 1.0
C      1  0.5145050000000  0.4774830000000  0.5976300000000 1.0
C      1  0.5294200000000  0.4789020000000  0.5030140000000 1.0
C      1  0.4312840000000  0.4571480000000  0.4957450000000 1.0
C      1  0.5839710000000  0.5494770000000  0.5410260000000 1.0
C      1  0.5145280000000  0.4047480000000  0.5125400000000 1.0
C      1  0.5645290000000  0.4743900000000  0.4445230000000 1.0
C      1  0.4854660000000  0.5595560000000  0.4629380000000 1.0
C      1  0.4871800000000  0.4886760000000  0.4341990000000 1.0
C      1  0.5505770000000  0.4549830000000  0.4609430000000 1.0
C      1  0.4453210000000  0.5347890000000  0.4427060000000 1.0
C      1  0.4743190000000  0.5055020000000  0.5267920000000 1.0
C      1  0.4983370000000  0.4350370000000  0.5804950000000 1.0
C      1  0.4923070000000  0.4827010000000  0.4617960000000 1.0
C      1  0.5496860000000  0.5163610000000  0.4883790000000 1.0
END
