TITL C-612601-4209-1249 146.407210299459 125000 -807.315840934376 0 0 132 (C1) n - 1
REM
REM in /home/nfs/bkarasulu/CARBON/AIRSS/Generating-Clusters/TERSOFF/Only-C1/FIRE-HFTN
REM
REM
REM
REM
REM
REM ./C.cell (11c1c37f851c82e70ff6c80c92926a4b)
REM AIRSS Version 0.9.1 bugfix July 2018 build 013d7b7c2542+ Fri, 06 Jul 2018 19:26:36 +0100
REM compiler GCC version 9.2.1 20190827 (Red Hat 9.2.1-1)
REM options -cpp -mtune=generic -march=x86-64 -g -O0 -fpre-include=/usr/include/finclude/math-vector-fortran.h
REM seed 963484 -1413395358 -1102368514 93710259 -78669816 393840995 599006969 -856523813 469834052 -819087431 -1249813302 -162473058 643341909 1570338244 1574271569 -1995647316 1736857755 -661265087 -1754784065 1186539874 -816763864 395951010 -1287619585 -1233291122 -376646609 1235826461 -1085672153 -993203758 1956074268 1382212359 108453441 1841376971 -194007254
REM
CELL 1.54180   50.00000   50.00000   50.00000   90.00000   90.00000   90.00000
LATT -1
SFAC C  
C      1  0.5187320000000  0.4001950000000  0.5444710000000 1.0
C      1  0.5217870000000  0.5823590000000  0.5104890000000 1.0
C      1  0.4619450000000  0.5583370000000  0.4202670000000 1.0
C      1  0.4726480000000  0.4890350000000  0.5504120000000 1.0
C      1  0.5921640000000  0.5682920000000  0.5320680000000 1.0
C      1  0.4553200000000  0.5152890000000  0.3907890000000 1.0
C      1  0.4699180000000  0.5136750000000  0.4796330000000 1.0
C      1  0.3770580000000  0.4541250000000  0.4732920000000 1.0
C      1  0.5960920000000  0.4387600000000  0.5134870000000 1.0
C      1  0.4987270000000  0.4445780000000  0.5800330000000 1.0
C      1  0.5905800000000  0.5026200000000  0.4358930000000 1.0
C      1  0.5582310000000  0.4823320000000  0.5182760000000 1.0
C      1  0.5325640000000  0.6067230000000  0.5021050000000 1.0
C      1  0.4951400000000  0.4734520000000  0.5887240000000 1.0
C      1  0.4931480000000  0.4735260000000  0.5380080000000 1.0
C      1  0.4108960000000  0.5166670000000  0.5382900000000 1.0
C      1  0.4597650000000  0.4373430000000  0.4514640000000 1.0
C      1  0.5174800000000  0.5372580000000  0.4860520000000 1.0
C      1  0.4201950000000  0.5656880000000  0.4830390000000 1.0
C      1  0.3957130000000  0.4573830000000  0.4938460000000 1.0
C      1  0.4741710000000  0.4008300000000  0.4961610000000 1.0
C      1  0.4072880000000  0.5095400000000  0.4895510000000 1.0
C      1  0.5036290000000  0.5200030000000  0.5095100000000 1.0
C      1  0.5818450000000  0.4908310000000  0.5049810000000 1.0
C      1  0.4694600000000  0.5381800000000  0.3999090000000 1.0
C      1  0.5986490000000  0.4490320000000  0.4884420000000 1.0
C      1  0.5113080000000  0.5589710000000  0.4151340000000 1.0
C      1  0.4129310000000  0.4679050000000  0.5515440000000 1.0
C      1  0.5167370000000  0.4161840000000  0.4634570000000 1.0
C      1  0.5829770000000  0.5827360000000  0.4823280000000 1.0
C      1  0.5462180000000  0.5286420000000  0.4866910000000 1.0
C      1  0.5265880000000  0.5188940000000  0.5841900000000 1.0
C      1  0.4558590000000  0.5069440000000  0.5913990000000 1.0
C      1  0.5749950000000  0.5578580000000  0.5522240000000 1.0
C      1  0.5381270000000  0.5597450000000  0.4256110000000 1.0
C      1  0.5462290000000  0.4798980000000  0.5455090000000 1.0
C      1  0.4682590000000  0.4959780000000  0.4398510000000 1.0
C      1  0.5077780000000  0.4344840000000  0.5088780000000 1.0
C      1  0.5067580000000  0.5110330000000  0.4125840000000 1.0
C      1  0.4049280000000  0.5285710000000  0.5122890000000 1.0
C      1  0.4951990000000  0.4208290000000  0.4839150000000 1.0
C      1  0.4537930000000  0.4885870000000  0.3964100000000 1.0
C      1  0.5403290000000  0.6310350000000  0.4949980000000 1.0
C      1  0.4041520000000  0.4879310000000  0.5336050000000 1.0
C      1  0.5485520000000  0.6544690000000  0.4870780000000 1.0
C      1  0.4461530000000  0.4053510000000  0.4855710000000 1.0
C      1  0.5342810000000  0.3958140000000  0.4727080000000 1.0
C      1  0.5352540000000  0.4603980000000  0.4460800000000 1.0
C      1  0.4767610000000  0.5307510000000  0.5195070000000 1.0
C      1  0.4940480000000  0.4979080000000  0.4903330000000 1.0
C      1  0.6012070000000  0.4955580000000  0.4610780000000 1.0
C      1  0.5281130000000  0.4968470000000  0.4019450000000 1.0
C      1  0.5640050000000  0.5433330000000  0.4238570000000 1.0
C      1  0.4464460000000  0.4140470000000  0.5321940000000 1.0
C      1  0.4722140000000  0.4005080000000  0.5255910000000 1.0
C      1  0.4724090000000  0.6135370000000  0.4784620000000 1.0
C      1  0.4273580000000  0.5783850000000  0.5061920000000 1.0
C      1  0.5450290000000  0.5798760000000  0.4463780000000 1.0
C      1  0.5554690000000  0.5327710000000  0.5134740000000 1.0
C      1  0.5288760000000  0.3844780000000  0.5230070000000 1.0
C      1  0.5991430000000  0.5141370000000  0.5039210000000 1.0
C      1  0.4872300000000  0.5727590000000  0.4251220000000 1.0
C      1  0.5837390000000  0.5586300000000  0.4390830000000 1.0
C      1  0.5190260000000  0.4368780000000  0.4426140000000 1.0
C      1  0.5164050000000  0.4931510000000  0.5934300000000 1.0
C      1  0.4716840000000  0.4870500000000  0.5788790000000 1.0
C      1  0.5712200000000  0.5158330000000  0.4194760000000 1.0
C      1  0.5265810000000  0.4353160000000  0.5783010000000 1.0
C      1  0.5347520000000  0.4420620000000  0.5124990000000 1.0
C      1  0.5916810000000  0.4753850000000  0.4809700000000 1.0
C      1  0.4691700000000  0.5908000000000  0.4929590000000 1.0
C      1  0.5184520000000  0.4811500000000  0.4851560000000 1.0
C      1  0.5346270000000  0.4844600000000  0.4611070000000 1.0
C      1  0.5924330000000  0.4757820000000  0.5511120000000 1.0
C      1  0.5521470000000  0.4345480000000  0.5353920000000 1.0
C      1  0.5089920000000  0.5649920000000  0.4918540000000 1.0
C      1  0.4888810000000  0.5564790000000  0.5734700000000 1.0
C      1  0.5503610000000  0.5082300000000  0.4666910000000 1.0
C      1  0.5804170000000  0.4463020000000  0.5362920000000 1.0
C      1  0.4675970000000  0.5401240000000  0.4935870000000 1.0
C      1  0.4806700000000  0.5657950000000  0.4872370000000 1.0
C      1  0.4304780000000  0.4163020000000  0.5081010000000 1.0
C      1  0.4704580000000  0.4492300000000  0.4278190000000 1.0
C      1  0.5359620000000  0.4204250000000  0.5553410000000 1.0
C      1  0.4431290000000  0.4154340000000  0.4588920000000 1.0
C      1  0.5410370000000  0.5263250000000  0.5374380000000 1.0
C      1  0.4884140000000  0.4540890000000  0.5183350000000 1.0
C      1  0.4908060000000  0.4059720000000  0.5470420000000 1.0
C      1  0.5059890000000  0.5268490000000  0.4585250000000 1.0
C      1  0.5081540000000  0.5404790000000  0.5859420000000 1.0
C      1  0.4510400000000  0.4310650000000  0.5555080000000 1.0
C      1  0.5921930000000  0.5780450000000  0.5070310000000 1.0
C      1  0.5183320000000  0.5120970000000  0.5319680000000 1.0
C      1  0.4460580000000  0.5296490000000  0.5770740000000 1.0
C      1  0.4248280000000  0.5183130000000  0.4669650000000 1.0
C      1  0.4598760000000  0.5544790000000  0.5781330000000 1.0
C      1  0.4491530000000  0.5769540000000  0.5637090000000 1.0
C      1  0.4360430000000  0.5225670000000  0.5509600000000 1.0
C      1  0.4507730000000  0.5060260000000  0.4604270000000 1.0
C      1  0.4400930000000  0.5562410000000  0.4381880000000 1.0
C      1  0.3441920000000  0.4493350000000  0.4325540000000 1.0
C      1  0.4974550000000  0.4402610000000  0.4238070000000 1.0
C      1  0.4661660000000  0.5846550000000  0.5411940000000 1.0
C      1  0.4453540000000  0.4950360000000  0.5136630000000 1.0
C      1  0.4794250000000  0.4277680000000  0.5650210000000 1.0
C      1  0.4623450000000  0.4759520000000  0.4204310000000 1.0
C      1  0.4469900000000  0.4724830000000  0.5002790000000 1.0
C      1  0.5483300000000  0.5236360000000  0.5654330000000 1.0
C      1  0.4990190000000  0.5359030000000  0.4013250000000 1.0
C      1  0.4948850000000  0.5087110000000  0.4385800000000 1.0
C      1  0.4941210000000  0.5745250000000  0.5502790000000 1.0
C      1  0.5542790000000  0.4726150000000  0.5715460000000 1.0
C      1  0.4094920000000  0.4345380000000  0.5036430000000 1.0
C      1  0.4525590000000  0.5884970000000  0.5159590000000 1.0
C      1  0.5383330000000  0.4683740000000  0.5027210000000 1.0
C      1  0.4589030000000  0.5110770000000  0.5345900000000 1.0
C      1  0.5918590000000  0.5034050000000  0.5584900000000 1.0
C      1  0.5362650000000  0.3839530000000  0.4970390000000 1.0
C      1  0.5211330000000  0.5764890000000  0.5389040000000 1.0
C      1  0.4759580000000  0.4425960000000  0.4744920000000 1.0
C      1  0.4254720000000  0.5475090000000  0.4613710000000 1.0
C      1  0.5545950000000  0.5003200000000  0.4030890000000 1.0
C      1  0.5768650000000  0.5292530000000  0.5634090000000 1.0
C      1  0.3604420000000  0.4516750000000  0.4528050000000 1.0
C      1  0.6105730000000  0.5168240000000  0.4788270000000 1.0
C      1  0.5181760000000  0.4857210000000  0.5413230000000 1.0
C      1  0.4311540000000  0.4503360000000  0.5606130000000 1.0
C      1  0.5462230000000  0.4529990000000  0.5881570000000 1.0
C      1  0.4005310000000  0.4835980000000  0.5040900000000 1.0
C      1  0.4690500000000  0.4569430000000  0.4976340000000 1.0
C      1  0.5474190000000  0.5707170000000  0.5516470000000 1.0
C      1  0.5719250000000  0.5775840000000  0.4572690000000 1.0
END
