TITL C-612605-9286-1120 -12629.3391675116 125000 -973.094035069018 0 0 159 (C1) n - 1
REM
REM in /home/nfs/bkarasulu/CARBON/AIRSS/Generating-Clusters/TERSOFF/Only-C1/FIRE-HFTN
REM
REM
REM
REM
REM
REM ./C.cell (11c1c37f851c82e70ff6c80c92926a4b)
REM AIRSS Version 0.9.1 bugfix July 2018 build 013d7b7c2542+ Fri, 06 Jul 2018 19:26:36 +0100
REM compiler GCC version 9.2.1 20190827 (Red Hat 9.2.1-1)
REM options -cpp -mtune=generic -march=x86-64 -g -O0 -fpre-include=/usr/include/finclude/math-vector-fortran.h
REM seed -1636835816 399087421 556497377 -403439825 1081017897 -463116798 434045044 1712011657 -482435206 -1059720975 -542706901 749011372 49088815 -1052857949 539996694 -829008621 713256438 825010487 1938835806 1221088972 -1238349168 815554304 -1493313861 -1853153038 -1403278953 366302374 1349580043 2038092013 1064873910 2005218435 2027632329 1563059371 620074624
REM
CELL 1.54180   50.00000   50.00000   50.00000   90.00000   90.00000   90.00000
LATT -1
SFAC C  
C      1  0.4889490000000  0.4906600000000  0.5613620000000 1.0
C      1  0.4164670000000  0.5544710000000  0.5027730000000 1.0
C      1  0.5274390000000  0.5611640000000  0.4893020000000 1.0
C      1  0.3913490000000  0.4637140000000  0.4147250000000 1.0
C      1  0.4564790000000  0.4939450000000  0.4446300000000 1.0
C      1  0.5056350000000  0.5130990000000  0.4375610000000 1.0
C      1  0.4064390000000  0.5110310000000  0.3885990000000 1.0
C      1  0.4583230000000  0.5968430000000  0.5815690000000 1.0
C      1  0.4990840000000  0.5518650000000  0.4129610000000 1.0
C      1  0.4472800000000  0.4878740000000  0.5222890000000 1.0
C      1  0.5118580000000  0.5726320000000  0.4652490000000 1.0
C      1  0.5261430000000  0.5628000000000  0.4178330000000 1.0
C      1  0.3890110000000  0.4591730000000  0.5185630000000 1.0
C      1  0.6497330000000  0.5222750000000  0.5277990000000 1.0
C      1  0.5475500000000  0.4637920000000  0.5008090000000 1.0
C      1  0.3832590000000  0.4555180000000  0.4908140000000 1.0
C      1  0.5125720000000  0.4369500000000  0.4277890000000 1.0
C      1  0.5373340000000  0.4803510000000  0.5239510000000 1.0
C      1  0.4010980000000  0.4364660000000  0.5327510000000 1.0
C      1  0.4469380000000  0.4111620000000  0.5302160000000 1.0
C      1  0.4121780000000  0.4440230000000  0.5581230000000 1.0
C      1  0.3738700000000  0.5103350000000  0.4883000000000 1.0
C      1  0.4462680000000  0.5194540000000  0.6098350000000 1.0
C      1  0.3895470000000  0.4869370000000  0.5300110000000 1.0
C      1  0.5086610000000  0.6092920000000  0.5833700000000 1.0
C      1  0.5453940000000  0.5871540000000  0.5266130000000 1.0
C      1  0.5335070000000  0.4241060000000  0.4140390000000 1.0
C      1  0.4209960000000  0.5513960000000  0.4742310000000 1.0
C      1  0.4388310000000  0.4525160000000  0.5560670000000 1.0
C      1  0.4445920000000  0.4789980000000  0.5491170000000 1.0
C      1  0.4685300000000  0.5361420000000  0.6125070000000 1.0
C      1  0.4768480000000  0.5800980000000  0.5279220000000 1.0
C      1  0.5740280000000  0.4457600000000  0.4154480000000 1.0
C      1  0.5832480000000  0.4523890000000  0.5751240000000 1.0
C      1  0.4057690000000  0.5273580000000  0.4097750000000 1.0
C      1  0.4184910000000  0.4140380000000  0.5237080000000 1.0
C      1  0.5658020000000  0.5188970000000  0.5070250000000 1.0
C      1  0.6188750000000  0.4868950000000  0.4499040000000 1.0
C      1  0.5846440000000  0.5260670000000  0.5985680000000 1.0
C      1  0.4622740000000  0.5293220000000  0.5019230000000 1.0
C      1  0.5663460000000  0.4698160000000  0.6164740000000 1.0
C      1  0.5117120000000  0.4989350000000  0.4615400000000 1.0
C      1  0.5359750000000  0.4378600000000  0.4992910000000 1.0
C      1  0.5770890000000  0.5313670000000  0.5507470000000 1.0
C      1  0.5160150000000  0.5352960000000  0.4906080000000 1.0
C      1  0.4172570000000  0.4662370000000  0.4030380000000 1.0
C      1  0.6032590000000  0.5095980000000  0.6086500000000 1.0
C      1  0.4627420000000  0.5418560000000  0.4478070000000 1.0
C      1  0.4754430000000  0.4047070000000  0.4908950000000 1.0
C      1  0.5606610000000  0.5334030000000  0.4361850000000 1.0
C      1  0.5416690000000  0.4857380000000  0.4084640000000 1.0
C      1  0.4967440000000  0.4297780000000  0.5838150000000 1.0
C      1  0.5630710000000  0.4693970000000  0.4077900000000 1.0
C      1  0.4891610000000  0.5376760000000  0.4366940000000 1.0
C      1  0.4475940000000  0.4088220000000  0.4404540000000 1.0
C      1  0.5885150000000  0.4648990000000  0.5997910000000 1.0
C      1  0.5791920000000  0.5583670000000  0.5405940000000 1.0
C      1  0.4247170000000  0.4895710000000  0.3868090000000 1.0
C      1  0.4208470000000  0.4419370000000  0.4636020000000 1.0
C      1  0.5795130000000  0.5076760000000  0.5319850000000 1.0
C      1  0.5048310000000  0.4836560000000  0.5866060000000 1.0
C      1  0.3876900000000  0.5101780000000  0.5128690000000 1.0
C      1  0.5321280000000  0.6063430000000  0.5711130000000 1.0
C      1  0.5276190000000  0.4768150000000  0.4556710000000 1.0
C      1  0.5205590000000  0.5785420000000  0.5135720000000 1.0
C      1  0.3809740000000  0.5235610000000  0.4659880000000 1.0
C      1  0.5441290000000  0.4400820000000  0.5458900000000 1.0
C      1  0.5599000000000  0.5612650000000  0.4854380000000 1.0
C      1  0.4631150000000  0.4314500000000  0.4892410000000 1.0
C      1  0.4959390000000  0.4644280000000  0.5457430000000 1.0
C      1  0.4572850000000  0.4728700000000  0.4263380000000 1.0
C      1  0.4402210000000  0.5075940000000  0.5849740000000 1.0
C      1  0.5759750000000  0.5347550000000  0.4852660000000 1.0
C      1  0.4832720000000  0.6061700000000  0.4354070000000 1.0
C      1  0.4046140000000  0.5358710000000  0.4573220000000 1.0
C      1  0.3826910000000  0.4589330000000  0.4399620000000 1.0
C      1  0.4508890000000  0.4976900000000  0.3770480000000 1.0
C      1  0.6315650000000  0.4803050000000  0.5830310000000 1.0
C      1  0.4365020000000  0.4708220000000  0.5016040000000 1.0
C      1  0.5032190000000  0.5390930000000  0.5454470000000 1.0
C      1  0.3938390000000  0.4513910000000  0.4648850000000 1.0
C      1  0.4437770000000  0.5853040000000  0.5622040000000 1.0
C      1  0.5151580000000  0.4987850000000  0.5159000000000 1.0
C      1  0.6370160000000  0.4873780000000  0.5579320000000 1.0
C      1  0.4819750000000  0.4736950000000  0.4869240000000 1.0
C      1  0.5444350000000  0.4850400000000  0.6141680000000 1.0
C      1  0.5005250000000  0.5644640000000  0.5321140000000 1.0
C      1  0.5103290000000  0.5151390000000  0.3883200000000 1.0
C      1  0.4305080000000  0.5142900000000  0.6316410000000 1.0
C      1  0.5499070000000  0.5600530000000  0.4353230000000 1.0
C      1  0.5739660000000  0.5793650000000  0.5605220000000 1.0
C      1  0.5379640000000  0.4224520000000  0.5236010000000 1.0
C      1  0.6107200000000  0.4732760000000  0.4745490000000 1.0
C      1  0.4375940000000  0.4541070000000  0.4193310000000 1.0
C      1  0.5673430000000  0.5706000000000  0.5152740000000 1.0
C      1  0.4182820000000  0.5265430000000  0.4346310000000 1.0
C      1  0.5657090000000  0.4701230000000  0.4802760000000 1.0
C      1  0.4454370000000  0.5196880000000  0.4399190000000 1.0
C      1  0.4592010000000  0.4942700000000  0.5683070000000 1.0
C      1  0.4927640000000  0.4098080000000  0.5655690000000 1.0
C      1  0.4895140000000  0.5346690000000  0.3901700000000 1.0
C      1  0.5232900000000  0.4606000000000  0.5428290000000 1.0
C      1  0.4782810000000  0.5932300000000  0.5007420000000 1.0
C      1  0.5640560000000  0.4834520000000  0.5399900000000 1.0
C      1  0.4327840000000  0.4331520000000  0.4389440000000 1.0
C      1  0.4888190000000  0.5503240000000  0.6206640000000 1.0
C      1  0.6129150000000  0.5141890000000  0.4507730000000 1.0
C      1  0.4967240000000  0.5882410000000  0.4496320000000 1.0
C      1  0.5663860000000  0.5267090000000  0.5772150000000 1.0
C      1  0.5200270000000  0.5378520000000  0.5681720000000 1.0
C      1  0.5207090000000  0.4005360000000  0.5277110000000 1.0
C      1  0.6315150000000  0.5033660000000  0.5356690000000 1.0
C      1  0.5585790000000  0.5774950000000  0.4584950000000 1.0
C      1  0.4357480000000  0.5740260000000  0.5110290000000 1.0
C      1  0.5467110000000  0.6039570000000  0.4642000000000 1.0
C      1  0.6077570000000  0.4972210000000  0.4929830000000 1.0
C      1  0.4788830000000  0.4488300000000  0.5306240000000 1.0
C      1  0.6071440000000  0.5007040000000  0.5213730000000 1.0
C      1  0.4909810000000  0.3982370000000  0.4666090000000 1.0
C      1  0.4887660000000  0.4231880000000  0.4252650000000 1.0
C      1  0.5548920000000  0.4842620000000  0.4585940000000 1.0
C      1  0.5012730000000  0.4551740000000  0.5929540000000 1.0
C      1  0.5605000000000  0.4129380000000  0.4516630000000 1.0
C      1  0.5810990000000  0.4267280000000  0.4675220000000 1.0
C      1  0.4684920000000  0.4883180000000  0.4691450000000 1.0
C      1  0.4797240000000  0.4507690000000  0.5024190000000 1.0
C      1  0.5259350000000  0.6137280000000  0.4799520000000 1.0
C      1  0.5593890000000  0.4231330000000  0.4247140000000 1.0
C      1  0.4826480000000  0.6057890000000  0.5880390000000 1.0
C      1  0.4714510000000  0.3977700000000  0.5196320000000 1.0
C      1  0.5132300000000  0.5082240000000  0.4886820000000 1.0
C      1  0.5262850000000  0.4069180000000  0.4654100000000 1.0
C      1  0.5504850000000  0.5947080000000  0.5539060000000 1.0
C      1  0.4494370000000  0.5777910000000  0.5360490000000 1.0
C      1  0.5188170000000  0.4505020000000  0.4527610000000 1.0
C      1  0.5064280000000  0.6018610000000  0.4982540000000 1.0
C      1  0.6003890000000  0.5216950000000  0.4760150000000 1.0
C      1  0.4662110000000  0.5096390000000  0.5199250000000 1.0
C      1  0.4639980000000  0.5228770000000  0.3835750000000 1.0
C      1  0.4382780000000  0.4464340000000  0.4854220000000 1.0
C      1  0.4130830000000  0.5045170000000  0.5755760000000 1.0
C      1  0.4757340000000  0.4054630000000  0.4425840000000 1.0
C      1  0.6102410000000  0.4833620000000  0.6008930000000 1.0
C      1  0.5384140000000  0.5212180000000  0.5813460000000 1.0
C      1  0.5236220000000  0.4324990000000  0.4747630000000 1.0
C      1  0.3964070000000  0.4936700000000  0.5571110000000 1.0
C      1  0.4944230000000  0.3989230000000  0.5385680000000 1.0
C      1  0.4568330000000  0.4352320000000  0.5429910000000 1.0
C      1  0.5195360000000  0.5031960000000  0.4124270000000 1.0
C      1  0.4939660000000  0.5110520000000  0.5365020000000 1.0
C      1  0.4639960000000  0.4805300000000  0.3599370000000 1.0
C      1  0.4488160000000  0.5605780000000  0.4663170000000 1.0
C      1  0.4689240000000  0.6230300000000  0.4216530000000 1.0
C      1  0.5888480000000  0.4539080000000  0.4751030000000 1.0
C      1  0.5282490000000  0.4979260000000  0.5950480000000 1.0
C      1  0.5672620000000  0.4567250000000  0.5526820000000 1.0
C      1  0.4028580000000  0.5341950000000  0.5169540000000 1.0
C      1  0.5627690000000  0.5082740000000  0.4457470000000 1.0
C      1  0.4550920000000  0.5803760000000  0.4877670000000 1.0
END
