TITL C-612607-4507-784 1469.01896128702 125000 -876.245370613898 0 0 144 (C1) n - 1
REM
REM in /home/nfs/bkarasulu/CARBON/AIRSS/Generating-Clusters/TERSOFF/Only-C1/FIRE-HFTN
REM
REM
REM
REM
REM
REM ./C.cell (11c1c37f851c82e70ff6c80c92926a4b)
REM AIRSS Version 0.9.1 bugfix July 2018 build 013d7b7c2542+ Fri, 06 Jul 2018 19:26:36 +0100
REM compiler GCC version 9.2.1 20190827 (Red Hat 9.2.1-1)
REM options -cpp -mtune=generic -march=x86-64 -g -O0 -fpre-include=/usr/include/finclude/math-vector-fortran.h
REM seed -1756644186 -1102585663 1754125918 1876436415 1065668981 1770725463 -2013801268 -1603157028 -817241526 1111111413 1614448852 -984054060 -2012751007 888831926 -194428422 -292376711 1122187937 1825360983 -784809315 -1970611718 -1691128161 1570746047 -365392540 -2127149794 1713399073 403706254 1708026677 -143756123 1084577483 -2017557893 1444395624 641148861 -1693916103
REM
CELL 1.54180   50.00000   50.00000   50.00000   90.00000   90.00000   90.00000
LATT -1
SFAC C  
C      1  0.5906740000000  0.5798130000000  0.5236010000000 1.0
C      1  0.5028390000000  0.5333660000000  0.6338030000000 1.0
C      1  0.4321060000000  0.6153870000000  0.5450500000000 1.0
C      1  0.3994870000000  0.4420850000000  0.4883510000000 1.0
C      1  0.4831030000000  0.5344040000000  0.4736810000000 1.0
C      1  0.5726910000000  0.5552640000000  0.5211930000000 1.0
C      1  0.5027440000000  0.4076420000000  0.4292050000000 1.0
C      1  0.5240260000000  0.4764410000000  0.5172870000000 1.0
C      1  0.4338760000000  0.4065540000000  0.4221480000000 1.0
C      1  0.4371730000000  0.5106250000000  0.3811110000000 1.0
C      1  0.5930910000000  0.5308370000000  0.5149700000000 1.0
C      1  0.4506690000000  0.4272070000000  0.4879830000000 1.0
C      1  0.5781050000000  0.4671390000000  0.5766640000000 1.0
C      1  0.5086010000000  0.5597850000000  0.5147600000000 1.0
C      1  0.5253790000000  0.5229320000000  0.3966870000000 1.0
C      1  0.5119830000000  0.4101920000000  0.4815400000000 1.0
C      1  0.4966480000000  0.3610730000000  0.5444110000000 1.0
C      1  0.5851540000000  0.5253630000000  0.4860270000000 1.0
C      1  0.4863360000000  0.4377470000000  0.3964440000000 1.0
C      1  0.4078080000000  0.4828710000000  0.5524760000000 1.0
C      1  0.4341720000000  0.5437340000000  0.4882990000000 1.0
C      1  0.5367450000000  0.4844710000000  0.5633320000000 1.0
C      1  0.5594860000000  0.4879540000000  0.5800580000000 1.0
C      1  0.5244040000000  0.4621760000000  0.3526040000000 1.0
C      1  0.5094830000000  0.4651620000000  0.5979900000000 1.0
C      1  0.5419490000000  0.4969930000000  0.4757790000000 1.0
C      1  0.5832910000000  0.5153800000000  0.4227230000000 1.0
C      1  0.5512660000000  0.5927730000000  0.5454490000000 1.0
C      1  0.4978570000000  0.4100200000000  0.5444610000000 1.0
C      1  0.4687810000000  0.5430380000000  0.4260370000000 1.0
C      1  0.5384550000000  0.4233710000000  0.5235990000000 1.0
C      1  0.5224830000000  0.5438880000000  0.4425290000000 1.0
C      1  0.4165200000000  0.5655160000000  0.4933530000000 1.0
C      1  0.4815260000000  0.4958170000000  0.5433300000000 1.0
C      1  0.4201910000000  0.5166760000000  0.4880090000000 1.0
C      1  0.4043700000000  0.5077260000000  0.5109390000000 1.0
C      1  0.5305130000000  0.4071850000000  0.4295760000000 1.0
C      1  0.5900360000000  0.5354710000000  0.4389160000000 1.0
C      1  0.5049830000000  0.4686930000000  0.6239850000000 1.0
C      1  0.3847420000000  0.4882470000000  0.5039590000000 1.0
C      1  0.4940670000000  0.5178220000000  0.5595710000000 1.0
C      1  0.5254630000000  0.4334280000000  0.4755380000000 1.0
C      1  0.5939140000000  0.4749420000000  0.5223130000000 1.0
C      1  0.4815380000000  0.6186360000000  0.5612070000000 1.0
C      1  0.5123270000000  0.4713110000000  0.5708710000000 1.0
C      1  0.5750650000000  0.6025270000000  0.5299320000000 1.0
C      1  0.5653590000000  0.6212680000000  0.5105410000000 1.0
C      1  0.4683510000000  0.4978950000000  0.4481360000000 1.0
C      1  0.4111970000000  0.5076520000000  0.5388780000000 1.0
C      1  0.5501330000000  0.4286440000000  0.5702890000000 1.0
C      1  0.4300870000000  0.4534800000000  0.4353590000000 1.0
C      1  0.4473320000000  0.5254840000000  0.5725830000000 1.0
C      1  0.4448130000000  0.4771520000000  0.5877110000000 1.0
C      1  0.4889910000000  0.5510920000000  0.4100270000000 1.0
C      1  0.4242930000000  0.5264720000000  0.5555410000000 1.0
C      1  0.5248530000000  0.5580020000000  0.4909140000000 1.0
C      1  0.4545140000000  0.4098270000000  0.5105090000000 1.0
C      1  0.5503800000000  0.4748880000000  0.4223350000000 1.0
C      1  0.4704390000000  0.4301300000000  0.5784680000000 1.0
C      1  0.4622520000000  0.4546460000000  0.5909410000000 1.0
C      1  0.5868240000000  0.5039820000000  0.5273490000000 1.0
C      1  0.4838080000000  0.4603500000000  0.4981880000000 1.0
C      1  0.4711790000000  0.5359750000000  0.5603680000000 1.0
C      1  0.4793480000000  0.4291340000000  0.4252180000000 1.0
C      1  0.5557610000000  0.6410200000000  0.4684150000000 1.0
C      1  0.4788690000000  0.5586370000000  0.5134050000000 1.0
C      1  0.5014190000000  0.4564020000000  0.5242410000000 1.0
C      1  0.4164550000000  0.4744490000000  0.4481340000000 1.0
C      1  0.5393960000000  0.6311620000000  0.5207240000000 1.0
C      1  0.4520620000000  0.4897130000000  0.4688830000000 1.0
C      1  0.5539120000000  0.4347950000000  0.4824960000000 1.0
C      1  0.5710190000000  0.5680470000000  0.4721260000000 1.0
C      1  0.5041710000000  0.3385210000000  0.5550830000000 1.0
C      1  0.4434130000000  0.4165310000000  0.5356590000000 1.0
C      1  0.4824200000000  0.5102460000000  0.4940660000000 1.0
C      1  0.4889090000000  0.3855010000000  0.5335070000000 1.0
C      1  0.4868420000000  0.4509600000000  0.4467470000000 1.0
C      1  0.5152740000000  0.5415680000000  0.4151100000000 1.0
C      1  0.3842910000000  0.4625740000000  0.4962730000000 1.0
C      1  0.5608310000000  0.5093890000000  0.5977550000000 1.0
C      1  0.5278830000000  0.5377760000000  0.6255530000000 1.0
C      1  0.5312200000000  0.6135040000000  0.5422700000000 1.0
C      1  0.4499240000000  0.4197190000000  0.5614480000000 1.0
C      1  0.5114530000000  0.4287330000000  0.5283840000000 1.0
C      1  0.5260480000000  0.6516610000000  0.5063060000000 1.0
C      1  0.4633340000000  0.5523160000000  0.4885270000000 1.0
C      1  0.6103560000000  0.4545690000000  0.4769490000000 1.0
C      1  0.5243200000000  0.5502680000000  0.5375590000000 1.0
C      1  0.4717570000000  0.4441650000000  0.4788080000000 1.0
C      1  0.5857640000000  0.5446700000000  0.4648780000000 1.0
C      1  0.5600360000000  0.4367590000000  0.5109060000000 1.0
C      1  0.4703910000000  0.3676710000000  0.4916720000000 1.0
C      1  0.4210250000000  0.4721700000000  0.5732010000000 1.0
C      1  0.4715650000000  0.5119180000000  0.5206920000000 1.0
C      1  0.3753390000000  0.5502860000000  0.3507140000000 1.0
C      1  0.4243870000000  0.4947330000000  0.4681440000000 1.0
C      1  0.5689840000000  0.6199470000000  0.4820080000000 1.0
C      1  0.5228590000000  0.5009730000000  0.3815800000000 1.0
C      1  0.4501280000000  0.5052460000000  0.5932700000000 1.0
C      1  0.5060180000000  0.6668490000000  0.5167920000000 1.0
C      1  0.3550270000000  0.5633300000000  0.3408710000000 1.0
C      1  0.5695270000000  0.4297220000000  0.4587130000000 1.0
C      1  0.5612530000000  0.5094280000000  0.4909880000000 1.0
C      1  0.4609890000000  0.5131810000000  0.6179370000000 1.0
C      1  0.4840170000000  0.5125330000000  0.6339030000000 1.0
C      1  0.5757750000000  0.5956240000000  0.4692350000000 1.0
C      1  0.4165980000000  0.5237560000000  0.3708010000000 1.0
C      1  0.5250750000000  0.4222570000000  0.5798150000000 1.0
C      1  0.4466950000000  0.4301680000000  0.4278200000000 1.0
C      1  0.4720020000000  0.5255080000000  0.4476500000000 1.0
C      1  0.4790080000000  0.4777810000000  0.4326060000000 1.0
C      1  0.4101980000000  0.5867010000000  0.5081110000000 1.0
C      1  0.4553230000000  0.6195970000000  0.5572130000000 1.0
C      1  0.5762950000000  0.4518700000000  0.5302780000000 1.0
C      1  0.5513980000000  0.4268480000000  0.4354890000000 1.0
C      1  0.5165020000000  0.4500050000000  0.4533290000000 1.0
C      1  0.4234910000000  0.4320400000000  0.4824160000000 1.0
C      1  0.5133740000000  0.4754420000000  0.3737760000000 1.0
C      1  0.4920250000000  0.4642590000000  0.3887680000000 1.0
C      1  0.4677980000000  0.5397790000000  0.5317390000000 1.0
C      1  0.4970380000000  0.4190530000000  0.5720070000000 1.0
C      1  0.5588000000000  0.5044190000000  0.5204350000000 1.0
C      1  0.5494730000000  0.5634420000000  0.5419540000000 1.0
C      1  0.4937740000000  0.4857280000000  0.4873170000000 1.0
C      1  0.4158660000000  0.6042800000000  0.5272100000000 1.0
C      1  0.5216220000000  0.4848530000000  0.4896900000000 1.0
C      1  0.5112840000000  0.5459460000000  0.4687570000000 1.0
C      1  0.4714500000000  0.3870140000000  0.5108870000000 1.0
C      1  0.3959830000000  0.5370220000000  0.3607380000000 1.0
C      1  0.5356870000000  0.6552660000000  0.4798210000000 1.0
C      1  0.5192360000000  0.5235800000000  0.5458180000000 1.0
C      1  0.4767420000000  0.4819440000000  0.4045140000000 1.0
C      1  0.5689300000000  0.4934620000000  0.4181020000000 1.0
C      1  0.5350610000000  0.4979900000000  0.5363970000000 1.0
C      1  0.4939150000000  0.4868800000000  0.6402100000000 1.0
C      1  0.4923140000000  0.4703560000000  0.5493500000000 1.0
C      1  0.5960740000000  0.4388780000000  0.4603450000000 1.0
C      1  0.5375220000000  0.4531410000000  0.4336710000000 1.0
C      1  0.5708010000000  0.4459280000000  0.5589390000000 1.0
C      1  0.6104730000000  0.4685960000000  0.4999090000000 1.0
C      1  0.5074190000000  0.6156550000000  0.5562510000000 1.0
C      1  0.4575380000000  0.4983120000000  0.3927390000000 1.0
C      1  0.5491890000000  0.5279720000000  0.6128710000000 1.0
C      1  0.5533330000000  0.5612430000000  0.4932250000000 1.0
END
