TITL C-612603-7354-1324 672.026811808101 125000 -946.838891001075 0 0 156 (C1) n - 1
REM
REM in /home/nfs/bkarasulu/CARBON/AIRSS/Generating-Clusters/TERSOFF/Only-C1/FIRE-HFTN
REM
REM
REM
REM
REM
REM ./C.cell (11c1c37f851c82e70ff6c80c92926a4b)
REM AIRSS Version 0.9.1 bugfix July 2018 build 013d7b7c2542+ Fri, 06 Jul 2018 19:26:36 +0100
REM compiler GCC version 9.2.1 20190827 (Red Hat 9.2.1-1)
REM options -cpp -mtune=generic -march=x86-64 -g -O0 -fpre-include=/usr/include/finclude/math-vector-fortran.h
REM seed -379423480 1077028178 -686546244 621700916 712374899 1947457231 -820749413 -630097677 -539868710 508488830 2002997747 -743334424 -265080819 -968187359 -1241042160 1787998099 -481904504 -1710150089 1689148019 1247580056 2092644623 -1807073387 813473881 -1027445794 -981903462 -179054466 1478005663 258172943 2032078150 1028431741 2118663682 1382282337 1617451112
REM
CELL 1.54180   50.00000   50.00000   50.00000   90.00000   90.00000   90.00000
LATT -1
SFAC C  
C      1  0.4431750000000  0.5103570000000  0.5994150000000 1.0
C      1  0.4211520000000  0.4341520000000  0.3678000000000 1.0
C      1  0.5535510000000  0.4337030000000  0.4068000000000 1.0
C      1  0.5099920000000  0.4126670000000  0.5685440000000 1.0
C      1  0.5070830000000  0.5001240000000  0.4154920000000 1.0
C      1  0.5275770000000  0.5274000000000  0.3815580000000 1.0
C      1  0.5323960000000  0.5589500000000  0.4739890000000 1.0
C      1  0.5104170000000  0.4841120000000  0.5881210000000 1.0
C      1  0.3896110000000  0.5575960000000  0.4711070000000 1.0
C      1  0.5440830000000  0.4784880000000  0.5512320000000 1.0
C      1  0.5008000000000  0.5034440000000  0.4916180000000 1.0
C      1  0.5067120000000  0.6097470000000  0.5252300000000 1.0
C      1  0.4284900000000  0.4585890000000  0.4894630000000 1.0
C      1  0.5486440000000  0.5003330000000  0.4378590000000 1.0
C      1  0.5158400000000  0.4407530000000  0.5673990000000 1.0
C      1  0.5410120000000  0.5455020000000  0.5210550000000 1.0
C      1  0.5722710000000  0.5863860000000  0.5032030000000 1.0
C      1  0.4971280000000  0.5124470000000  0.4623840000000 1.0
C      1  0.4606630000000  0.5981620000000  0.5408450000000 1.0
C      1  0.4821580000000  0.4480810000000  0.4673130000000 1.0
C      1  0.4847030000000  0.4845330000000  0.4238110000000 1.0
C      1  0.5538210000000  0.5413410000000  0.4691100000000 1.0
C      1  0.5352530000000  0.4902040000000  0.5749410000000 1.0
C      1  0.3724130000000  0.4968120000000  0.5105280000000 1.0
C      1  0.6252920000000  0.5342220000000  0.5004630000000 1.0
C      1  0.6056140000000  0.5517080000000  0.4892750000000 1.0
C      1  0.4441480000000  0.5485430000000  0.5115220000000 1.0
C      1  0.5514770000000  0.6106620000000  0.5393070000000 1.0
C      1  0.4362710000000  0.5264830000000  0.4954700000000 1.0
C      1  0.5388360000000  0.4217220000000  0.4289110000000 1.0
C      1  0.4536170000000  0.5997600000000  0.4762790000000 1.0
C      1  0.5508130000000  0.5630030000000  0.4057260000000 1.0
C      1  0.5051980000000  0.5330200000000  0.6000540000000 1.0
C      1  0.4389650000000  0.4330070000000  0.4846590000000 1.0
C      1  0.4703730000000  0.4111400000000  0.4280410000000 1.0
C      1  0.4732470000000  0.4942620000000  0.4503180000000 1.0
C      1  0.6122070000000  0.4944070000000  0.5536950000000 1.0
C      1  0.5759430000000  0.5085610000000  0.4372860000000 1.0
C      1  0.5094780000000  0.4617090000000  0.5128760000000 1.0
C      1  0.4335520000000  0.4659590000000  0.5381580000000 1.0
C      1  0.4909510000000  0.4741200000000  0.5341690000000 1.0
C      1  0.5666200000000  0.4585410000000  0.5149670000000 1.0
C      1  0.6193730000000  0.4442420000000  0.4444960000000 1.0
C      1  0.4292750000000  0.5916960000000  0.4691340000000 1.0
C      1  0.5683270000000  0.5105700000000  0.5193420000000 1.0
C      1  0.4313030000000  0.4998080000000  0.5761170000000 1.0
C      1  0.4315410000000  0.5038930000000  0.5118290000000 1.0
C      1  0.5254930000000  0.5757210000000  0.5591910000000 1.0
C      1  0.5052430000000  0.5990730000000  0.4791000000000 1.0
C      1  0.5856150000000  0.5615670000000  0.5075730000000 1.0
C      1  0.5387130000000  0.4056920000000  0.4759070000000 1.0
C      1  0.5240170000000  0.6077740000000  0.5002790000000 1.0
C      1  0.5733350000000  0.5537020000000  0.4524480000000 1.0
C      1  0.4716140000000  0.4929400000000  0.5481140000000 1.0
C      1  0.4883170000000  0.4236470000000  0.4750240000000 1.0
C      1  0.3997480000000  0.5083820000000  0.4724180000000 1.0
C      1  0.5663480000000  0.5453460000000  0.5603800000000 1.0
C      1  0.4114720000000  0.4131550000000  0.5147520000000 1.0
C      1  0.4462070000000  0.4821020000000  0.5582960000000 1.0
C      1  0.4347050000000  0.4519910000000  0.3819400000000 1.0
C      1  0.5518380000000  0.6050580000000  0.5103190000000 1.0
C      1  0.4609040000000  0.5509170000000  0.5367710000000 1.0
C      1  0.4851530000000  0.4347000000000  0.4203940000000 1.0
C      1  0.5335310000000  0.3765910000000  0.5938420000000 1.0
C      1  0.3761300000000  0.4922270000000  0.5388560000000 1.0
C      1  0.4993190000000  0.5049860000000  0.6021150000000 1.0
C      1  0.4423660000000  0.4762520000000  0.5098770000000 1.0
C      1  0.5201870000000  0.4820540000000  0.4945680000000 1.0
C      1  0.5465140000000  0.4241800000000  0.6011310000000 1.0
C      1  0.5646210000000  0.5105530000000  0.4881110000000 1.0
C      1  0.5233050000000  0.6028830000000  0.5474190000000 1.0
C      1  0.6146630000000  0.5075090000000  0.5019000000000 1.0
C      1  0.4737520000000  0.3993260000000  0.4768390000000 1.0
C      1  0.4375580000000  0.4107200000000  0.5032140000000 1.0
C      1  0.5242000000000  0.4100610000000  0.4994880000000 1.0
C      1  0.5747550000000  0.5035250000000  0.5909460000000 1.0
C      1  0.6167530000000  0.4947930000000  0.5271240000000 1.0
C      1  0.5142630000000  0.4561980000000  0.5922920000000 1.0
C      1  0.5547420000000  0.5716130000000  0.5643010000000 1.0
C      1  0.5633790000000  0.4844250000000  0.5306020000000 1.0
C      1  0.5957340000000  0.4417410000000  0.4551700000000 1.0
C      1  0.5558510000000  0.4814690000000  0.5952500000000 1.0
C      1  0.5206400000000  0.5101230000000  0.4404960000000 1.0
C      1  0.5026510000000  0.5223910000000  0.5132960000000 1.0
C      1  0.5301700000000  0.4031500000000  0.5881510000000 1.0
C      1  0.4924960000000  0.5626430000000  0.4463730000000 1.0
C      1  0.5989670000000  0.5451940000000  0.4613060000000 1.0
C      1  0.3884080000000  0.4847170000000  0.4889710000000 1.0
C      1  0.4471420000000  0.5105710000000  0.4472110000000 1.0
C      1  0.5603140000000  0.5289860000000  0.5841870000000 1.0
C      1  0.5128700000000  0.5770580000000  0.4610640000000 1.0
C      1  0.4776330000000  0.6023400000000  0.4902830000000 1.0
C      1  0.5094810000000  0.3906480000000  0.5132760000000 1.0
C      1  0.4689710000000  0.5685060000000  0.5820090000000 1.0
C      1  0.5445800000000  0.4729630000000  0.4309000000000 1.0
C      1  0.4558870000000  0.5736760000000  0.5567250000000 1.0
C      1  0.4603830000000  0.5437860000000  0.4138920000000 1.0
C      1  0.4068440000000  0.4541370000000  0.5399040000000 1.0
C      1  0.4706830000000  0.4727860000000  0.4703020000000 1.0
C      1  0.5242480000000  0.4358770000000  0.5112460000000 1.0
C      1  0.5277990000000  0.5533870000000  0.3926800000000 1.0
C      1  0.5208070000000  0.5303000000000  0.5366830000000 1.0
C      1  0.3785830000000  0.5383420000000  0.5323000000000 1.0
C      1  0.5632920000000  0.4606770000000  0.4861630000000 1.0
C      1  0.3853280000000  0.4686200000000  0.5506670000000 1.0
C      1  0.3987870000000  0.4390370000000  0.5165140000000 1.0
C      1  0.5393530000000  0.4790020000000  0.3849640000000 1.0
C      1  0.4408370000000  0.3961250000000  0.5829120000000 1.0
C      1  0.4580450000000  0.5307820000000  0.6084800000000 1.0
C      1  0.4793010000000  0.5474530000000  0.5986500000000 1.0
C      1  0.5664230000000  0.5640340000000  0.4274080000000 1.0
C      1  0.4833400000000  0.5606410000000  0.4191100000000 1.0
C      1  0.3858870000000  0.5170260000000  0.5505340000000 1.0
C      1  0.4000570000000  0.4587910000000  0.4937690000000 1.0
C      1  0.4283650000000  0.5163980000000  0.4685120000000 1.0
C      1  0.3838770000000  0.5321160000000  0.4810180000000 1.0
C      1  0.4851550000000  0.5397450000000  0.4609760000000 1.0
C      1  0.5341210000000  0.5366700000000  0.5968440000000 1.0
C      1  0.5470520000000  0.4851520000000  0.4842260000000 1.0
C      1  0.5944920000000  0.5038300000000  0.4810370000000 1.0
C      1  0.3723030000000  0.5264340000000  0.5065800000000 1.0
C      1  0.4839860000000  0.3947440000000  0.5255110000000 1.0
C      1  0.4425950000000  0.4972430000000  0.4011440000000 1.0
C      1  0.5372940000000  0.4502980000000  0.5511110000000 1.0
C      1  0.4977070000000  0.5502030000000  0.5048320000000 1.0
C      1  0.5027500000000  0.5646920000000  0.3991420000000 1.0
C      1  0.4679350000000  0.5219070000000  0.5467010000000 1.0
C      1  0.5697490000000  0.4413790000000  0.4657130000000 1.0
C      1  0.5682370000000  0.5957350000000  0.5570470000000 1.0
C      1  0.5684840000000  0.5390310000000  0.5294980000000 1.0
C      1  0.5215060000000  0.4603620000000  0.4418390000000 1.0
C      1  0.4080740000000  0.5136400000000  0.5672800000000 1.0
C      1  0.4627010000000  0.3966160000000  0.5044870000000 1.0
C      1  0.4633440000000  0.3975620000000  0.5698550000000 1.0
C      1  0.3777860000000  0.5648220000000  0.5382710000000 1.0
C      1  0.6502830000000  0.5416880000000  0.5080700000000 1.0
C      1  0.4881940000000  0.5601750000000  0.5293690000000 1.0
C      1  0.4660030000000  0.3943480000000  0.4494440000000 1.0
C      1  0.4079260000000  0.4163760000000  0.3540640000000 1.0
C      1  0.4066040000000  0.5778120000000  0.4674260000000 1.0
C      1  0.5431920000000  0.4533800000000  0.6031090000000 1.0
C      1  0.4689780000000  0.4823140000000  0.4950540000000 1.0
C      1  0.4864530000000  0.4015120000000  0.5542400000000 1.0
C      1  0.5223620000000  0.5013890000000  0.3910640000000 1.0
C      1  0.5513570000000  0.4208330000000  0.4556900000000 1.0
C      1  0.5989040000000  0.4983150000000  0.5767920000000 1.0
C      1  0.4496040000000  0.4692750000000  0.3977860000000 1.0
C      1  0.4463170000000  0.5192990000000  0.4193150000000 1.0
C      1  0.4731990000000  0.4607960000000  0.4122950000000 1.0
C      1  0.5479410000000  0.4399460000000  0.5271390000000 1.0
C      1  0.5083170000000  0.5544500000000  0.5499560000000 1.0
C      1  0.4786020000000  0.6063320000000  0.5196820000000 1.0
C      1  0.5510640000000  0.4622840000000  0.4048070000000 1.0
C      1  0.5252120000000  0.5576660000000  0.5006860000000 1.0
C      1  0.5973940000000  0.5161020000000  0.4548910000000 1.0
C      1  0.5126630000000  0.4355670000000  0.4302110000000 1.0
END
