TITL C-612604-1799-1037 0.519350898366397 125000 -403.925306305869 0 0 67 (C1) n - 1
REM
REM in /home/nfs/bkarasulu/CARBON/AIRSS/Generating-Clusters/TERSOFF/Only-C1/FIRE-HFTN
REM
REM
REM
REM
REM
REM ./C.cell (11c1c37f851c82e70ff6c80c92926a4b)
REM AIRSS Version 0.9.1 bugfix July 2018 build 013d7b7c2542+ Fri, 06 Jul 2018 19:26:36 +0100
REM compiler GCC version 9.2.1 20190827 (Red Hat 9.2.1-1)
REM options -cpp -mtune=generic -march=x86-64 -g -O0 -fpre-include=/usr/include/finclude/math-vector-fortran.h
REM seed -1134506472 -647828166 1390654552 483587272 1342948876 -1600697423 -1954354904 1152243947 1059004342 858156168 -1580836749 460041400 697622114 1343761836 1532679441 1919504566 511895912 -1946706776 1694869705 -2138186390 -878477765 -1890696528 -1766292939 -1129328835 497068277 -380879278 289943078 -1468873223 -308001764 766766291 210039932 1731123504 1554241030
REM
CELL 1.54180   50.00000   50.00000   50.00000   90.00000   90.00000   90.00000
LATT -1
SFAC C  
C      1  0.4356610000000  0.5243780000000  0.5501450000000 1.0
C      1  0.4312630000000  0.4988470000000  0.5395320000000 1.0
C      1  0.4988530000000  0.4942920000000  0.4262830000000 1.0
C      1  0.5729160000000  0.4877590000000  0.5101430000000 1.0
C      1  0.5000710000000  0.4981520000000  0.5845620000000 1.0
C      1  0.4603220000000  0.5844870000000  0.4561680000000 1.0
C      1  0.5265130000000  0.5026950000000  0.4250240000000 1.0
C      1  0.5641160000000  0.5100090000000  0.5258660000000 1.0
C      1  0.5360100000000  0.4629500000000  0.5558110000000 1.0
C      1  0.5011950000000  0.5123790000000  0.5616790000000 1.0
C      1  0.4513530000000  0.4873030000000  0.5230110000000 1.0
C      1  0.4668810000000  0.5153410000000  0.4595380000000 1.0
C      1  0.5049660000000  0.5053310000000  0.5360490000000 1.0
C      1  0.4400810000000  0.5228030000000  0.4556950000000 1.0
C      1  0.5113080000000  0.4541190000000  0.5672880000000 1.0
C      1  0.5345910000000  0.4662910000000  0.5270880000000 1.0
C      1  0.4986010000000  0.5558990000000  0.4640110000000 1.0
C      1  0.4073330000000  0.4853750000000  0.5444170000000 1.0
C      1  0.5737640000000  0.4701840000000  0.6178930000000 1.0
C      1  0.5146550000000  0.4854020000000  0.5204900000000 1.0
C      1  0.4896650000000  0.4681680000000  0.4260440000000 1.0
C      1  0.5309650000000  0.4112050000000  0.4786600000000 1.0
C      1  0.5440510000000  0.5286080000000  0.4640720000000 1.0
C      1  0.4541890000000  0.4511970000000  0.5725330000000 1.0
C      1  0.4860090000000  0.5808840000000  0.4670230000000 1.0
C      1  0.3649700000000  0.4558230000000  0.5541410000000 1.0
C      1  0.4559130000000  0.4457520000000  0.4985120000000 1.0
C      1  0.5061780000000  0.4147230000000  0.4698410000000 1.0
C      1  0.5733850000000  0.4129620000000  0.4567040000000 1.0
C      1  0.4599560000000  0.5704880000000  0.5463790000000 1.0
C      1  0.5314820000000  0.6378420000000  0.4686430000000 1.0
C      1  0.5578230000000  0.4637530000000  0.5107020000000 1.0
C      1  0.5523790000000  0.4069100000000  0.4112010000000 1.0
C      1  0.4913370000000  0.4407970000000  0.4317740000000 1.0
C      1  0.5652340000000  0.4753280000000  0.5938130000000 1.0
C      1  0.5142730000000  0.6195680000000  0.4770940000000 1.0
C      1  0.4864260000000  0.4308440000000  0.4580760000000 1.0
C      1  0.5270350000000  0.4127320000000  0.4052290000000 1.0
C      1  0.5469000000000  0.5281430000000  0.5125240000000 1.0
C      1  0.5042970000000  0.4241660000000  0.4131650000000 1.0
C      1  0.4966990000000  0.4701590000000  0.5869340000000 1.0
C      1  0.4749610000000  0.5875480000000  0.5326530000000 1.0
C      1  0.5021780000000  0.5364680000000  0.4861330000000 1.0
C      1  0.4372860000000  0.5718220000000  0.4512040000000 1.0
C      1  0.4666750000000  0.5042900000000  0.5066190000000 1.0
C      1  0.5574690000000  0.4204280000000  0.4785610000000 1.0
C      1  0.4653130000000  0.4389390000000  0.4745560000000 1.0
C      1  0.5548480000000  0.4806140000000  0.5685610000000 1.0
C      1  0.4935200000000  0.4395630000000  0.5498480000000 1.0
C      1  0.3858260000000  0.4706870000000  0.5492710000000 1.0
C      1  0.4458500000000  0.5487910000000  0.5522800000000 1.0
C      1  0.4282560000000  0.5465700000000  0.4516090000000 1.0
C      1  0.5641720000000  0.4408940000000  0.4962930000000 1.0
C      1  0.4850570000000  0.5170980000000  0.4376550000000 1.0
C      1  0.4658540000000  0.4464790000000  0.5468970000000 1.0
C      1  0.5037390000000  0.5401110000000  0.4404290000000 1.0
C      1  0.4793910000000  0.5178930000000  0.4857910000000 1.0
C      1  0.5487060000000  0.6560980000000  0.4601200000000 1.0
C      1  0.5706440000000  0.4074320000000  0.4306830000000 1.0
C      1  0.4564480000000  0.4590980000000  0.5231610000000 1.0
C      1  0.4702500000000  0.4607640000000  0.5924930000000 1.0
C      1  0.5656460000000  0.6740530000000  0.4517350000000 1.0
C      1  0.4963470000000  0.5999330000000  0.4853930000000 1.0
C      1  0.5307240000000  0.5275550000000  0.4390800000000 1.0
C      1  0.5625800000000  0.5037620000000  0.5536000000000 1.0
C      1  0.5307140000000  0.5309650000000  0.4895860000000 1.0
C      1  0.4879260000000  0.5980990000000  0.5120320000000 1.0
END
