TITL C-612603-7354-349 1145085.08295644 125000 -645.406335908543 0 0 106 (C1) n - 1
REM
REM in /home/nfs/bkarasulu/CARBON/AIRSS/Generating-Clusters/TERSOFF/Only-C1/FIRE-HFTN
REM
REM
REM
REM
REM
REM ./C.cell (11c1c37f851c82e70ff6c80c92926a4b)
REM AIRSS Version 0.9.1 bugfix July 2018 build 013d7b7c2542+ Fri, 06 Jul 2018 19:26:36 +0100
REM compiler GCC version 9.2.1 20190827 (Red Hat 9.2.1-1)
REM options -cpp -mtune=generic -march=x86-64 -g -O0 -fpre-include=/usr/include/finclude/math-vector-fortran.h
REM seed -681144267 873269926 -565596393 -1393395611 -49628066 -944613333 -1728889512 161739690 433150477 -34351685 731446864 -1456888990 767529972 1260756377 -216478672 597525069 -1585081590 1692068652 -719369054 -578187601 1095193331 -1027179423 173171096 -1495038471 1163169778 230025363 -1141999966 327777671 794265863 -733025422 -183409876 -1141488077 1392854069
REM
CELL 1.54180   50.00000   50.00000   50.00000   90.00000   90.00000   90.00000
LATT -1
SFAC C  
C      1  0.4199510000000  0.5055520000000  0.5424660000000 1.0
C      1  0.4399980000000  0.4514160000000  0.4921940000000 1.0
C      1  0.4484060000000  0.4983070000000  0.5792400000000 1.0
C      1  0.4845140000000  0.4984250000000  0.4534850000000 1.0
C      1  0.5843100000000  0.5389730000000  0.5628850000000 1.0
C      1  0.5260810000000  0.5116960000000  0.5096070000000 1.0
C      1  0.5063830000000  0.5070620000000  0.5764100000000 1.0
C      1  0.4464390000000  0.5067650000000  0.4152380000000 1.0
C      1  0.5083560000000  0.5181790000000  0.5507920000000 1.0
C      1  0.4533350000000  0.4797650000000  0.4165030000000 1.0
C      1  0.5059500000000  0.5822090000000  0.4928320000000 1.0
C      1  0.5303790000000  0.4499990000000  0.4246160000000 1.0
C      1  0.4821240000000  0.4386980000000  0.4427410000000 1.0
C      1  0.4526720000000  0.5676420000000  0.5449750000000 1.0
C      1  0.4505470000000  0.5559190000000  0.5185190000000 1.0
C      1  0.5611120000000  0.5128780000000  0.4218070000000 1.0
C      1  0.4588910000000  0.5732000000000  0.4968540000000 1.0
C      1  0.5459540000000  0.4790820000000  0.5792350000000 1.0
C      1  0.5877280000000  0.5178200000000  0.4655470000000 1.0
C      1  0.5329770000000  0.5309890000000  0.4148540000000 1.0
C      1  0.5698080000000  0.4830100000000  0.4319900000000 1.0
C      1  0.5076410000000  0.5529130000000  0.4893820000000 1.0
C      1  0.5343170000000  0.5076890000000  0.4657310000000 1.0
C      1  0.4318090000000  0.5108080000000  0.4715550000000 1.0
C      1  0.4563900000000  0.4285610000000  0.4876600000000 1.0
C      1  0.5244900000000  0.5773220000000  0.4457370000000 1.0
C      1  0.4473240000000  0.5529150000000  0.4452470000000 1.0
C      1  0.4619150000000  0.5600660000000  0.4707290000000 1.0
C      1  0.5166340000000  0.5918330000000  0.4677830000000 1.0
C      1  0.5578360000000  0.4537790000000  0.4352260000000 1.0
C      1  0.5196890000000  0.4724760000000  0.4114620000000 1.0
C      1  0.3500120000000  0.4700420000000  0.4975630000000 1.0
C      1  0.5281730000000  0.4669520000000  0.5214740000000 1.0
C      1  0.5036920000000  0.4932500000000  0.4175500000000 1.0
C      1  0.5623040000000  0.5311700000000  0.5789910000000 1.0
C      1  0.5799660000000  0.4899850000000  0.4599410000000 1.0
C      1  0.3851220000000  0.4610530000000  0.4602400000000 1.0
C      1  0.5434170000000  0.4916190000000  0.5203930000000 1.0
C      1  0.4967090000000  0.5682410000000  0.5635240000000 1.0
C      1  0.5440530000000  0.5345460000000  0.4582030000000 1.0
C      1  0.5458060000000  0.4381200000000  0.5482570000000 1.0
C      1  0.5793390000000  0.4724430000000  0.5459350000000 1.0
C      1  0.5932620000000  0.5010900000000  0.5100390000000 1.0
C      1  0.4801860000000  0.5815370000000  0.5418230000000 1.0
C      1  0.5560090000000  0.4313550000000  0.5153140000000 1.0
C      1  0.5088970000000  0.4328350000000  0.4327710000000 1.0
C      1  0.4550390000000  0.5341100000000  0.4221480000000 1.0
C      1  0.4774940000000  0.4639160000000  0.5540470000000 1.0
C      1  0.4594630000000  0.5088830000000  0.5117120000000 1.0
C      1  0.4843910000000  0.5344850000000  0.4228780000000 1.0
C      1  0.4791900000000  0.4900560000000  0.5114160000000 1.0
C      1  0.5676960000000  0.4335750000000  0.4576290000000 1.0
C      1  0.4830060000000  0.5867960000000  0.5104690000000 1.0
C      1  0.5873470000000  0.5245230000000  0.4942530000000 1.0
C      1  0.5709820000000  0.5304800000000  0.4464740000000 1.0
C      1  0.4519640000000  0.4749130000000  0.5622160000000 1.0
C      1  0.4793660000000  0.4341740000000  0.4717550000000 1.0
C      1  0.5026860000000  0.4577150000000  0.5678790000000 1.0
C      1  0.4307670000000  0.4770560000000  0.5414650000000 1.0
C      1  0.4534290000000  0.3867560000000  0.5205460000000 1.0
C      1  0.5905600000000  0.5465110000000  0.5377530000000 1.0
C      1  0.5409800000000  0.5501490000000  0.5805370000000 1.0
C      1  0.4820450000000  0.4660130000000  0.5259270000000 1.0
C      1  0.5167800000000  0.4632120000000  0.4729390000000 1.0
C      1  0.5024950000000  0.4994200000000  0.4984800000000 1.0
C      1  0.5550370000000  0.4879550000000  0.4741340000000 1.0
C      1  0.4650510000000  0.4566590000000  0.4266440000000 1.0
C      1  0.5582430000000  0.4393720000000  0.4856160000000 1.0
C      1  0.4869120000000  0.5448940000000  0.4712890000000 1.0
C      1  0.5769170000000  0.5454170000000  0.5125130000000 1.0
C      1  0.4654900000000  0.5065190000000  0.6000570000000 1.0
C      1  0.5257600000000  0.5655830000000  0.5618760000000 1.0
C      1  0.3643970000000  0.4644610000000  0.4765230000000 1.0
C      1  0.4360480000000  0.4662230000000  0.4679120000000 1.0
C      1  0.4677890000000  0.5331120000000  0.5213740000000 1.0
C      1  0.4532320000000  0.4048220000000  0.5017460000000 1.0
C      1  0.4113880000000  0.5146490000000  0.5164470000000 1.0
C      1  0.5719340000000  0.4899670000000  0.5250350000000 1.0
C      1  0.5171560000000  0.4803970000000  0.5788090000000 1.0
C      1  0.4878950000000  0.5266340000000  0.4506110000000 1.0
C      1  0.4040930000000  0.5199660000000  0.4700300000000 1.0
C      1  0.3924630000000  0.5218010000000  0.4956440000000 1.0
C      1  0.5587610000000  0.5038270000000  0.5858180000000 1.0
C      1  0.5438750000000  0.4633300000000  0.4801310000000 1.0
C      1  0.5399990000000  0.5700370000000  0.5373270000000 1.0
C      1  0.5040480000000  0.4520600000000  0.5147260000000 1.0
C      1  0.5189300000000  0.4340770000000  0.5596100000000 1.0
C      1  0.4350660000000  0.5100220000000  0.5000090000000 1.0
C      1  0.4507150000000  0.4907150000000  0.4617450000000 1.0
C      1  0.4873870000000  0.5224520000000  0.5916010000000 1.0
C      1  0.5285170000000  0.5392240000000  0.5033680000000 1.0
C      1  0.6185280000000  0.4906030000000  0.5104600000000 1.0
C      1  0.5595730000000  0.4600980000000  0.5616720000000 1.0
C      1  0.5826400000000  0.4117370000000  0.4511850000000 1.0
C      1  0.5007820000000  0.4449870000000  0.4870300000000 1.0
C      1  0.5064780000000  0.5203630000000  0.4104730000000 1.0
C      1  0.4513390000000  0.5469930000000  0.5661020000000 1.0
C      1  0.4307010000000  0.4605050000000  0.5178690000000 1.0
C      1  0.5493670000000  0.5541320000000  0.5153400000000 1.0
C      1  0.5089870000000  0.4086840000000  0.5629290000000 1.0
C      1  0.5073310000000  0.4914450000000  0.4699930000000 1.0
C      1  0.4919830000000  0.5319850000000  0.5349750000000 1.0
C      1  0.5320490000000  0.5511140000000  0.4376330000000 1.0
C      1  0.4112930000000  0.4615140000000  0.4552980000000 1.0
C      1  0.4792350000000  0.5479550000000  0.5788220000000 1.0
C      1  0.4360240000000  0.5207760000000  0.5637820000000 1.0
END
