TITL C-612603-7354-1353 0.711992304479978 125000 -127.836072743651 0 0 23 (C1) n - 1
REM
REM in /home/nfs/bkarasulu/CARBON/AIRSS/Generating-Clusters/TERSOFF/Only-C1/FIRE-HFTN
REM
REM
REM
REM
REM
REM ./C.cell (11c1c37f851c82e70ff6c80c92926a4b)
REM AIRSS Version 0.9.1 bugfix July 2018 build 013d7b7c2542+ Fri, 06 Jul 2018 19:26:36 +0100
REM compiler GCC version 9.2.1 20190827 (Red Hat 9.2.1-1)
REM options -cpp -mtune=generic -march=x86-64 -g -O0 -fpre-include=/usr/include/finclude/math-vector-fortran.h
REM seed -266526579 182412037 -956736203 1235178645 -1094824303 -1162424363 369654480 -1284989526 574006561 977649548 470238849 960126748 -249360873 1203788288 1607866450 1910609384 323981433 1379699178 1961874585 -247313740 -119588985 845229591 1025050738 -1151163383 1423280921 397376975 381177308 -2103817032 -8521299 -1535139800 1126924493 -1181782318 725279377
REM
CELL 1.54180   50.00000   50.00000   50.00000   90.00000   90.00000   90.00000
LATT -1
SFAC C  
C      1  0.5561760000000  0.4642690000000  0.5761380000000 1.0
C      1  0.5339120000000  0.4968950000000  0.5483810000000 1.0
C      1  0.3832480000000  0.4499510000000  0.4978360000000 1.0
C      1  0.4586630000000  0.4877530000000  0.5015010000000 1.0
C      1  0.5871100000000  0.4901850000000  0.5131310000000 1.0
C      1  0.5689870000000  0.5215680000000  0.4746370000000 1.0
C      1  0.4712670000000  0.5252330000000  0.4569670000000 1.0
C      1  0.5557350000000  0.4802550000000  0.5540290000000 1.0
C      1  0.3736380000000  0.4731860000000  0.4574160000000 1.0
C      1  0.4490160000000  0.5110040000000  0.4613070000000 1.0
C      1  0.4155170000000  0.4801530000000  0.4794940000000 1.0
C      1  0.5056160000000  0.5106650000000  0.5111750000000 1.0
C      1  0.4955860000000  0.5292300000000  0.4671990000000 1.0
C      1  0.5418680000000  0.5248840000000  0.4808160000000 1.0
C      1  0.5842290000000  0.5050040000000  0.4912820000000 1.0
C      1  0.5146910000000  0.5221120000000  0.4865380000000 1.0
C      1  0.3905300000000  0.4676280000000  0.4782350000000 1.0
C      1  0.4403130000000  0.4925860000000  0.4807390000000 1.0
C      1  0.4825200000000  0.4946580000000  0.5112030000000 1.0
C      1  0.5184820000000  0.5165710000000  0.5358220000000 1.0
C      1  0.5801700000000  0.5340800000000  0.4530900000000 1.0
C      1  0.5770680000000  0.4808220000000  0.5358810000000 1.0
C      1  0.5156570000000  0.5413090000000  0.5471820000000 1.0
END
