TITL C-612603-7354-252 0.0107700004516274 125000 -188.100807359263 0 0 33 (C1) n - 1
REM
REM in /home/nfs/bkarasulu/CARBON/AIRSS/Generating-Clusters/TERSOFF/Only-C1/FIRE-HFTN
REM
REM
REM
REM
REM
REM ./C.cell (11c1c37f851c82e70ff6c80c92926a4b)
REM AIRSS Version 0.9.1 bugfix July 2018 build 013d7b7c2542+ Fri, 06 Jul 2018 19:26:36 +0100
REM compiler GCC version 9.2.1 20190827 (Red Hat 9.2.1-1)
REM options -cpp -mtune=generic -march=x86-64 -g -O0 -fpre-include=/usr/include/finclude/math-vector-fortran.h
REM seed -1371537320 -1657141941 1059665745 947473222 -430707382 -787873862 -656349973 21631902 -699004089 818825786 -443732690 1611219434 1195456281 -252991450 -67120089 906125212 -1277012125 1040653744 -944807770 -693868884 1984987979 2112423163 -1739462898 -609813527 -1776937680 609474525 -1030516683 -1559151124 -1154901346 2026294961 -2100277443 538431038 -270167040
REM
CELL 1.54180   50.00000   50.00000   50.00000   90.00000   90.00000   90.00000
LATT -1
SFAC C  
C      1  0.5038190000000  0.5416270000000  0.4434510000000 1.0
C      1  0.4914660000000  0.5240120000000  0.5661020000000 1.0
C      1  0.4999950000000  0.4599600000000  0.4487370000000 1.0
C      1  0.5353220000000  0.5269480000000  0.4755520000000 1.0
C      1  0.4871670000000  0.5233610000000  0.4851080000000 1.0
C      1  0.4728510000000  0.4600880000000  0.4411140000000 1.0
C      1  0.5298640000000  0.4340320000000  0.4764060000000 1.0
C      1  0.5132780000000  0.5255920000000  0.4953510000000 1.0
C      1  0.4905300000000  0.4536200000000  0.4967050000000 1.0
C      1  0.5718700000000  0.5297510000000  0.5401420000000 1.0
C      1  0.5183450000000  0.4768640000000  0.4357290000000 1.0
C      1  0.4972370000000  0.4092080000000  0.5207340000000 1.0
C      1  0.4871910000000  0.4343060000000  0.5187180000000 1.0
C      1  0.4809900000000  0.5375120000000  0.4596370000000 1.0
C      1  0.5886490000000  0.5309550000000  0.5600460000000 1.0
C      1  0.5271380000000  0.5258380000000  0.4485060000000 1.0
C      1  0.5069160000000  0.4488350000000  0.4740930000000 1.0
C      1  0.4746180000000  0.4778310000000  0.5028360000000 1.0
C      1  0.4701900000000  0.4476500000000  0.5378360000000 1.0
C      1  0.4693740000000  0.5419410000000  0.5658020000000 1.0
C      1  0.4629810000000  0.4726750000000  0.5287420000000 1.0
C      1  0.4708000000000  0.5653380000000  0.5799710000000 1.0
C      1  0.5535280000000  0.5284050000000  0.5195450000000 1.0
C      1  0.5245590000000  0.5264110000000  0.5218080000000 1.0
C      1  0.5293970000000  0.5012460000000  0.4350130000000 1.0
C      1  0.4470460000000  0.5355980000000  0.5512600000000 1.0
C      1  0.4941880000000  0.5057670000000  0.5863040000000 1.0
C      1  0.4700450000000  0.5000660000000  0.4867340000000 1.0
C      1  0.4520930000000  0.4758460000000  0.4478880000000 1.0
C      1  0.4526660000000  0.4994750000000  0.4629550000000 1.0
C      1  0.5591660000000  0.5286780000000  0.4912170000000 1.0
C      1  0.4565520000000  0.5252960000000  0.4505740000000 1.0
C      1  0.5101680000000  0.5252690000000  0.5453870000000 1.0
END
