TITL C-612605-9286-183 1.07600026027331 125000 -1049.62384783634 0 0 167 (C1) n - 1
REM
REM in /home/nfs/bkarasulu/CARBON/AIRSS/Generating-Clusters/TERSOFF/Only-C1/FIRE-HFTN
REM
REM
REM
REM
REM
REM ./C.cell (11c1c37f851c82e70ff6c80c92926a4b)
REM AIRSS Version 0.9.1 bugfix July 2018 build 013d7b7c2542+ Fri, 06 Jul 2018 19:26:36 +0100
REM compiler GCC version 9.2.1 20190827 (Red Hat 9.2.1-1)
REM options -cpp -mtune=generic -march=x86-64 -g -O0 -fpre-include=/usr/include/finclude/math-vector-fortran.h
REM seed -600987257 -1043656361 -1513555997 1217017996 -1232118730 -1449538651 -33120584 -1454468258 996513712 -760480705 -960065847 -694692890 -716277070 408557512 770526657 159765491 1879921917 -1629973362 -1348525252 344647279 1944911347 -581768779 -1142114000 -1642571526 936926034 1591237467 1010736551 -593391101 -2561847 763223257 1665061888 1924372994 313609412
REM
CELL 1.54180   50.00000   50.00000   50.00000   90.00000   90.00000   90.00000
LATT -1
SFAC C  
C      1  0.5788610000000  0.4842990000000  0.5993640000000 1.0
C      1  0.3857420000000  0.4914250000000  0.5115560000000 1.0
C      1  0.5873090000000  0.5021720000000  0.5563550000000 1.0
C      1  0.3788280000000  0.4912970000000  0.4839080000000 1.0
C      1  0.4804950000000  0.4410430000000  0.4918860000000 1.0
C      1  0.4907210000000  0.5781820000000  0.5811230000000 1.0
C      1  0.4595190000000  0.4165970000000  0.5573020000000 1.0
C      1  0.5593750000000  0.5638800000000  0.4347950000000 1.0
C      1  0.6274850000000  0.4954200000000  0.4911100000000 1.0
C      1  0.4388750000000  0.4669790000000  0.3754670000000 1.0
C      1  0.5313420000000  0.4032080000000  0.5101080000000 1.0
C      1  0.4704100000000  0.5567120000000  0.4962880000000 1.0
C      1  0.5397250000000  0.5574370000000  0.5280650000000 1.0
C      1  0.5544590000000  0.6019990000000  0.4725620000000 1.0
C      1  0.4344330000000  0.4081370000000  0.5174010000000 1.0
C      1  0.5357830000000  0.6177260000000  0.5161450000000 1.0
C      1  0.4670150000000  0.5365790000000  0.5415850000000 1.0
C      1  0.5593680000000  0.5875670000000  0.4504070000000 1.0
C      1  0.5446600000000  0.4830710000000  0.4735160000000 1.0
C      1  0.5266380000000  0.5460850000000  0.5789900000000 1.0
C      1  0.4325650000000  0.4261670000000  0.5611690000000 1.0
C      1  0.4254410000000  0.4215550000000  0.4663160000000 1.0
C      1  0.4694310000000  0.5305960000000  0.4846840000000 1.0
C      1  0.3350860000000  0.5379610000000  0.4326770000000 1.0
C      1  0.5498930000000  0.5473270000000  0.5960670000000 1.0
C      1  0.3580560000000  0.4752230000000  0.4758130000000 1.0
C      1  0.4401440000000  0.4579510000000  0.4336880000000 1.0
C      1  0.5514830000000  0.4797180000000  0.5324130000000 1.0
C      1  0.5765170000000  0.5549020000000  0.5840760000000 1.0
C      1  0.5635860000000  0.5472050000000  0.5395730000000 1.0
C      1  0.4377640000000  0.5739140000000  0.5274340000000 1.0
C      1  0.4592540000000  0.5101310000000  0.5010340000000 1.0
C      1  0.4379480000000  0.5980640000000  0.5113860000000 1.0
C      1  0.4712750000000  0.5816200000000  0.4828530000000 1.0
C      1  0.4982860000000  0.4682630000000  0.4581010000000 1.0
C      1  0.4788730000000  0.5946840000000  0.4581430000000 1.0
C      1  0.5803580000000  0.5916660000000  0.5118510000000 1.0
C      1  0.6087110000000  0.5208230000000  0.5669090000000 1.0
C      1  0.5425330000000  0.4589700000000  0.5158540000000 1.0
C      1  0.5207850000000  0.3726240000000  0.4395310000000 1.0
C      1  0.4312380000000  0.5158030000000  0.4369160000000 1.0
C      1  0.6026110000000  0.5297460000000  0.4692660000000 1.0
C      1  0.5809480000000  0.5125250000000  0.6066710000000 1.0
C      1  0.5595540000000  0.3995550000000  0.4381280000000 1.0
C      1  0.4176530000000  0.4232520000000  0.5361360000000 1.0
C      1  0.4758970000000  0.4975470000000  0.3824450000000 1.0
C      1  0.4920010000000  0.4154690000000  0.4324910000000 1.0
C      1  0.4778400000000  0.4184290000000  0.4758930000000 1.0
C      1  0.4599500000000  0.4017680000000  0.5305660000000 1.0
C      1  0.6123030000000  0.4826650000000  0.4696170000000 1.0
C      1  0.5629020000000  0.4337940000000  0.5736580000000 1.0
C      1  0.3819970000000  0.5343310000000  0.4601630000000 1.0
C      1  0.4806620000000  0.4725020000000  0.5606140000000 1.0
C      1  0.5143450000000  0.4649120000000  0.5141480000000 1.0
C      1  0.3923960000000  0.4586290000000  0.4253070000000 1.0
C      1  0.5235280000000  0.4565000000000  0.5733790000000 1.0
C      1  0.6458830000000  0.5071040000000  0.5348200000000 1.0
C      1  0.5473610000000  0.3755690000000  0.4359380000000 1.0
C      1  0.5134040000000  0.5499630000000  0.4584490000000 1.0
C      1  0.5060870000000  0.5647510000000  0.4343190000000 1.0
C      1  0.5147730000000  0.5006570000000  0.5856950000000 1.0
C      1  0.5083470000000  0.4932090000000  0.5145580000000 1.0
C      1  0.5293170000000  0.5474930000000  0.4824080000000 1.0
C      1  0.6460770000000  0.4917170000000  0.5120580000000 1.0
C      1  0.4955770000000  0.3958790000000  0.4769210000000 1.0
C      1  0.4851710000000  0.6244790000000  0.4939590000000 1.0
C      1  0.4931760000000  0.4666710000000  0.4270640000000 1.0
C      1  0.5770380000000  0.5654030000000  0.5571950000000 1.0
C      1  0.5567830000000  0.5059180000000  0.4866540000000 1.0
C      1  0.5525710000000  0.5137140000000  0.4343050000000 1.0
C      1  0.5862940000000  0.4783470000000  0.5720400000000 1.0
C      1  0.4214700000000  0.4391760000000  0.5830780000000 1.0
C      1  0.5763070000000  0.5202540000000  0.5321660000000 1.0
C      1  0.4854070000000  0.6217170000000  0.4649740000000 1.0
C      1  0.5525650000000  0.4726150000000  0.6062800000000 1.0
C      1  0.5044190000000  0.4064000000000  0.5483380000000 1.0
C      1  0.5062180000000  0.4386440000000  0.4205300000000 1.0
C      1  0.3977400000000  0.4418080000000  0.5275500000000 1.0
C      1  0.5345810000000  0.4970320000000  0.6073540000000 1.0
C      1  0.5247900000000  0.5155010000000  0.5178620000000 1.0
C      1  0.2894870000000  0.5389080000000  0.4065230000000 1.0
C      1  0.5324150000000  0.4079110000000  0.5400280000000 1.0
C      1  0.5593580000000  0.5383000000000  0.4474750000000 1.0
C      1  0.4913820000000  0.4491550000000  0.5170580000000 1.0
C      1  0.4843070000000  0.5824540000000  0.4339220000000 1.0
C      1  0.5848330000000  0.5873750000000  0.5402060000000 1.0
C      1  0.5528310000000  0.5215210000000  0.6111810000000 1.0
C      1  0.5440280000000  0.4208130000000  0.4915110000000 1.0
C      1  0.4962900000000  0.4499440000000  0.5713400000000 1.0
C      1  0.4771330000000  0.5228600000000  0.4583260000000 1.0
C      1  0.5977320000000  0.5035010000000  0.4531440000000 1.0
C      1  0.5185970000000  0.5564560000000  0.4095640000000 1.0
C      1  0.5547320000000  0.4103580000000  0.5583640000000 1.0
C      1  0.3959430000000  0.5391940000000  0.5267740000000 1.0
C      1  0.5726820000000  0.4740380000000  0.4170570000000 1.0
C      1  0.3580090000000  0.5370990000000  0.4459140000000 1.0
C      1  0.3121000000000  0.5384540000000  0.4194870000000 1.0
C      1  0.4878420000000  0.4996320000000  0.5723040000000 1.0
C      1  0.5845670000000  0.4507570000000  0.5653870000000 1.0
C      1  0.4871450000000  0.4233710000000  0.5647440000000 1.0
C      1  0.4428520000000  0.4329080000000  0.4470270000000 1.0
C      1  0.4877080000000  0.3944460000000  0.5260710000000 1.0
C      1  0.4818400000000  0.5295890000000  0.5650920000000 1.0
C      1  0.6128630000000  0.5199840000000  0.4946610000000 1.0
C      1  0.5053930000000  0.3917080000000  0.5029750000000 1.0
C      1  0.4982470000000  0.5515520000000  0.5770180000000 1.0
C      1  0.5353760000000  0.4382830000000  0.4194830000000 1.0
C      1  0.4137810000000  0.5589350000000  0.5312590000000 1.0
C      1  0.3821360000000  0.5143950000000  0.5290600000000 1.0
C      1  0.5459850000000  0.5638740000000  0.4095680000000 1.0
C      1  0.3862600000000  0.4762480000000  0.5908830000000 1.0
C      1  0.4568570000000  0.5220930000000  0.4393550000000 1.0
C      1  0.4988340000000  0.5079640000000  0.3946600000000 1.0
C      1  0.5569220000000  0.6053440000000  0.5007950000000 1.0
C      1  0.4160620000000  0.5992520000000  0.4933230000000 1.0
C      1  0.4496700000000  0.4686020000000  0.5181910000000 1.0
C      1  0.5238800000000  0.5431360000000  0.5099730000000 1.0
C      1  0.3704970000000  0.5086150000000  0.5541410000000 1.0
C      1  0.4692650000000  0.5869550000000  0.4116210000000 1.0
C      1  0.4527530000000  0.5162110000000  0.5286140000000 1.0
C      1  0.5463170000000  0.4240410000000  0.4417540000000 1.0
C      1  0.3919640000000  0.5075750000000  0.4642490000000 1.0
C      1  0.4022460000000  0.5818020000000  0.4782010000000 1.0
C      1  0.4145760000000  0.4712310000000  0.4354810000000 1.0
C      1  0.3947790000000  0.5577080000000  0.4692870000000 1.0
C      1  0.4623810000000  0.5590910000000  0.5246290000000 1.0
C      1  0.4270930000000  0.4093070000000  0.4902720000000 1.0
C      1  0.4264600000000  0.4780470000000  0.5306900000000 1.0
C      1  0.5027880000000  0.3921520000000  0.4484770000000 1.0
C      1  0.6242780000000  0.5241450000000  0.5426390000000 1.0
C      1  0.5444480000000  0.4488320000000  0.5912690000000 1.0
C      1  0.5952920000000  0.5323440000000  0.5898760000000 1.0
C      1  0.5088550000000  0.4916220000000  0.4163130000000 1.0
C      1  0.4119630000000  0.4976740000000  0.4460820000000 1.0
C      1  0.4687420000000  0.4225410000000  0.4487020000000 1.0
C      1  0.6044460000000  0.5270160000000  0.5204670000000 1.0
C      1  0.5364910000000  0.4756400000000  0.5560690000000 1.0
C      1  0.4009120000000  0.4696110000000  0.5228860000000 1.0
C      1  0.5700760000000  0.3876620000000  0.5619170000000 1.0
C      1  0.5533670000000  0.5330540000000  0.4749530000000 1.0
C      1  0.5994710000000  0.5579720000000  0.4727620000000 1.0
C      1  0.4584460000000  0.4772800000000  0.3914830000000 1.0
C      1  0.4042650000000  0.4567750000000  0.5932310000000 1.0
C      1  0.5760940000000  0.4966670000000  0.4336240000000 1.0
C      1  0.3732690000000  0.4946890000000  0.5767170000000 1.0
C      1  0.5107980000000  0.6262710000000  0.5055150000000 1.0
C      1  0.4318660000000  0.5029980000000  0.5416710000000 1.0
C      1  0.4718370000000  0.4619100000000  0.5345490000000 1.0
C      1  0.4768290000000  0.4665960000000  0.4775350000000 1.0
C      1  0.4588560000000  0.4824800000000  0.4938000000000 1.0
C      1  0.4631520000000  0.4674240000000  0.4182930000000 1.0
C      1  0.5546650000000  0.5055690000000  0.5172700000000 1.0
C      1  0.5284460000000  0.5195770000000  0.5683750000000 1.0
C      1  0.5366350000000  0.4339070000000  0.4665750000000 1.0
C      1  0.5076400000000  0.5350910000000  0.3942930000000 1.0
C      1  0.5368390000000  0.6190880000000  0.5442480000000 1.0
C      1  0.5234080000000  0.5073640000000  0.4353740000000 1.0
C      1  0.5048180000000  0.5228600000000  0.4518330000000 1.0
C      1  0.4642810000000  0.6047150000000  0.5012890000000 1.0
C      1  0.6012460000000  0.4577600000000  0.4763270000000 1.0
C      1  0.5599470000000  0.4406700000000  0.5041880000000 1.0
C      1  0.5022030000000  0.6021370000000  0.5780850000000 1.0
C      1  0.5537390000000  0.4567390000000  0.4085570000000 1.0
C      1  0.5952350000000  0.5765570000000  0.4922270000000 1.0
C      1  0.5855180000000  0.4455320000000  0.4941360000000 1.0
C      1  0.5218700000000  0.6155330000000  0.5660510000000 1.0
C      1  0.5263550000000  0.4619240000000  0.4662840000000 1.0
END
