TITL C-612607-4507-1022 -114.981798369513 125000 -1146.45307261117 0 0 187 (C1) n - 1
REM
REM in /home/nfs/bkarasulu/CARBON/AIRSS/Generating-Clusters/TERSOFF/Only-C1/FIRE-HFTN
REM
REM
REM
REM
REM
REM ./C.cell (11c1c37f851c82e70ff6c80c92926a4b)
REM AIRSS Version 0.9.1 bugfix July 2018 build 013d7b7c2542+ Fri, 06 Jul 2018 19:26:36 +0100
REM compiler GCC version 9.2.1 20190827 (Red Hat 9.2.1-1)
REM options -cpp -mtune=generic -march=x86-64 -g -O0 -fpre-include=/usr/include/finclude/math-vector-fortran.h
REM seed -1112020225 141058142 743005085 -837622719 -963666404 1809861943 916653635 1356006963 1231941553 1703358304 -1223281927 -450451159 2009563200 887947721 1997334314 1226120803 1289383646 -312799376 962786293 -1942207654 -1706653758 301557725 -848961094 -1385333664 -2084137614 741620163 -2073222459 -2089710398 -193777363 837295183 -173799191 2117129077 -891408474
REM
CELL 1.54180   50.00000   50.00000   50.00000   90.00000   90.00000   90.00000
LATT -1
SFAC C  
C      1  0.5263770000000  0.5131050000000  0.3861140000000 1.0
C      1  0.5387350000000  0.5697600000000  0.5345280000000 1.0
C      1  0.5727920000000  0.5169990000000  0.4269470000000 1.0
C      1  0.3981700000000  0.5385810000000  0.4390700000000 1.0
C      1  0.5764870000000  0.6006890000000  0.4607700000000 1.0
C      1  0.5624280000000  0.5486430000000  0.5981880000000 1.0
C      1  0.4975840000000  0.5370810000000  0.6070720000000 1.0
C      1  0.4784470000000  0.5607210000000  0.3933360000000 1.0
C      1  0.5208300000000  0.5836930000000  0.3879820000000 1.0
C      1  0.4372280000000  0.4007670000000  0.5002390000000 1.0
C      1  0.4505680000000  0.5566630000000  0.3942680000000 1.0
C      1  0.4949330000000  0.5799200000000  0.3808820000000 1.0
C      1  0.4424890000000  0.4376620000000  0.4173460000000 1.0
C      1  0.5205850000000  0.4424780000000  0.5835410000000 1.0
C      1  0.5101390000000  0.3936820000000  0.5874730000000 1.0
C      1  0.5263440000000  0.6158010000000  0.5206610000000 1.0
C      1  0.5139720000000  0.4495020000000  0.5324560000000 1.0
C      1  0.5436300000000  0.5530790000000  0.5106510000000 1.0
C      1  0.4427480000000  0.4645030000000  0.4749700000000 1.0
C      1  0.5204320000000  0.3880780000000  0.5275520000000 1.0
C      1  0.4190390000000  0.6046050000000  0.5452670000000 1.0
C      1  0.5483380000000  0.4634550000000  0.5783110000000 1.0
C      1  0.4875400000000  0.5839440000000  0.5202680000000 1.0
C      1  0.5152650000000  0.6264670000000  0.4776420000000 1.0
C      1  0.4810620000000  0.5242910000000  0.4542400000000 1.0
C      1  0.4967460000000  0.4781130000000  0.4400880000000 1.0
C      1  0.5127210000000  0.4764640000000  0.5407380000000 1.0
C      1  0.5270460000000  0.4143700000000  0.5779830000000 1.0
C      1  0.4943340000000  0.4296660000000  0.5261370000000 1.0
C      1  0.5182510000000  0.4646690000000  0.3915230000000 1.0
C      1  0.4944030000000  0.4035500000000  0.4851340000000 1.0
C      1  0.5766050000000  0.5185920000000  0.4950160000000 1.0
C      1  0.5314240000000  0.4925930000000  0.5253470000000 1.0
C      1  0.4858300000000  0.5827990000000  0.5948010000000 1.0
C      1  0.4980680000000  0.6104550000000  0.5186360000000 1.0
C      1  0.4822670000000  0.3974250000000  0.5829530000000 1.0
C      1  0.4203550000000  0.4279270000000  0.5791200000000 1.0
C      1  0.4468470000000  0.4757480000000  0.5543320000000 1.0
C      1  0.5467310000000  0.3960940000000  0.5360680000000 1.0
C      1  0.4321290000000  0.5211610000000  0.5303570000000 1.0
C      1  0.4993780000000  0.5498750000000  0.5586950000000 1.0
C      1  0.4528810000000  0.4504710000000  0.5435380000000 1.0
C      1  0.4043520000000  0.5407040000000  0.4875330000000 1.0
C      1  0.4579280000000  0.4737100000000  0.3855290000000 1.0
C      1  0.4700940000000  0.3781990000000  0.4513120000000 1.0
C      1  0.4149310000000  0.5939000000000  0.5016040000000 1.0
C      1  0.4356880000000  0.6217360000000  0.5306850000000 1.0
C      1  0.4853490000000  0.5737590000000  0.4929360000000 1.0
C      1  0.4577040000000  0.4411630000000  0.4804870000000 1.0
C      1  0.4522020000000  0.5031550000000  0.3899210000000 1.0
C      1  0.4037070000000  0.4318010000000  0.5585040000000 1.0
C      1  0.5040040000000  0.4060150000000  0.5122150000000 1.0
C      1  0.4540850000000  0.5650070000000  0.5557620000000 1.0
C      1  0.5023760000000  0.4498050000000  0.4360390000000 1.0
C      1  0.5282890000000  0.5238780000000  0.4320190000000 1.0
C      1  0.5276090000000  0.5590370000000  0.5576990000000 1.0
C      1  0.4814890000000  0.4267680000000  0.4733950000000 1.0
C      1  0.5659460000000  0.3962440000000  0.5152830000000 1.0
C      1  0.4048430000000  0.5286870000000  0.5345520000000 1.0
C      1  0.4618490000000  0.5823550000000  0.4766250000000 1.0
C      1  0.6132380000000  0.4803800000000  0.5679810000000 1.0
C      1  0.5571810000000  0.5146400000000  0.4742830000000 1.0
C      1  0.5583620000000  0.4918320000000  0.4161200000000 1.0
C      1  0.3972150000000  0.4711480000000  0.4910400000000 1.0
C      1  0.4786360000000  0.5621570000000  0.5386650000000 1.0
C      1  0.5533140000000  0.4901560000000  0.5652320000000 1.0
C      1  0.4407690000000  0.5034470000000  0.5932550000000 1.0
C      1  0.5476200000000  0.5770090000000  0.4336910000000 1.0
C      1  0.4465810000000  0.5368030000000  0.5102970000000 1.0
C      1  0.4727390000000  0.6339960000000  0.5943050000000 1.0
C      1  0.5530090000000  0.5285910000000  0.4476780000000 1.0
C      1  0.4712080000000  0.3332440000000  0.5947670000000 1.0
C      1  0.6302020000000  0.4762950000000  0.4119720000000 1.0
C      1  0.4533900000000  0.3857100000000  0.5448380000000 1.0
C      1  0.4529520000000  0.4807040000000  0.5817920000000 1.0
C      1  0.4911070000000  0.4458630000000  0.5897710000000 1.0
C      1  0.5425800000000  0.4713340000000  0.4652920000000 1.0
C      1  0.5357030000000  0.5605000000000  0.4830460000000 1.0
C      1  0.5122470000000  0.3386390000000  0.5185490000000 1.0
C      1  0.5730670000000  0.4300690000000  0.4757180000000 1.0
C      1  0.4917770000000  0.3790230000000  0.4697250000000 1.0
C      1  0.5381370000000  0.4878440000000  0.3937360000000 1.0
C      1  0.5441540000000  0.5548840000000  0.5800430000000 1.0
C      1  0.3958070000000  0.4388040000000  0.5339210000000 1.0
C      1  0.3756510000000  0.5520700000000  0.4297250000000 1.0
C      1  0.4607310000000  0.3532030000000  0.5803670000000 1.0
C      1  0.5411830000000  0.4435320000000  0.5262530000000 1.0
C      1  0.4264760000000  0.5117070000000  0.4014880000000 1.0
C      1  0.4365700000000  0.5296510000000  0.5894040000000 1.0
C      1  0.4444110000000  0.4265770000000  0.5908710000000 1.0
C      1  0.5988480000000  0.5273990000000  0.4344890000000 1.0
C      1  0.5723780000000  0.4063800000000  0.4912210000000 1.0
C      1  0.5569870000000  0.6026710000000  0.4410060000000 1.0
C      1  0.4557780000000  0.4864790000000  0.4862850000000 1.0
C      1  0.5029450000000  0.6553970000000  0.4403380000000 1.0
C      1  0.5408950000000  0.6252270000000  0.4375240000000 1.0
C      1  0.4799120000000  0.6085690000000  0.5964290000000 1.0
C      1  0.6041320000000  0.5110660000000  0.4970850000000 1.0
C      1  0.5678340000000  0.6075210000000  0.4886260000000 1.0
C      1  0.4979900000000  0.4922050000000  0.5864470000000 1.0
C      1  0.4972020000000  0.5217780000000  0.5172000000000 1.0
C      1  0.3867190000000  0.5085640000000  0.5250160000000 1.0
C      1  0.5192310000000  0.4449770000000  0.4131120000000 1.0
C      1  0.4248100000000  0.5502000000000  0.4366700000000 1.0
C      1  0.4602200000000  0.6107960000000  0.4855920000000 1.0
C      1  0.4197430000000  0.4856750000000  0.4167390000000 1.0
C      1  0.5656620000000  0.5318700000000  0.5197650000000 1.0
C      1  0.3878610000000  0.4972660000000  0.4986870000000 1.0
C      1  0.5161460000000  0.5290970000000  0.4068390000000 1.0
C      1  0.6075970000000  0.4587450000000  0.4509850000000 1.0
C      1  0.5980520000000  0.4445180000000  0.4732590000000 1.0
C      1  0.5977290000000  0.5793690000000  0.4593960000000 1.0
C      1  0.3947440000000  0.4503040000000  0.5098030000000 1.0
C      1  0.3962830000000  0.5126820000000  0.4514660000000 1.0
C      1  0.5153280000000  0.3467410000000  0.6100170000000 1.0
C      1  0.5520960000000  0.4752090000000  0.4386980000000 1.0
C      1  0.6155530000000  0.5049010000000  0.5220250000000 1.0
C      1  0.3917450000000  0.5170480000000  0.4790400000000 1.0
C      1  0.6189960000000  0.4952900000000  0.5466330000000 1.0
C      1  0.4651990000000  0.3786300000000  0.5694150000000 1.0
C      1  0.6154290000000  0.5071590000000  0.4465120000000 1.0
C      1  0.5526550000000  0.5050410000000  0.5395540000000 1.0
C      1  0.5734830000000  0.4486040000000  0.5802420000000 1.0
C      1  0.4884600000000  0.4884510000000  0.4151120000000 1.0
C      1  0.4451200000000  0.4962640000000  0.5348780000000 1.0
C      1  0.4494560000000  0.3977020000000  0.4491150000000 1.0
C      1  0.5597120000000  0.5881000000000  0.5400570000000 1.0
C      1  0.4934860000000  0.5449950000000  0.4114210000000 1.0
C      1  0.4835420000000  0.4309810000000  0.4448240000000 1.0
C      1  0.4407290000000  0.5519700000000  0.5751760000000 1.0
C      1  0.4605900000000  0.4900670000000  0.5120930000000 1.0
C      1  0.3997920000000  0.5571310000000  0.5354790000000 1.0
C      1  0.5017510000000  0.5696300000000  0.4512860000000 1.0
C      1  0.5029760000000  0.4960370000000  0.5592350000000 1.0
C      1  0.5132870000000  0.3614130000000  0.5326440000000 1.0
C      1  0.4373750000000  0.4626310000000  0.4050540000000 1.0
C      1  0.5087790000000  0.5691540000000  0.4783400000000 1.0
C      1  0.5975290000000  0.4631130000000  0.5809590000000 1.0
C      1  0.4417560000000  0.5623590000000  0.4657790000000 1.0
C      1  0.5728620000000  0.4216170000000  0.5715120000000 1.0
C      1  0.4921900000000  0.5564800000000  0.5875620000000 1.0
C      1  0.4072040000000  0.5836970000000  0.5284720000000 1.0
C      1  0.4659840000000  0.4295170000000  0.5306360000000 1.0
C      1  0.4684210000000  0.5073020000000  0.4133000000000 1.0
C      1  0.4369650000000  0.6143350000000  0.5024390000000 1.0
C      1  0.4791410000000  0.4718300000000  0.5904700000000 1.0
C      1  0.5495660000000  0.4459170000000  0.4747630000000 1.0
C      1  0.6085730000000  0.4503560000000  0.4988980000000 1.0
C      1  0.6082580000000  0.5810990000000  0.4862580000000 1.0
C      1  0.5869580000000  0.5512370000000  0.5311140000000 1.0
C      1  0.5672210000000  0.4495460000000  0.5269860000000 1.0
C      1  0.5111570000000  0.3363710000000  0.4918040000000 1.0
C      1  0.5931040000000  0.4518930000000  0.5208630000000 1.0
C      1  0.4882790000000  0.6216660000000  0.4921870000000 1.0
C      1  0.5380830000000  0.5760770000000  0.4071890000000 1.0
C      1  0.4740520000000  0.5397900000000  0.5165320000000 1.0
C      1  0.4886040000000  0.4720780000000  0.3910500000000 1.0
C      1  0.5397320000000  0.6181910000000  0.4946240000000 1.0
C      1  0.5488280000000  0.5575140000000  0.4559410000000 1.0
C      1  0.4511490000000  0.4052980000000  0.5247060000000 1.0
C      1  0.5191200000000  0.6364320000000  0.4513440000000 1.0
C      1  0.4651520000000  0.6587000000000  0.5908770000000 1.0
C      1  0.5499970000000  0.4079620000000  0.5621220000000 1.0
C      1  0.5060370000000  0.3553500000000  0.4736540000000 1.0
C      1  0.6178950000000  0.4805710000000  0.4360330000000 1.0
C      1  0.5895000000000  0.5933830000000  0.5045080000000 1.0
C      1  0.4320900000000  0.5410090000000  0.4094790000000 1.0
C      1  0.5184710000000  0.5048940000000  0.5026810000000 1.0
C      1  0.4091500000000  0.4875880000000  0.4440590000000 1.0
C      1  0.4945840000000  0.3298520000000  0.6075640000000 1.0
C      1  0.5807100000000  0.5403310000000  0.6148070000000 1.0
C      1  0.5032950000000  0.5110490000000  0.6061520000000 1.0
C      1  0.3546240000000  0.5647800000000  0.4210430000000 1.0
C      1  0.5841970000000  0.5800990000000  0.5288460000000 1.0
C      1  0.5201020000000  0.3716330000000  0.6014880000000 1.0
C      1  0.4897060000000  0.5478780000000  0.4395970000000 1.0
C      1  0.4318060000000  0.5468140000000  0.4880780000000 1.0
C      1  0.6197940000000  0.5103260000000  0.4740070000000 1.0
C      1  0.4153680000000  0.4702220000000  0.4676490000000 1.0
C      1  0.5010260000000  0.5214220000000  0.5471820000000 1.0
C      1  0.4590410000000  0.5159940000000  0.4382490000000 1.0
C      1  0.4950300000000  0.4992100000000  0.4596370000000 1.0
C      1  0.5361270000000  0.4958300000000  0.4801950000000 1.0
C      1  0.4581400000000  0.4210960000000  0.4338560000000 1.0
C      1  0.4725060000000  0.4234500000000  0.5896280000000 1.0
C      1  0.6010780000000  0.5556480000000  0.4429560000000 1.0
C      1  0.4339580000000  0.3994100000000  0.4732710000000 1.0
END
