TITL C-612604-1799-649 0.000485425081270788 125000 -1130.60251016719 0 0 183 (C1) n - 1
REM
REM in /home/nfs/bkarasulu/CARBON/AIRSS/Generating-Clusters/TERSOFF/Only-C1/FIRE-HFTN
REM
REM
REM
REM
REM
REM ./C.cell (11c1c37f851c82e70ff6c80c92926a4b)
REM AIRSS Version 0.9.1 bugfix July 2018 build 013d7b7c2542+ Fri, 06 Jul 2018 19:26:36 +0100
REM compiler GCC version 9.2.1 20190827 (Red Hat 9.2.1-1)
REM options -cpp -mtune=generic -march=x86-64 -g -O0 -fpre-include=/usr/include/finclude/math-vector-fortran.h
REM seed 561146901 293726991 611322415 96934359 -618780438 -74993528 -316546499 1336157476 1942176137 -2136037098 -290886643 -2008640855 720632066 1340821348 -1310676434 1285184996 -1354735311 -307051192 -612370411 905274763 -410013836 -1011069901 1183484693 1095685337 1790895402 823145985 875790862 770643753 363541894 -1789784358 -606437807 -1291180496 1605535712
REM
CELL 1.54180   50.00000   50.00000   50.00000   90.00000   90.00000   90.00000
LATT -1
SFAC C  
C      1  0.5129430000000  0.4302050000000  0.4691060000000 1.0
C      1  0.4580790000000  0.5035340000000  0.4002860000000 1.0
C      1  0.4699300000000  0.4370310000000  0.5599070000000 1.0
C      1  0.4920640000000  0.5183020000000  0.5999510000000 1.0
C      1  0.5715820000000  0.4310110000000  0.5351320000000 1.0
C      1  0.4494590000000  0.5784500000000  0.4140770000000 1.0
C      1  0.5510250000000  0.5911530000000  0.5735480000000 1.0
C      1  0.4925200000000  0.5798380000000  0.4299300000000 1.0
C      1  0.4368880000000  0.6009120000000  0.5039170000000 1.0
C      1  0.4615330000000  0.6092050000000  0.4914190000000 1.0
C      1  0.5196710000000  0.4836720000000  0.6130320000000 1.0
C      1  0.4770980000000  0.5811570000000  0.4049100000000 1.0
C      1  0.6201790000000  0.5191010000000  0.4846070000000 1.0
C      1  0.4203540000000  0.4579420000000  0.5755420000000 1.0
C      1  0.6110800000000  0.4553670000000  0.5171570000000 1.0
C      1  0.5566650000000  0.5453860000000  0.5990620000000 1.0
C      1  0.5625350000000  0.4120950000000  0.4802170000000 1.0
C      1  0.5726880000000  0.4851160000000  0.4984290000000 1.0
C      1  0.4690360000000  0.3998770000000  0.3703250000000 1.0
C      1  0.5103470000000  0.5589860000000  0.4870640000000 1.0
C      1  0.4213490000000  0.4378550000000  0.5557660000000 1.0
C      1  0.4007260000000  0.4509030000000  0.4898000000000 1.0
C      1  0.4238360000000  0.4665410000000  0.4019630000000 1.0
C      1  0.4332330000000  0.4447950000000  0.5300350000000 1.0
C      1  0.4913580000000  0.5705970000000  0.5041180000000 1.0
C      1  0.4710030000000  0.4899540000000  0.6300570000000 1.0
C      1  0.4148220000000  0.4598790000000  0.5136680000000 1.0
C      1  0.4742500000000  0.4986560000000  0.4770950000000 1.0
C      1  0.5289500000000  0.5613510000000  0.3783000000000 1.0
C      1  0.4267910000000  0.5729810000000  0.5639490000000 1.0
C      1  0.4360370000000  0.5205040000000  0.6448230000000 1.0
C      1  0.5451840000000  0.5473700000000  0.5436960000000 1.0
C      1  0.4983000000000  0.5459860000000  0.4648820000000 1.0
C      1  0.5777370000000  0.5271410000000  0.4154890000000 1.0
C      1  0.4784930000000  0.5267070000000  0.4717490000000 1.0
C      1  0.6084990000000  0.4451800000000  0.5641090000000 1.0
C      1  0.5930450000000  0.4545070000000  0.4212100000000 1.0
C      1  0.4665180000000  0.4089010000000  0.3946400000000 1.0
C      1  0.4179890000000  0.4282960000000  0.4409020000000 1.0
C      1  0.4974330000000  0.4878610000000  0.3772350000000 1.0
C      1  0.5105090000000  0.5779600000000  0.3685490000000 1.0
C      1  0.4638930000000  0.4199560000000  0.4201350000000 1.0
C      1  0.4647230000000  0.4426440000000  0.5299950000000 1.0
C      1  0.5376570000000  0.5603280000000  0.4946030000000 1.0
C      1  0.6216560000000  0.4917100000000  0.4858800000000 1.0
C      1  0.4689630000000  0.4910720000000  0.5046450000000 1.0
C      1  0.5279800000000  0.4408240000000  0.5905900000000 1.0
C      1  0.5533390000000  0.5018620000000  0.3815790000000 1.0
C      1  0.5097430000000  0.3557610000000  0.5484770000000 1.0
C      1  0.6057070000000  0.5492400000000  0.4488970000000 1.0
C      1  0.4552350000000  0.4713710000000  0.3642500000000 1.0
C      1  0.4539180000000  0.4044500000000  0.4646040000000 1.0
C      1  0.4411110000000  0.5560420000000  0.5835500000000 1.0
C      1  0.4431180000000  0.4816200000000  0.3878560000000 1.0
C      1  0.3779570000000  0.5559790000000  0.5114500000000 1.0
C      1  0.5818040000000  0.4578490000000  0.4492130000000 1.0
C      1  0.3785700000000  0.4661090000000  0.4811750000000 1.0
C      1  0.5968680000000  0.4439140000000  0.5385940000000 1.0
C      1  0.5601920000000  0.4764940000000  0.3919260000000 1.0
C      1  0.5584740000000  0.5705600000000  0.5896280000000 1.0
C      1  0.5746850000000  0.5002610000000  0.4749030000000 1.0
C      1  0.4142820000000  0.5284480000000  0.5564070000000 1.0
C      1  0.4560960000000  0.3863340000000  0.4863120000000 1.0
C      1  0.4735470000000  0.5628360000000  0.5239200000000 1.0
C      1  0.3779090000000  0.5390320000000  0.4887720000000 1.0
C      1  0.4674670000000  0.5809310000000  0.5450540000000 1.0
C      1  0.3870600000000  0.5013640000000  0.4477520000000 1.0
C      1  0.4832140000000  0.5761870000000  0.5678510000000 1.0
C      1  0.6188900000000  0.5091640000000  0.5708410000000 1.0
C      1  0.5679420000000  0.5747920000000  0.4318760000000 1.0
C      1  0.5428530000000  0.4304440000000  0.4709050000000 1.0
C      1  0.4030840000000  0.3877110000000  0.5632710000000 1.0
C      1  0.6264140000000  0.4871050000000  0.5839180000000 1.0
C      1  0.4600030000000  0.5137760000000  0.5196370000000 1.0
C      1  0.5055860000000  0.5094880000000  0.4212990000000 1.0
C      1  0.5707650000000  0.4037420000000  0.5386190000000 1.0
C      1  0.5301750000000  0.6056370000000  0.5053810000000 1.0
C      1  0.4850840000000  0.4482340000000  0.6098950000000 1.0
C      1  0.4907000000000  0.5038400000000  0.5760570000000 1.0
C      1  0.5083440000000  0.3797720000000  0.5597720000000 1.0
C      1  0.4840500000000  0.4840090000000  0.4547290000000 1.0
C      1  0.4111790000000  0.4122800000000  0.5601280000000 1.0
C      1  0.5500230000000  0.4863770000000  0.5157180000000 1.0
C      1  0.3738660000000  0.4918280000000  0.4711440000000 1.0
C      1  0.4788900000000  0.4689920000000  0.5215070000000 1.0
C      1  0.4848250000000  0.6073320000000  0.4744800000000 1.0
C      1  0.5994320000000  0.5663280000000  0.4931310000000 1.0
C      1  0.4039340000000  0.5646450000000  0.5203060000000 1.0
C      1  0.5860540000000  0.5009590000000  0.4243270000000 1.0
C      1  0.4164510000000  0.4383870000000  0.4698690000000 1.0
C      1  0.5409290000000  0.4586220000000  0.4029760000000 1.0
C      1  0.4706540000000  0.4660380000000  0.4383550000000 1.0
C      1  0.5557140000000  0.5190230000000  0.6095810000000 1.0
C      1  0.4302930000000  0.5285200000000  0.5815810000000 1.0
C      1  0.5086400000000  0.4369330000000  0.4394200000000 1.0
C      1  0.4638690000000  0.4310100000000  0.4730110000000 1.0
C      1  0.5848910000000  0.5515260000000  0.4297100000000 1.0
C      1  0.5288220000000  0.5944500000000  0.5559460000000 1.0
C      1  0.4822010000000  0.4411190000000  0.4293490000000 1.0
C      1  0.5771830000000  0.5150720000000  0.5393470000000 1.0
C      1  0.4083200000000  0.4854460000000  0.5241800000000 1.0
C      1  0.5614460000000  0.5247980000000  0.4756020000000 1.0
C      1  0.4074730000000  0.5061400000000  0.5409870000000 1.0
C      1  0.5504570000000  0.5928880000000  0.4420700000000 1.0
C      1  0.5633460000000  0.5358180000000  0.5262020000000 1.0
C      1  0.5329280000000  0.3443200000000  0.5052710000000 1.0
C      1  0.4966670000000  0.5001970000000  0.6210490000000 1.0
C      1  0.6101330000000  0.4016880000000  0.4849160000000 1.0
C      1  0.5034730000000  0.5549050000000  0.4380230000000 1.0
C      1  0.4422700000000  0.5923560000000  0.5504330000000 1.0
C      1  0.5175620000000  0.6384330000000  0.5387770000000 1.0
C      1  0.4775610000000  0.5963090000000  0.4491030000000 1.0
C      1  0.4874880000000  0.5857710000000  0.3796860000000 1.0
C      1  0.5128820000000  0.4561730000000  0.6083010000000 1.0
C      1  0.5904280000000  0.4200520000000  0.4796120000000 1.0
C      1  0.6211370000000  0.4609890000000  0.5815030000000 1.0
C      1  0.4436570000000  0.4648010000000  0.4452960000000 1.0
C      1  0.5503220000000  0.5853120000000  0.5006720000000 1.0
C      1  0.4118070000000  0.5557140000000  0.5462500000000 1.0
C      1  0.5471590000000  0.4448300000000  0.5306410000000 1.0
C      1  0.5099520000000  0.5731670000000  0.5603010000000 1.0
C      1  0.4841480000000  0.5444940000000  0.6037830000000 1.0
C      1  0.4689990000000  0.5619510000000  0.5882930000000 1.0
C      1  0.5129450000000  0.4058420000000  0.5611610000000 1.0
C      1  0.4892360000000  0.4298750000000  0.4865550000000 1.0
C      1  0.4697830000000  0.4617710000000  0.6293220000000 1.0
C      1  0.4433450000000  0.4503750000000  0.4707150000000 1.0
C      1  0.5221620000000  0.4516300000000  0.5432260000000 1.0
C      1  0.5578250000000  0.4935690000000  0.5432870000000 1.0
C      1  0.5563360000000  0.5261160000000  0.3962430000000 1.0
C      1  0.4446630000000  0.5272950000000  0.4069540000000 1.0
C      1  0.6127040000000  0.4643070000000  0.4902770000000 1.0
C      1  0.4818950000000  0.4740690000000  0.3597580000000 1.0
C      1  0.5283260000000  0.4890020000000  0.4967090000000 1.0
C      1  0.4154840000000  0.5656750000000  0.4737110000000 1.0
C      1  0.5017220000000  0.5003350000000  0.5505600000000 1.0
C      1  0.3546180000000  0.5642160000000  0.5241300000000 1.0
C      1  0.5249970000000  0.4925350000000  0.4697620000000 1.0
C      1  0.4238180000000  0.4541530000000  0.4269590000000 1.0
C      1  0.4471770000000  0.5056300000000  0.6245960000000 1.0
C      1  0.5010470000000  0.5272570000000  0.5401490000000 1.0
C      1  0.5318690000000  0.6062620000000  0.4567470000000 1.0
C      1  0.4873780000000  0.5008920000000  0.4005220000000 1.0
C      1  0.5335530000000  0.4474840000000  0.4277970000000 1.0
C      1  0.5852780000000  0.4775820000000  0.4058800000000 1.0
C      1  0.3658290000000  0.5134000000000  0.4878470000000 1.0
C      1  0.6014690000000  0.5174250000000  0.5524800000000 1.0
C      1  0.5415810000000  0.4967840000000  0.5975280000000 1.0
C      1  0.5089180000000  0.4945940000000  0.4459140000000 1.0
C      1  0.5700320000000  0.5138400000000  0.6331290000000 1.0
C      1  0.5838490000000  0.5080450000000  0.6544510000000 1.0
C      1  0.4383650000000  0.5531270000000  0.4099200000000 1.0
C      1  0.5143640000000  0.6100950000000  0.4800850000000 1.0
C      1  0.5182170000000  0.5480510000000  0.5496130000000 1.0
C      1  0.5533180000000  0.4468140000000  0.4491170000000 1.0
C      1  0.4425760000000  0.4106510000000  0.4385440000000 1.0
C      1  0.5559120000000  0.3851530000000  0.4835120000000 1.0
C      1  0.5819070000000  0.4888620000000  0.4505260000000 1.0
C      1  0.6105090000000  0.5453070000000  0.4767010000000 1.0
C      1  0.3969100000000  0.5452990000000  0.4675940000000 1.0
C      1  0.5977960000000  0.4469310000000  0.4720240000000 1.0
C      1  0.4201780000000  0.5775930000000  0.4990570000000 1.0
C      1  0.4345500000000  0.5055200000000  0.5983910000000 1.0
C      1  0.4336160000000  0.6101750000000  0.5306910000000 1.0
C      1  0.5200410000000  0.4325880000000  0.5649950000000 1.0
C      1  0.5336480000000  0.5427210000000  0.3985460000000 1.0
C      1  0.5188700000000  0.3417750000000  0.5277410000000 1.0
C      1  0.4732000000000  0.4379960000000  0.5864560000000 1.0
C      1  0.4501460000000  0.5939350000000  0.4386780000000 1.0
C      1  0.5146410000000  0.5365910000000  0.4191260000000 1.0
C      1  0.5551920000000  0.5384220000000  0.4991250000000 1.0
C      1  0.5487540000000  0.4900100000000  0.5702740000000 1.0
C      1  0.4255050000000  0.4804480000000  0.5888660000000 1.0
C      1  0.4755550000000  0.5349950000000  0.5292830000000 1.0
C      1  0.4793400000000  0.4206440000000  0.5129870000000 1.0
C      1  0.3330240000000  0.5716850000000  0.5366580000000 1.0
C      1  0.5028530000000  0.4740770000000  0.5380850000000 1.0
C      1  0.4673580000000  0.3944310000000  0.5101700000000 1.0
C      1  0.5256530000000  0.6126710000000  0.5332740000000 1.0
C      1  0.3978670000000  0.5263060000000  0.4466710000000 1.0
C      1  0.5463380000000  0.3612370000000  0.4897670000000 1.0
C      1  0.5487420000000  0.5333170000000  0.4531990000000 1.0
C      1  0.5789540000000  0.5834630000000  0.4992450000000 1.0
END
