TITL C-612600-6631-626 3416.73034488294 125000 -671.280614386562 0 0 110 (C1) n - 1
REM
REM in /home/nfs/bkarasulu/CARBON/AIRSS/Generating-Clusters/TERSOFF/Only-C1/FIRE-HFTN
REM
REM
REM
REM
REM
REM ./C.cell (11c1c37f851c82e70ff6c80c92926a4b)
REM AIRSS Version 0.9.1 bugfix July 2018 build 013d7b7c2542+ Fri, 06 Jul 2018 19:26:36 +0100
REM compiler GCC version 9.2.1 20190827 (Red Hat 9.2.1-1)
REM options -cpp -mtune=generic -march=x86-64 -g -O0 -fpre-include=/usr/include/finclude/math-vector-fortran.h
REM seed -2080141539 -558303936 -111070121 -1823861908 -1054022033 564847740 1315830860 -288737088 -287556196 -1345636911 1196170587 1670363547 -1986702787 1902846474 404357621 1517203621 -796323217 1966654784 1418302067 276697020 -182154643 1480154160 -837099199 1311231216 322743421 1363131714 1174013847 -2023716698 -1585455705 675291573 1421281421 -1204792625 -738247954
REM
CELL 1.54180   50.00000   50.00000   50.00000   90.00000   90.00000   90.00000
LATT -1
SFAC C  
C      1  0.4731720000000  0.4751710000000  0.6242040000000 1.0
C      1  0.5543730000000  0.4617430000000  0.3985330000000 1.0
C      1  0.5422920000000  0.4055470000000  0.5122330000000 1.0
C      1  0.4741800000000  0.5709440000000  0.4660650000000 1.0
C      1  0.5297160000000  0.5568800000000  0.4753400000000 1.0
C      1  0.5304870000000  0.4626140000000  0.4648050000000 1.0
C      1  0.4452440000000  0.5472880000000  0.5672550000000 1.0
C      1  0.5105660000000  0.4918760000000  0.5357530000000 1.0
C      1  0.5908790000000  0.5740610000000  0.5248120000000 1.0
C      1  0.4760780000000  0.4606140000000  0.5213990000000 1.0
C      1  0.5398720000000  0.5799900000000  0.4607600000000 1.0
C      1  0.5403590000000  0.3902490000000  0.4873700000000 1.0
C      1  0.4911250000000  0.5138600000000  0.4044240000000 1.0
C      1  0.5451730000000  0.4620010000000  0.4891160000000 1.0
C      1  0.4461510000000  0.5510250000000  0.5193160000000 1.0
C      1  0.5401170000000  0.4558320000000  0.5391590000000 1.0
C      1  0.5754500000000  0.4999670000000  0.4780990000000 1.0
C      1  0.4699340000000  0.4147940000000  0.4866340000000 1.0
C      1  0.4454520000000  0.5374290000000  0.4956050000000 1.0
C      1  0.4946790000000  0.5757230000000  0.4459480000000 1.0
C      1  0.5593330000000  0.4125060000000  0.5339380000000 1.0
C      1  0.5334200000000  0.5815190000000  0.5865030000000 1.0
C      1  0.4842520000000  0.4747920000000  0.4739490000000 1.0
C      1  0.4366620000000  0.5146640000000  0.4345740000000 1.0
C      1  0.4960940000000  0.3658890000000  0.4729420000000 1.0
C      1  0.5841700000000  0.5314450000000  0.4385880000000 1.0
C      1  0.4155290000000  0.4676880000000  0.3731960000000 1.0
C      1  0.5433520000000  0.5551100000000  0.5857830000000 1.0
C      1  0.5300500000000  0.4971740000000  0.3790690000000 1.0
C      1  0.5494330000000  0.5383600000000  0.5656810000000 1.0
C      1  0.5905520000000  0.4670490000000  0.5080350000000 1.0
C      1  0.5047380000000  0.5056650000000  0.5836420000000 1.0
C      1  0.5743560000000  0.5198970000000  0.5265210000000 1.0
C      1  0.4331770000000  0.5420430000000  0.4713440000000 1.0
C      1  0.4668850000000  0.5702370000000  0.5186250000000 1.0
C      1  0.4636680000000  0.5155710000000  0.4942560000000 1.0
C      1  0.4882700000000  0.5905400000000  0.6074010000000 1.0
C      1  0.5651960000000  0.5687440000000  0.5320200000000 1.0
C      1  0.4979580000000  0.4114550000000  0.4935610000000 1.0
C      1  0.5315250000000  0.4507010000000  0.5118730000000 1.0
C      1  0.4221040000000  0.4822620000000  0.3937860000000 1.0
C      1  0.5502090000000  0.4211640000000  0.4481370000000 1.0
C      1  0.4556240000000  0.4392150000000  0.4864200000000 1.0
C      1  0.5156810000000  0.5627180000000  0.5023120000000 1.0
C      1  0.4634530000000  0.4667880000000  0.4951880000000 1.0
C      1  0.5013880000000  0.5919530000000  0.5419670000000 1.0
C      1  0.5076290000000  0.4670590000000  0.4091950000000 1.0
C      1  0.5650990000000  0.5775220000000  0.4489840000000 1.0
C      1  0.4465700000000  0.4924090000000  0.5019230000000 1.0
C      1  0.5272310000000  0.5381000000000  0.5203010000000 1.0
C      1  0.5097450000000  0.4820360000000  0.4642450000000 1.0
C      1  0.3541990000000  0.4694020000000  0.4958530000000 1.0
C      1  0.5078360000000  0.4929690000000  0.3963520000000 1.0
C      1  0.4445990000000  0.5055960000000  0.5376100000000 1.0
C      1  0.5542240000000  0.5402050000000  0.5359880000000 1.0
C      1  0.5851620000000  0.4522600000000  0.5524980000000 1.0
C      1  0.4841220000000  0.4525220000000  0.4127050000000 1.0
C      1  0.4568490000000  0.3913700000000  0.4771150000000 1.0
C      1  0.4845870000000  0.4803450000000  0.5384340000000 1.0
C      1  0.3843430000000  0.4331590000000  0.4849210000000 1.0
C      1  0.3305460000000  0.4777830000000  0.5028890000000 1.0
C      1  0.5804840000000  0.5086090000000  0.4520470000000 1.0
C      1  0.5613080000000  0.4380960000000  0.5469130000000 1.0
C      1  0.4904650000000  0.5163250000000  0.5006070000000 1.0
C      1  0.4960580000000  0.4627830000000  0.6175180000000 1.0
C      1  0.5117610000000  0.3866920000000  0.4834410000000 1.0
C      1  0.5456880000000  0.5885090000000  0.5371300000000 1.0
C      1  0.4385770000000  0.5340830000000  0.5913580000000 1.0
C      1  0.5525490000000  0.4819650000000  0.3804470000000 1.0
C      1  0.4661590000000  0.4957460000000  0.5529340000000 1.0
C      1  0.5018370000000  0.5485850000000  0.4371710000000 1.0
C      1  0.4406260000000  0.5343960000000  0.5418480000000 1.0
C      1  0.5896600000000  0.5016850000000  0.5428550000000 1.0
C      1  0.3887330000000  0.4076740000000  0.4816920000000 1.0
C      1  0.4422840000000  0.5152090000000  0.6100550000000 1.0
C      1  0.5803120000000  0.5578980000000  0.4389390000000 1.0
C      1  0.5354560000000  0.5953410000000  0.5624480000000 1.0
C      1  0.4677520000000  0.5837600000000  0.5916960000000 1.0
C      1  0.4792430000000  0.5083850000000  0.5747450000000 1.0
C      1  0.5193610000000  0.4248520000000  0.5083910000000 1.0
C      1  0.4619780000000  0.5711290000000  0.5672800000000 1.0
C      1  0.4827250000000  0.5335830000000  0.4223520000000 1.0
C      1  0.5538980000000  0.4002320000000  0.4646630000000 1.0
C      1  0.5171790000000  0.5928010000000  0.4489470000000 1.0
C      1  0.4561150000000  0.5362050000000  0.4320550000000 1.0
C      1  0.5776850000000  0.5191150000000  0.4985800000000 1.0
C      1  0.4761710000000  0.5800190000000  0.5436440000000 1.0
C      1  0.5219810000000  0.4827640000000  0.5803590000000 1.0
C      1  0.4294770000000  0.4969670000000  0.4145520000000 1.0
C      1  0.4518080000000  0.5557350000000  0.4541370000000 1.0
C      1  0.4692370000000  0.3682870000000  0.4701880000000 1.0
C      1  0.5206820000000  0.5861150000000  0.5217100000000 1.0
C      1  0.4644400000000  0.4361220000000  0.4174860000000 1.0
C      1  0.5922260000000  0.4739410000000  0.5354640000000 1.0
C      1  0.5188280000000  0.5364430000000  0.4572230000000 1.0
C      1  0.5149740000000  0.5896030000000  0.6059280000000 1.0
C      1  0.4544870000000  0.4941940000000  0.6213920000000 1.0
C      1  0.4249110000000  0.5156290000000  0.4611220000000 1.0
C      1  0.4226970000000  0.4951450000000  0.4820960000000 1.0
C      1  0.5178160000000  0.5086510000000  0.4597410000000 1.0
C      1  0.5379510000000  0.4460310000000  0.4428610000000 1.0
C      1  0.5116240000000  0.5146270000000  0.5190350000000 1.0
C      1  0.5172310000000  0.4637130000000  0.6006860000000 1.0
C      1  0.5333270000000  0.4559400000000  0.4167440000000 1.0
C      1  0.6029220000000  0.5109840000000  0.5649900000000 1.0
C      1  0.4002990000000  0.4788100000000  0.4846840000000 1.0
C      1  0.5287500000000  0.4778710000000  0.5527240000000 1.0
C      1  0.3796130000000  0.4604610000000  0.4884730000000 1.0
C      1  0.5711680000000  0.4738800000000  0.4887440000000 1.0
C      1  0.4843630000000  0.5689150000000  0.4947520000000 1.0
END
