TITL C-612603-7354-820 4.11356625045899 125000 -222.96144454477 0 0 39 (C1) n - 1
REM
REM in /home/nfs/bkarasulu/CARBON/AIRSS/Generating-Clusters/TERSOFF/Only-C1/FIRE-HFTN
REM
REM
REM
REM
REM
REM ./C.cell (11c1c37f851c82e70ff6c80c92926a4b)
REM AIRSS Version 0.9.1 bugfix July 2018 build 013d7b7c2542+ Fri, 06 Jul 2018 19:26:36 +0100
REM compiler GCC version 9.2.1 20190827 (Red Hat 9.2.1-1)
REM options -cpp -mtune=generic -march=x86-64 -g -O0 -fpre-include=/usr/include/finclude/math-vector-fortran.h
REM seed 1657179764 -75012378 -1760691300 -72483147 845861968 -1353635155 -1772997991 1931887279 618532816 321300085 1012482736 -1885222444 353803359 359476106 -1339554173 -739840757 408082283 1974041194 203641038 -1393692926 938652214 1388046897 -517255342 -4825675 1051894928 -2059741340 571604566 767081502 1988745593 -2099209593 812742460 1118812187 1836250900
REM
CELL 1.54180   50.00000   50.00000   50.00000   90.00000   90.00000   90.00000
LATT -1
SFAC C  
C      1  0.5078130000000  0.4791580000000  0.5383060000000 1.0
C      1  0.5449250000000  0.4442240000000  0.6149070000000 1.0
C      1  0.4853390000000  0.5662430000000  0.4917610000000 1.0
C      1  0.5064180000000  0.5035710000000  0.4154100000000 1.0
C      1  0.4732650000000  0.4523540000000  0.5693200000000 1.0
C      1  0.5274430000000  0.4282710000000  0.6298550000000 1.0
C      1  0.4793510000000  0.5736050000000  0.4286900000000 1.0
C      1  0.5482370000000  0.4720610000000  0.5714890000000 1.0
C      1  0.5043350000000  0.4919860000000  0.5133450000000 1.0
C      1  0.5346070000000  0.4188730000000  0.6544900000000 1.0
C      1  0.5053480000000  0.5449820000000  0.3867390000000 1.0
C      1  0.4997570000000  0.5714940000000  0.3850650000000 1.0
C      1  0.4871270000000  0.5876490000000  0.4047670000000 1.0
C      1  0.4849490000000  0.5457830000000  0.4289730000000 1.0
C      1  0.4899350000000  0.5432370000000  0.5041140000000 1.0
C      1  0.4961740000000  0.5187070000000  0.5120180000000 1.0
C      1  0.5024100000000  0.4221950000000  0.6188830000000 1.0
C      1  0.4650420000000  0.4393310000000  0.5926850000000 1.0
C      1  0.4426710000000  0.4476250000000  0.6060890000000 1.0
C      1  0.5459400000000  0.4913470000000  0.4509120000000 1.0
C      1  0.4945970000000  0.6123190000000  0.4815610000000 1.0
C      1  0.4802530000000  0.4173680000000  0.6025070000000 1.0
C      1  0.4829400000000  0.6143590000000  0.4011710000000 1.0
C      1  0.4732420000000  0.3917670000000  0.5958360000000 1.0
C      1  0.4767760000000  0.4561410000000  0.4550450000000 1.0
C      1  0.5321460000000  0.4835250000000  0.4740550000000 1.0
C      1  0.4865440000000  0.4659730000000  0.5508470000000 1.0
C      1  0.5092460000000  0.4779120000000  0.4892260000000 1.0
C      1  0.4987760000000  0.5300050000000  0.4098490000000 1.0
C      1  0.5523830000000  0.4594480000000  0.5944890000000 1.0
C      1  0.4895530000000  0.4614490000000  0.4778850000000 1.0
C      1  0.5732340000000  0.4918940000000  0.4502560000000 1.0
C      1  0.4877350000000  0.4826510000000  0.4139980000000 1.0
C      1  0.5307450000000  0.4986030000000  0.4284720000000 1.0
C      1  0.5326340000000  0.4792170000000  0.5512230000000 1.0
C      1  0.4760590000000  0.4643810000000  0.4296270000000 1.0
C      1  0.4675480000000  0.5862210000000  0.4510810000000 1.0
C      1  0.4826710000000  0.5885600000000  0.4750830000000 1.0
C      1  0.4418300000000  0.5955110000000  0.4499670000000 1.0
END
