TITL C-612607-4507-509 0.0930650794618003 125000 -653.50179020502 0 0 108 (C1) n - 1
REM
REM in /home/nfs/bkarasulu/CARBON/AIRSS/Generating-Clusters/TERSOFF/Only-C1/FIRE-HFTN
REM
REM
REM
REM
REM
REM ./C.cell (11c1c37f851c82e70ff6c80c92926a4b)
REM AIRSS Version 0.9.1 bugfix July 2018 build 013d7b7c2542+ Fri, 06 Jul 2018 19:26:36 +0100
REM compiler GCC version 9.2.1 20190827 (Red Hat 9.2.1-1)
REM options -cpp -mtune=generic -march=x86-64 -g -O0 -fpre-include=/usr/include/finclude/math-vector-fortran.h
REM seed 407094196 -1092400421 1904895943 -189838824 -1544744904 830100438 1637308495 1224237354 -60228484 -1135629922 -505953595 -635414962 750071021 329871167 -183385303 513235599 -1723260897 -705763950 607076607 550097434 -372918380 -585124734 -1529556177 1779067383 -1222158487 -1717582605 -1312473114 355662234 -520369872 -1894641582 1009747364 764528397 -1120098464
REM
CELL 1.54180   50.00000   50.00000   50.00000   90.00000   90.00000   90.00000
LATT -1
SFAC C  
C      1  0.4367790000000  0.5598100000000  0.4617670000000 1.0
C      1  0.4977960000000  0.4950140000000  0.4568270000000 1.0
C      1  0.5594070000000  0.5054080000000  0.4642440000000 1.0
C      1  0.5255340000000  0.5012900000000  0.5230540000000 1.0
C      1  0.5954710000000  0.4763650000000  0.5157140000000 1.0
C      1  0.5064330000000  0.5208880000000  0.4527750000000 1.0
C      1  0.5622080000000  0.4423440000000  0.5212910000000 1.0
C      1  0.5040290000000  0.5436480000000  0.4404040000000 1.0
C      1  0.4904420000000  0.5049770000000  0.5597700000000 1.0
C      1  0.5954620000000  0.5180420000000  0.4939980000000 1.0
C      1  0.4785800000000  0.5835930000000  0.4299220000000 1.0
C      1  0.5095280000000  0.4530730000000  0.5353020000000 1.0
C      1  0.4391450000000  0.4408250000000  0.5067710000000 1.0
C      1  0.5934050000000  0.5452950000000  0.4867990000000 1.0
C      1  0.4578610000000  0.4981730000000  0.4277690000000 1.0
C      1  0.4893850000000  0.4002660000000  0.4347790000000 1.0
C      1  0.4559400000000  0.5784910000000  0.4721550000000 1.0
C      1  0.4500790000000  0.4271600000000  0.4557320000000 1.0
C      1  0.5319490000000  0.5311560000000  0.5610040000000 1.0
C      1  0.4784540000000  0.4637230000000  0.5802880000000 1.0
C      1  0.5532940000000  0.5415360000000  0.4221310000000 1.0
C      1  0.5512130000000  0.4962720000000  0.4385140000000 1.0
C      1  0.4191080000000  0.5399660000000  0.4759640000000 1.0
C      1  0.4413420000000  0.4485370000000  0.4388360000000 1.0
C      1  0.5252030000000  0.4725090000000  0.5184170000000 1.0
C      1  0.5460450000000  0.4587260000000  0.5030270000000 1.0
C      1  0.5394720000000  0.5162810000000  0.4195970000000 1.0
C      1  0.5025360000000  0.5409290000000  0.5046700000000 1.0
C      1  0.4674820000000  0.5356340000000  0.5961440000000 1.0
C      1  0.5011130000000  0.4069720000000  0.5026570000000 1.0
C      1  0.4952760000000  0.4420730000000  0.5888610000000 1.0
C      1  0.4644770000000  0.4067320000000  0.4421330000000 1.0
C      1  0.4916060000000  0.5670680000000  0.4991260000000 1.0
C      1  0.4893790000000  0.4895840000000  0.5841590000000 1.0
C      1  0.5152960000000  0.5507630000000  0.5742240000000 1.0
C      1  0.5830430000000  0.4574930000000  0.5333640000000 1.0
C      1  0.5171130000000  0.4538660000000  0.3905310000000 1.0
C      1  0.4114230000000  0.5317200000000  0.5036500000000 1.0
C      1  0.4655360000000  0.5081630000000  0.5449390000000 1.0
C      1  0.5227510000000  0.5839190000000  0.5363180000000 1.0
C      1  0.5161560000000  0.5101130000000  0.5492500000000 1.0
C      1  0.4447580000000  0.4708340000000  0.4235150000000 1.0
C      1  0.4316910000000  0.4829310000000  0.4871520000000 1.0
C      1  0.4521550000000  0.5344190000000  0.5404510000000 1.0
C      1  0.4960100000000  0.4540440000000  0.4844720000000 1.0
C      1  0.5434630000000  0.4697870000000  0.4303820000000 1.0
C      1  0.4432830000000  0.5240660000000  0.5907230000000 1.0
C      1  0.4641970000000  0.5759450000000  0.4991290000000 1.0
C      1  0.5154230000000  0.4061400000000  0.4346310000000 1.0
C      1  0.5144390000000  0.5009860000000  0.4083090000000 1.0
C      1  0.5439850000000  0.5262560000000  0.4781100000000 1.0
C      1  0.4605730000000  0.5660200000000  0.4193110000000 1.0
C      1  0.5320610000000  0.5272050000000  0.5060720000000 1.0
C      1  0.4844680000000  0.3969140000000  0.5234060000000 1.0
C      1  0.4133550000000  0.4920990000000  0.4679420000000 1.0
C      1  0.5046270000000  0.5809420000000  0.4763480000000 1.0
C      1  0.5437630000000  0.4222960000000  0.5308930000000 1.0
C      1  0.5637110000000  0.5546940000000  0.4457270000000 1.0
C      1  0.5089110000000  0.4705430000000  0.4653230000000 1.0
C      1  0.4820610000000  0.4435580000000  0.5391940000000 1.0
C      1  0.5848430000000  0.4984120000000  0.4750390000000 1.0
C      1  0.4494870000000  0.5777900000000  0.5223230000000 1.0
C      1  0.4141320000000  0.5093700000000  0.5484970000000 1.0
C      1  0.5810610000000  0.4672890000000  0.5599800000000 1.0
C      1  0.4936550000000  0.5431190000000  0.5924460000000 1.0
C      1  0.5571660000000  0.5346570000000  0.5465150000000 1.0
C      1  0.4696370000000  0.4933280000000  0.4553950000000 1.0
C      1  0.4770970000000  0.4719470000000  0.4962120000000 1.0
C      1  0.4815310000000  0.5857470000000  0.4580610000000 1.0
C      1  0.4374650000000  0.5210890000000  0.4336460000000 1.0
C      1  0.4826970000000  0.5219790000000  0.5022550000000 1.0
C      1  0.5455220000000  0.4475300000000  0.4479840000000 1.0
C      1  0.5895180000000  0.5536310000000  0.4592850000000 1.0
C      1  0.5243450000000  0.4727880000000  0.4086930000000 1.0
C      1  0.5448980000000  0.5540190000000  0.4675670000000 1.0
C      1  0.5493600000000  0.4526710000000  0.4756410000000 1.0
C      1  0.4299680000000  0.4713000000000  0.5159620000000 1.0
C      1  0.5264400000000  0.4340930000000  0.5506790000000 1.0
C      1  0.5525590000000  0.5489600000000  0.5197650000000 1.0
C      1  0.5788630000000  0.4939000000000  0.5654130000000 1.0
C      1  0.5359340000000  0.4224270000000  0.4397420000000 1.0
C      1  0.4534630000000  0.4815710000000  0.5390120000000 1.0
C      1  0.4235750000000  0.5125470000000  0.5754930000000 1.0
C      1  0.5322320000000  0.5755120000000  0.4829190000000 1.0
C      1  0.5939750000000  0.4738560000000  0.4868480000000 1.0
C      1  0.5791590000000  0.5575170000000  0.5079500000000 1.0
C      1  0.4794120000000  0.5750990000000  0.5575100000000 1.0
C      1  0.4585270000000  0.5234190000000  0.4932120000000 1.0
C      1  0.4582010000000  0.4834200000000  0.4787650000000 1.0
C      1  0.4866750000000  0.4273330000000  0.4878060000000 1.0
C      1  0.5289280000000  0.4077240000000  0.5104260000000 1.0
C      1  0.4659580000000  0.4609880000000  0.5542450000000 1.0
C      1  0.5027810000000  0.4953860000000  0.6078960000000 1.0
C      1  0.4180410000000  0.5172620000000  0.4559820000000 1.0
C      1  0.4056310000000  0.4891850000000  0.5275100000000 1.0
C      1  0.5075060000000  0.5731710000000  0.5578230000000 1.0
C      1  0.4846400000000  0.5036340000000  0.4103030000000 1.0
C      1  0.4437080000000  0.5493840000000  0.4347460000000 1.0
C      1  0.5173330000000  0.4309450000000  0.5772340000000 1.0
C      1  0.3940620000000  0.5076060000000  0.5069900000000 1.0
C      1  0.5168160000000  0.4971940000000  0.6297890000000 1.0
C      1  0.4587310000000  0.5621570000000  0.5439030000000 1.0
C      1  0.4250750000000  0.5311870000000  0.5304010000000 1.0
C      1  0.4749490000000  0.4160180000000  0.5399890000000 1.0
C      1  0.5784310000000  0.5143520000000  0.5454030000000 1.0
C      1  0.5931770000000  0.5062060000000  0.5211880000000 1.0
C      1  0.4565110000000  0.4286900000000  0.4844650000000 1.0
C      1  0.5366430000000  0.5745190000000  0.5131260000000 1.0
END
