TITL C-612604-1799-404 -0.0795954943837771 125000 -132.421958265984 0 0 23 (C1) n - 1
REM
REM in /home/nfs/bkarasulu/CARBON/AIRSS/Generating-Clusters/TERSOFF/Only-C1/FIRE-HFTN
REM
REM
REM
REM
REM
REM ./C.cell (11c1c37f851c82e70ff6c80c92926a4b)
REM AIRSS Version 0.9.1 bugfix July 2018 build 013d7b7c2542+ Fri, 06 Jul 2018 19:26:36 +0100
REM compiler GCC version 9.2.1 20190827 (Red Hat 9.2.1-1)
REM options -cpp -mtune=generic -march=x86-64 -g -O0 -fpre-include=/usr/include/finclude/math-vector-fortran.h
REM seed 827056192 594727004 -122755565 333363422 1959830609 193091115 -1051966636 2004527952 -1624617138 2102203324 1353035761 44264761 735498955 -348730696 285209856 -226357129 1473635159 -590996539 -1075882498 1515898770 1361578442 1189081355 608157799 1412075415 -970134403 -1576755227 -922484097 -2002466626 411165441 1414091160 -2075751521 -2074999503 -2110714032
REM
CELL 1.54180   50.00000   50.00000   50.00000   90.00000   90.00000   90.00000
LATT -1
SFAC C  
C      1  0.4359570000000  0.4717180000000  0.4249360000000 1.0
C      1  0.5290160000000  0.5009850000000  0.5853080000000 1.0
C      1  0.5002530000000  0.4939820000000  0.4885910000000 1.0
C      1  0.5317690000000  0.4677400000000  0.5474160000000 1.0
C      1  0.4134280000000  0.4796430000000  0.4134390000000 1.0
C      1  0.4920330000000  0.4753850000000  0.4694480000000 1.0
C      1  0.4584680000000  0.4642020000000  0.4366990000000 1.0
C      1  0.4865240000000  0.5284070000000  0.5208130000000 1.0
C      1  0.4954850000000  0.4346180000000  0.4443840000000 1.0
C      1  0.4629170000000  0.5235230000000  0.4793950000000 1.0
C      1  0.5212620000000  0.5433140000000  0.5577090000000 1.0
C      1  0.5460580000000  0.5100180000000  0.4951160000000 1.0
C      1  0.5248900000000  0.5269290000000  0.5802140000000 1.0
C      1  0.5296650000000  0.4728030000000  0.5213450000000 1.0
C      1  0.4983440000000  0.5394890000000  0.5418960000000 1.0
C      1  0.4821520000000  0.4578000000000  0.4501100000000 1.0
C      1  0.3912700000000  0.4874850000000  0.4021620000000 1.0
C      1  0.5580210000000  0.5501410000000  0.5233080000000 1.0
C      1  0.5259150000000  0.4912420000000  0.5005410000000 1.0
C      1  0.5584870000000  0.5320650000000  0.5036000000000 1.0
C      1  0.5316540000000  0.4779010000000  0.5720930000000 1.0
C      1  0.4829340000000  0.5153680000000  0.4962360000000 1.0
C      1  0.5434970000000  0.5552440000000  0.5452430000000 1.0
END
