TITL C-612603-7354-52 0.00157578543464036 125000 -427.99151866592 0 0 71 (C1) n - 1
REM
REM in /home/nfs/bkarasulu/CARBON/AIRSS/Generating-Clusters/TERSOFF/Only-C1/FIRE-HFTN
REM
REM
REM
REM
REM
REM ./C.cell (11c1c37f851c82e70ff6c80c92926a4b)
REM AIRSS Version 0.9.1 bugfix July 2018 build 013d7b7c2542+ Fri, 06 Jul 2018 19:26:36 +0100
REM compiler GCC version 9.2.1 20190827 (Red Hat 9.2.1-1)
REM options -cpp -mtune=generic -march=x86-64 -g -O0 -fpre-include=/usr/include/finclude/math-vector-fortran.h
REM seed 1955662257 -2020089930 1381561663 2062781521 713223058 1660902869 2001047127 -1843109838 1292465297 -1827202667 2029087750 2116960652 1893695800 -1011064478 -39222592 -631729462 569879612 439667646 -308143550 568510623 -1072991593 -1817559754 1214539414 -944114808 -256754845 -2049293500 -688826428 1100023576 -1006321019 -1927255283 401992283 1497457075 -1985855294
REM
CELL 1.54180   50.00000   50.00000   50.00000   90.00000   90.00000   90.00000
LATT -1
SFAC C  
C      1  0.5690850000000  0.5010060000000  0.5390960000000 1.0
C      1  0.4984980000000  0.4531740000000  0.4103920000000 1.0
C      1  0.5693930000000  0.5466620000000  0.5242020000000 1.0
C      1  0.5660520000000  0.4742870000000  0.5281970000000 1.0
C      1  0.5099460000000  0.5437480000000  0.4950180000000 1.0
C      1  0.4498740000000  0.4326860000000  0.4543910000000 1.0
C      1  0.5301440000000  0.4368830000000  0.5449100000000 1.0
C      1  0.4513900000000  0.4862410000000  0.5685080000000 1.0
C      1  0.4909560000000  0.4624290000000  0.3858040000000 1.0
C      1  0.4836960000000  0.5238400000000  0.4535370000000 1.0
C      1  0.4844400000000  0.4217640000000  0.4882230000000 1.0
C      1  0.4185220000000  0.5024970000000  0.5135230000000 1.0
C      1  0.4427780000000  0.5018920000000  0.4296510000000 1.0
C      1  0.4287850000000  0.4801500000000  0.5550110000000 1.0
C      1  0.5025640000000  0.5890600000000  0.4743780000000 1.0
C      1  0.4856770000000  0.5759100000000  0.5209460000000 1.0
C      1  0.5285010000000  0.5558170000000  0.4411170000000 1.0
C      1  0.4792250000000  0.5812260000000  0.4923630000000 1.0
C      1  0.4491960000000  0.4821140000000  0.4787810000000 1.0
C      1  0.5384950000000  0.4289230000000  0.4320960000000 1.0
C      1  0.4687970000000  0.5710720000000  0.5431600000000 1.0
C      1  0.5764370000000  0.5195560000000  0.5159030000000 1.0
C      1  0.4572570000000  0.4271030000000  0.4814180000000 1.0
C      1  0.5540840000000  0.4518870000000  0.5406490000000 1.0
C      1  0.4789270000000  0.4884100000000  0.5584930000000 1.0
C      1  0.4211480000000  0.4779520000000  0.5277780000000 1.0
C      1  0.5350500000000  0.5505030000000  0.4843640000000 1.0
C      1  0.4409230000000  0.5445870000000  0.4943030000000 1.0
C      1  0.5013270000000  0.5022120000000  0.4486010000000 1.0
C      1  0.4297670000000  0.5284430000000  0.5150270000000 1.0
C      1  0.4791290000000  0.4876070000000  0.5286490000000 1.0
C      1  0.5710840000000  0.5050500000000  0.4903650000000 1.0
C      1  0.4896820000000  0.4801530000000  0.5037300000000 1.0
C      1  0.5116740000000  0.4898720000000  0.5773510000000 1.0
C      1  0.5096870000000  0.5752090000000  0.4490330000000 1.0
C      1  0.5682960000000  0.5709200000000  0.5098010000000 1.0
C      1  0.4861150000000  0.4526040000000  0.5611250000000 1.0
C      1  0.4386670000000  0.4346480000000  0.5014150000000 1.0
C      1  0.5258360000000  0.5121840000000  0.5704400000000 1.0
C      1  0.4554490000000  0.4527580000000  0.4352020000000 1.0
C      1  0.4646710000000  0.5565120000000  0.4843660000000 1.0
C      1  0.5256570000000  0.5064110000000  0.5148220000000 1.0
C      1  0.5461070000000  0.5756630000000  0.4932210000000 1.0
C      1  0.5414990000000  0.4305830000000  0.4584790000000 1.0
C      1  0.5190910000000  0.4220010000000  0.5236580000000 1.0
C      1  0.5441110000000  0.5395040000000  0.4598990000000 1.0
C      1  0.5215900000000  0.5502440000000  0.5439250000000 1.0
C      1  0.5272510000000  0.5965470000000  0.4882650000000 1.0
C      1  0.5127450000000  0.4448730000000  0.5658310000000 1.0
C      1  0.5110290000000  0.4265350000000  0.4969960000000 1.0
C      1  0.4810650000000  0.5259160000000  0.5605960000000 1.0
C      1  0.4760240000000  0.4768930000000  0.4794210000000 1.0
C      1  0.4833700000000  0.4592750000000  0.4335630000000 1.0
C      1  0.5069850000000  0.5566420000000  0.5207380000000 1.0
C      1  0.5171680000000  0.4842000000000  0.5016860000000 1.0
C      1  0.4246830000000  0.4530560000000  0.5149790000000 1.0
C      1  0.5218080000000  0.4649950000000  0.5837220000000 1.0
C      1  0.4370460000000  0.5361000000000  0.5412830000000 1.0
C      1  0.5372110000000  0.4675200000000  0.4905140000000 1.0
C      1  0.5629570000000  0.4773580000000  0.4987150000000 1.0
C      1  0.5518310000000  0.5158340000000  0.5576370000000 1.0
C      1  0.5216380000000  0.4377530000000  0.4134800000000 1.0
C      1  0.5624430000000  0.5181970000000  0.4659840000000 1.0
C      1  0.5078720000000  0.5332500000000  0.5625070000000 1.0
C      1  0.5498000000000  0.5434940000000  0.5452100000000 1.0
C      1  0.4590560000000  0.5213520000000  0.4391850000000 1.0
C      1  0.4912810000000  0.4765740000000  0.4547370000000 1.0
C      1  0.5303400000000  0.4413940000000  0.4816060000000 1.0
C      1  0.4391180000000  0.4750130000000  0.4280770000000 1.0
C      1  0.4613700000000  0.5446910000000  0.5522200000000 1.0
C      1  0.4866280000000  0.5385780000000  0.4777320000000 1.0
END
