TITL C-612602-9376-585 53.6016368308376 125000 -856.12808778758 0 0 140 (C1) n - 1
REM
REM in /home/nfs/bkarasulu/CARBON/AIRSS/Generating-Clusters/TERSOFF/Only-C1/FIRE-HFTN
REM
REM
REM
REM
REM
REM ./C.cell (11c1c37f851c82e70ff6c80c92926a4b)
REM AIRSS Version 0.9.1 bugfix July 2018 build 013d7b7c2542+ Fri, 06 Jul 2018 19:26:36 +0100
REM compiler GCC version 9.2.1 20190827 (Red Hat 9.2.1-1)
REM options -cpp -mtune=generic -march=x86-64 -g -O0 -fpre-include=/usr/include/finclude/math-vector-fortran.h
REM seed -164180701 1405352458 -460064503 2120167848 -150651760 1400000510 876004949 1356754836 750418182 -1956060452 -1746299357 -1901511863 150952617 -1338648687 1759028733 1727801552 -1432077019 -1320739588 -2060653669 241844854 1061218410 -1001179047 1293441695 1643410114 -166626121 1686462954 2066454347 545116145 -1953551947 1360658357 -1417415553 -418372165 -46149478
REM
CELL 1.54180   50.00000   50.00000   50.00000   90.00000   90.00000   90.00000
LATT -1
SFAC C  
C      1  0.5051030000000  0.4910290000000  0.5663050000000 1.0
C      1  0.4545420000000  0.5533980000000  0.6014980000000 1.0
C      1  0.5052200000000  0.4625620000000  0.4196070000000 1.0
C      1  0.4517440000000  0.5826090000000  0.5653130000000 1.0
C      1  0.4685890000000  0.5974840000000  0.5449980000000 1.0
C      1  0.5421860000000  0.4155700000000  0.4986020000000 1.0
C      1  0.5726210000000  0.4650900000000  0.5675290000000 1.0
C      1  0.5509690000000  0.5198360000000  0.5419800000000 1.0
C      1  0.4568390000000  0.5968470000000  0.4907170000000 1.0
C      1  0.4321670000000  0.4613920000000  0.4560240000000 1.0
C      1  0.4010180000000  0.5123510000000  0.4950390000000 1.0
C      1  0.4599230000000  0.4336070000000  0.5703820000000 1.0
C      1  0.5596080000000  0.4235310000000  0.5435710000000 1.0
C      1  0.5140370000000  0.5035230000000  0.5125890000000 1.0
C      1  0.4411290000000  0.4318750000000  0.5490430000000 1.0
C      1  0.4077620000000  0.4910190000000  0.5441070000000 1.0
C      1  0.5997310000000  0.4807880000000  0.5161390000000 1.0
C      1  0.4104600000000  0.4616240000000  0.5786860000000 1.0
C      1  0.4808220000000  0.4606290000000  0.4993220000000 1.0
C      1  0.4663430000000  0.5215440000000  0.4032130000000 1.0
C      1  0.6064910000000  0.5001250000000  0.4679390000000 1.0
C      1  0.6076190000000  0.5099370000000  0.4967430000000 1.0
C      1  0.5379120000000  0.4965090000000  0.4223270000000 1.0
C      1  0.4633150000000  0.5597740000000  0.5207740000000 1.0
C      1  0.6007600000000  0.5383540000000  0.5004970000000 1.0
C      1  0.5488570000000  0.5855430000000  0.5305320000000 1.0
C      1  0.5340100000000  0.4844010000000  0.4650830000000 1.0
C      1  0.4636490000000  0.5494380000000  0.4067660000000 1.0
C      1  0.5857280000000  0.4798110000000  0.4703290000000 1.0
C      1  0.5239490000000  0.4605660000000  0.4754100000000 1.0
C      1  0.5601980000000  0.5238670000000  0.4724250000000 1.0
C      1  0.4971310000000  0.5478220000000  0.4819960000000 1.0
C      1  0.5052590000000  0.5453730000000  0.4554650000000 1.0
C      1  0.5927190000000  0.5339860000000  0.5592730000000 1.0
C      1  0.5176440000000  0.5886880000000  0.4923750000000 1.0
C      1  0.4594300000000  0.4756850000000  0.4171200000000 1.0
C      1  0.5394660000000  0.4846540000000  0.6003720000000 1.0
C      1  0.4975020000000  0.5177440000000  0.5584800000000 1.0
C      1  0.4087260000000  0.5300040000000  0.4353770000000 1.0
C      1  0.5570560000000  0.4395110000000  0.5664730000000 1.0
C      1  0.5595120000000  0.5586540000000  0.4400970000000 1.0
C      1  0.4430530000000  0.5703510000000  0.4459260000000 1.0
C      1  0.5862210000000  0.4986340000000  0.4205790000000 1.0
C      1  0.5049830000000  0.5656370000000  0.5021880000000 1.0
C      1  0.4341380000000  0.5483610000000  0.5128840000000 1.0
C      1  0.5395610000000  0.5773440000000  0.4502570000000 1.0
C      1  0.4297280000000  0.5625410000000  0.5639060000000 1.0
C      1  0.5857070000000  0.4332230000000  0.4773910000000 1.0
C      1  0.4963300000000  0.3960630000000  0.4720570000000 1.0
C      1  0.4932800000000  0.5565550000000  0.5275490000000 1.0
C      1  0.5378460000000  0.4375950000000  0.4817890000000 1.0
C      1  0.4067120000000  0.4643510000000  0.5021520000000 1.0
C      1  0.4069200000000  0.4494600000000  0.6027910000000 1.0
C      1  0.5613960000000  0.5131100000000  0.4190830000000 1.0
C      1  0.5112580000000  0.4292190000000  0.5317180000000 1.0
C      1  0.5000610000000  0.3882100000000  0.5483460000000 1.0
C      1  0.4072980000000  0.4640870000000  0.5312680000000 1.0
C      1  0.4811880000000  0.5271120000000  0.4907700000000 1.0
C      1  0.4903030000000  0.5821350000000  0.4308900000000 1.0
C      1  0.4586940000000  0.4221130000000  0.4496600000000 1.0
C      1  0.5564260000000  0.4898120000000  0.5043190000000 1.0
C      1  0.4692140000000  0.5749610000000  0.5885740000000 1.0
C      1  0.5352810000000  0.3883730000000  0.4949650000000 1.0
C      1  0.5774970000000  0.5117800000000  0.5501310000000 1.0
C      1  0.5448950000000  0.5326970000000  0.4950060000000 1.0
C      1  0.5425270000000  0.5867940000000  0.4783600000000 1.0
C      1  0.5077960000000  0.4729760000000  0.5435610000000 1.0
C      1  0.5588380000000  0.4577480000000  0.4080320000000 1.0
C      1  0.5065040000000  0.4495980000000  0.5900480000000 1.0
C      1  0.4972940000000  0.3784680000000  0.5227690000000 1.0
C      1  0.4469900000000  0.5002970000000  0.4915470000000 1.0
C      1  0.5827500000000  0.5594340000000  0.5584530000000 1.0
C      1  0.4191910000000  0.5559320000000  0.5386610000000 1.0
C      1  0.4228470000000  0.5646380000000  0.4896640000000 1.0
C      1  0.4632820000000  0.5141060000000  0.4737820000000 1.0
C      1  0.5600820000000  0.4935220000000  0.4746940000000 1.0
C      1  0.4949840000000  0.5864040000000  0.5817620000000 1.0
C      1  0.4533170000000  0.5046380000000  0.5486340000000 1.0
C      1  0.5006510000000  0.5190340000000  0.4457330000000 1.0
C      1  0.5069860000000  0.3827010000000  0.4961990000000 1.0
C      1  0.5388130000000  0.4230640000000  0.5247420000000 1.0
C      1  0.5630280000000  0.5796860000000  0.4985750000000 1.0
C      1  0.5091060000000  0.4140690000000  0.5569230000000 1.0
C      1  0.4565880000000  0.4115440000000  0.4990380000000 1.0
C      1  0.5918440000000  0.4592990000000  0.4887460000000 1.0
C      1  0.4647660000000  0.5701510000000  0.4267390000000 1.0
C      1  0.4789170000000  0.4426700000000  0.5872180000000 1.0
C      1  0.5128380000000  0.5236810000000  0.3885920000000 1.0
C      1  0.4072680000000  0.4909550000000  0.5737380000000 1.0
C      1  0.4508500000000  0.5025920000000  0.5766130000000 1.0
C      1  0.5565490000000  0.5658290000000  0.5494740000000 1.0
C      1  0.4309210000000  0.5427050000000  0.5865380000000 1.0
C      1  0.5737440000000  0.5469360000000  0.4621700000000 1.0
C      1  0.5140900000000  0.4776440000000  0.5900150000000 1.0
C      1  0.5833960000000  0.5594330000000  0.4880760000000 1.0
C      1  0.4172130000000  0.4475430000000  0.5529940000000 1.0
C      1  0.4621840000000  0.5897990000000  0.5179290000000 1.0
C      1  0.6064830000000  0.5061900000000  0.4398370000000 1.0
C      1  0.4250790000000  0.5128680000000  0.5854010000000 1.0
C      1  0.5185970000000  0.4021890000000  0.4530170000000 1.0
C      1  0.4059720000000  0.5034180000000  0.4365920000000 1.0
C      1  0.5222980000000  0.5013140000000  0.4454470000000 1.0
C      1  0.4476830000000  0.4191100000000  0.5238120000000 1.0
C      1  0.4951290000000  0.4535230000000  0.5251540000000 1.0
C      1  0.3915000000000  0.4868010000000  0.4924070000000 1.0
C      1  0.4862040000000  0.4773870000000  0.4019590000000 1.0
C      1  0.4139260000000  0.4786300000000  0.4429380000000 1.0
C      1  0.5862270000000  0.4834390000000  0.5453830000000 1.0
C      1  0.4899720000000  0.5066870000000  0.3925780000000 1.0
C      1  0.4280330000000  0.5182340000000  0.5074130000000 1.0
C      1  0.5317530000000  0.5412500000000  0.3979430000000 1.0
C      1  0.5334130000000  0.4691230000000  0.4141480000000 1.0
C      1  0.3958260000000  0.5683950000000  0.4869560000000 1.0
C      1  0.4305870000000  0.4589660000000  0.4855170000000 1.0
C      1  0.5235460000000  0.5989890000000  0.5396780000000 1.0
C      1  0.4419150000000  0.5792870000000  0.4735120000000 1.0
C      1  0.4894950000000  0.4563620000000  0.4460300000000 1.0
C      1  0.4591590000000  0.4527350000000  0.4405450000000 1.0
C      1  0.5538900000000  0.5410650000000  0.4169260000000 1.0
C      1  0.5414010000000  0.5123880000000  0.5155880000000 1.0
C      1  0.4960370000000  0.4583390000000  0.4741030000000 1.0
C      1  0.4728600000000  0.5107200000000  0.4481450000000 1.0
C      1  0.5242630000000  0.4309820000000  0.5767340000000 1.0
C      1  0.5126270000000  0.5697960000000  0.4429920000000 1.0
C      1  0.5701130000000  0.4180890000000  0.4598160000000 1.0
C      1  0.5532170000000  0.4672190000000  0.5195480000000 1.0
C      1  0.5825800000000  0.4715030000000  0.4111060000000 1.0
C      1  0.5644340000000  0.4799150000000  0.5909740000000 1.0
C      1  0.4540180000000  0.4723020000000  0.4964410000000 1.0
C      1  0.4293130000000  0.5061890000000  0.5343560000000 1.0
C      1  0.4578070000000  0.5040410000000  0.4250600000000 1.0
C      1  0.4697740000000  0.4084340000000  0.4731090000000 1.0
C      1  0.5458430000000  0.4080200000000  0.4501290000000 1.0
C      1  0.5093400000000  0.5429560000000  0.5493040000000 1.0
C      1  0.5352880000000  0.4679690000000  0.5390950000000 1.0
C      1  0.4978000000000  0.5981420000000  0.5545000000000 1.0
C      1  0.4211390000000  0.5535310000000  0.4382370000000 1.0
C      1  0.4882420000000  0.5125570000000  0.5131980000000 1.0
C      1  0.4771540000000  0.5127970000000  0.5385810000000 1.0
C      1  0.5381710000000  0.5437840000000  0.5510570000000 1.0
END
