TITL C-612604-1799-981 70150.8488713299 125000 -935.799476503938 0 0 154 (C1) n - 1
REM
REM in /home/nfs/bkarasulu/CARBON/AIRSS/Generating-Clusters/TERSOFF/Only-C1/FIRE-HFTN
REM
REM
REM
REM
REM
REM ./C.cell (11c1c37f851c82e70ff6c80c92926a4b)
REM AIRSS Version 0.9.1 bugfix July 2018 build 013d7b7c2542+ Fri, 06 Jul 2018 19:26:36 +0100
REM compiler GCC version 9.2.1 20190827 (Red Hat 9.2.1-1)
REM options -cpp -mtune=generic -march=x86-64 -g -O0 -fpre-include=/usr/include/finclude/math-vector-fortran.h
REM seed -978080461 -1646596469 -888934297 2052558873 -441116937 -117010379 1680554625 -1090491911 -1073615040 -869264949 872270679 -2095571682 -1470123260 -1506888309 1139661831 -503112754 1708678905 -1160019362 140351182 -809702759 1849456647 -1796244558 -615440740 653751097 -817877675 825530167 -687981628 -1884094561 1221414657 -88119981 124910957 -1741438966 760044726
REM
CELL 1.54180   50.00000   50.00000   50.00000   90.00000   90.00000   90.00000
LATT -1
SFAC C  
C      1  0.4164700000000  0.4736750000000  0.4816640000000 1.0
C      1  0.4540590000000  0.5213590000000  0.4275550000000 1.0
C      1  0.4696900000000  0.4869310000000  0.4571870000000 1.0
C      1  0.4007070000000  0.5568150000000  0.5520180000000 1.0
C      1  0.5945110000000  0.4434330000000  0.4489260000000 1.0
C      1  0.4951990000000  0.5184490000000  0.3963280000000 1.0
C      1  0.4876860000000  0.4862130000000  0.4330080000000 1.0
C      1  0.5825570000000  0.5554520000000  0.4394880000000 1.0
C      1  0.6008020000000  0.4743200000000  0.5442370000000 1.0
C      1  0.4400340000000  0.4131910000000  0.5960210000000 1.0
C      1  0.5520900000000  0.4212710000000  0.4937320000000 1.0
C      1  0.4658080000000  0.5363970000000  0.5625450000000 1.0
C      1  0.5186330000000  0.4956890000000  0.6157460000000 1.0
C      1  0.5301850000000  0.6092840000000  0.4422640000000 1.0
C      1  0.5549610000000  0.5261470000000  0.4939660000000 1.0
C      1  0.4413210000000  0.4121800000000  0.4968340000000 1.0
C      1  0.4773760000000  0.5093540000000  0.4159790000000 1.0
C      1  0.5797970000000  0.4253190000000  0.4986000000000 1.0
C      1  0.4067690000000  0.5376580000000  0.5731100000000 1.0
C      1  0.4456180000000  0.5494320000000  0.4265720000000 1.0
C      1  0.5805510000000  0.5266480000000  0.4392390000000 1.0
C      1  0.5354110000000  0.4008740000000  0.4851710000000 1.0
C      1  0.4956670000000  0.5675010000000  0.6115060000000 1.0
C      1  0.5284940000000  0.4470090000000  0.5822700000000 1.0
C      1  0.4909600000000  0.5380750000000  0.5504280000000 1.0
C      1  0.4639250000000  0.6690310000000  0.5600360000000 1.0
C      1  0.5378020000000  0.5493860000000  0.4410670000000 1.0
C      1  0.5296190000000  0.5279930000000  0.6057310000000 1.0
C      1  0.4207330000000  0.4263540000000  0.4837560000000 1.0
C      1  0.4360670000000  0.5756120000000  0.5736850000000 1.0
C      1  0.4230650000000  0.4493200000000  0.4651300000000 1.0
C      1  0.4449780000000  0.4419390000000  0.5561620000000 1.0
C      1  0.4844220000000  0.4711250000000  0.5553990000000 1.0
C      1  0.4035750000000  0.4640430000000  0.5074560000000 1.0
C      1  0.6273550000000  0.4668020000000  0.5394120000000 1.0
C      1  0.4988240000000  0.4106980000000  0.5535260000000 1.0
C      1  0.4679920000000  0.4400030000000  0.4090420000000 1.0
C      1  0.5044300000000  0.4325450000000  0.3746180000000 1.0
C      1  0.5579440000000  0.5612630000000  0.4225090000000 1.0
C      1  0.4858420000000  0.4458020000000  0.4825730000000 1.0
C      1  0.5136520000000  0.4700970000000  0.6052520000000 1.0
C      1  0.5947760000000  0.5270320000000  0.5304390000000 1.0
C      1  0.5398320000000  0.3836250000000  0.5565280000000 1.0
C      1  0.4551060000000  0.5347260000000  0.4724080000000 1.0
C      1  0.5268940000000  0.5243700000000  0.4945830000000 1.0
C      1  0.5512550000000  0.5235730000000  0.4441840000000 1.0
C      1  0.5537860000000  0.6074870000000  0.4552460000000 1.0
C      1  0.5488880000000  0.4437510000000  0.3919460000000 1.0
C      1  0.5274780000000  0.4608380000000  0.5126250000000 1.0
C      1  0.4848850000000  0.5869730000000  0.4249100000000 1.0
C      1  0.4851290000000  0.4641310000000  0.6036810000000 1.0
C      1  0.3987790000000  0.4940790000000  0.4149360000000 1.0
C      1  0.5198570000000  0.4838340000000  0.5257510000000 1.0
C      1  0.4291460000000  0.5849020000000  0.5212070000000 1.0
C      1  0.5627910000000  0.5028040000000  0.5082060000000 1.0
C      1  0.5727840000000  0.5924620000000  0.4675100000000 1.0
C      1  0.5066970000000  0.5424450000000  0.6167820000000 1.0
C      1  0.5835010000000  0.4846280000000  0.4135140000000 1.0
C      1  0.3995790000000  0.4356400000000  0.5011470000000 1.0
C      1  0.5941130000000  0.4327870000000  0.4743300000000 1.0
C      1  0.4305540000000  0.5490740000000  0.5873610000000 1.0
C      1  0.4806140000000  0.4389460000000  0.5898250000000 1.0
C      1  0.5144270000000  0.5459010000000  0.5629460000000 1.0
C      1  0.5553870000000  0.4858670000000  0.5718070000000 1.0
C      1  0.5624540000000  0.5321070000000  0.5659860000000 1.0
C      1  0.3800810000000  0.4093100000000  0.5666580000000 1.0
C      1  0.5170700000000  0.3911810000000  0.5435980000000 1.0
C      1  0.3956570000000  0.5205270000000  0.4199290000000 1.0
C      1  0.5175500000000  0.5104870000000  0.5171100000000 1.0
C      1  0.5433320000000  0.5763820000000  0.5098700000000 1.0
C      1  0.4554240000000  0.5340710000000  0.5902010000000 1.0
C      1  0.5287200000000  0.4257400000000  0.3881730000000 1.0
C      1  0.5736700000000  0.5455660000000  0.5426330000000 1.0
C      1  0.4905960000000  0.5195070000000  0.6228260000000 1.0
C      1  0.5952080000000  0.5074000000000  0.4256520000000 1.0
C      1  0.5572360000000  0.4578230000000  0.5664000000000 1.0
C      1  0.5105630000000  0.4821630000000  0.5525830000000 1.0
C      1  0.4757300000000  0.5159330000000  0.5067900000000 1.0
C      1  0.4367150000000  0.6112370000000  0.5184430000000 1.0
C      1  0.5073670000000  0.5375640000000  0.4777570000000 1.0
C      1  0.4559480000000  0.5931000000000  0.5842200000000 1.0
C      1  0.4016670000000  0.5351870000000  0.4435460000000 1.0
C      1  0.5486400000000  0.4704430000000  0.3815170000000 1.0
C      1  0.5286810000000  0.4975750000000  0.5690650000000 1.0
C      1  0.5595550000000  0.5662030000000  0.5290330000000 1.0
C      1  0.5813030000000  0.5652580000000  0.4668510000000 1.0
C      1  0.5046410000000  0.4295030000000  0.5751050000000 1.0
C      1  0.4218640000000  0.5759880000000  0.5474770000000 1.0
C      1  0.4742750000000  0.4100710000000  0.5377900000000 1.0
C      1  0.4474450000000  0.4964030000000  0.5470920000000 1.0
C      1  0.3969550000000  0.4904500000000  0.5510000000000 1.0
C      1  0.4681300000000  0.4871730000000  0.5968940000000 1.0
C      1  0.4773770000000  0.5833240000000  0.5999650000000 1.0
C      1  0.4168480000000  0.4456820000000  0.5509150000000 1.0
C      1  0.4428760000000  0.4369200000000  0.4212020000000 1.0
C      1  0.4749510000000  0.4726520000000  0.4812020000000 1.0
C      1  0.4799970000000  0.5329290000000  0.4842810000000 1.0
C      1  0.4351470000000  0.5557170000000  0.4729870000000 1.0
C      1  0.5994480000000  0.5285140000000  0.5014340000000 1.0
C      1  0.5491400000000  0.5195460000000  0.3929820000000 1.0
C      1  0.4547010000000  0.6204660000000  0.5787170000000 1.0
C      1  0.6034020000000  0.5040740000000  0.4861820000000 1.0
C      1  0.4465390000000  0.5241200000000  0.5452150000000 1.0
C      1  0.5091360000000  0.3802570000000  0.5181620000000 1.0
C      1  0.5414510000000  0.4985550000000  0.4483640000000 1.0
C      1  0.4643360000000  0.5700330000000  0.4211850000000 1.0
C      1  0.5017580000000  0.3541090000000  0.5152040000000 1.0
C      1  0.5854490000000  0.4886590000000  0.4722580000000 1.0
C      1  0.5337900000000  0.5282240000000  0.5760310000000 1.0
C      1  0.4236710000000  0.5540450000000  0.4456550000000 1.0
C      1  0.5095150000000  0.3985950000000  0.4958320000000 1.0
C      1  0.5082290000000  0.4553490000000  0.3576830000000 1.0
C      1  0.5393270000000  0.4462540000000  0.4925000000000 1.0
C      1  0.5749880000000  0.5058460000000  0.5680450000000 1.0
C      1  0.5310670000000  0.5758130000000  0.4855720000000 1.0
C      1  0.4884890000000  0.4189260000000  0.4933460000000 1.0
C      1  0.5592350000000  0.4818230000000  0.4622580000000 1.0
C      1  0.4580390000000  0.6455120000000  0.5707540000000 1.0
C      1  0.5618310000000  0.4921400000000  0.3948950000000 1.0
C      1  0.5779830000000  0.5439320000000  0.4874570000000 1.0
C      1  0.5208240000000  0.5194340000000  0.3888620000000 1.0
C      1  0.4003850000000  0.5180150000000  0.4664520000000 1.0
C      1  0.4647200000000  0.4557130000000  0.5395210000000 1.0
C      1  0.4677670000000  0.5137630000000  0.6076580000000 1.0
C      1  0.4709440000000  0.6912350000000  0.5483140000000 1.0
C      1  0.4056370000000  0.4681990000000  0.5358790000000 1.0
C      1  0.4545600000000  0.4309540000000  0.5811470000000 1.0
C      1  0.5595470000000  0.5470950000000  0.3965680000000 1.0
C      1  0.4795350000000  0.4271870000000  0.3867800000000 1.0
C      1  0.4648690000000  0.4878190000000  0.5691930000000 1.0
C      1  0.4288800000000  0.5690860000000  0.4972030000000 1.0
C      1  0.5287430000000  0.4731300000000  0.3611290000000 1.0
C      1  0.4528740000000  0.4780520000000  0.5250040000000 1.0
C      1  0.4216370000000  0.4992070000000  0.4698180000000 1.0
C      1  0.5066310000000  0.6011030000000  0.4320690000000 1.0
C      1  0.5462700000000  0.4588210000000  0.4692680000000 1.0
C      1  0.4235680000000  0.4507710000000  0.4365490000000 1.0
C      1  0.4075590000000  0.4699640000000  0.4229220000000 1.0
C      1  0.5894390000000  0.4595190000000  0.4271620000000 1.0
C      1  0.5222260000000  0.5581790000000  0.4640440000000 1.0
C      1  0.5823580000000  0.5722250000000  0.3544840000000 1.0
C      1  0.6517960000000  0.4601480000000  0.5332920000000 1.0
C      1  0.3987630000000  0.5111490000000  0.5680810000000 1.0
C      1  0.4660980000000  0.4122720000000  0.5103940000000 1.0
C      1  0.4482700000000  0.5090090000000  0.4563720000000 1.0
C      1  0.5712420000000  0.5601120000000  0.3747020000000 1.0
C      1  0.3985910000000  0.4264700000000  0.5601620000000 1.0
C      1  0.5159960000000  0.4904480000000  0.4405000000000 1.0
C      1  0.4938570000000  0.5225880000000  0.5272500000000 1.0
C      1  0.4838350000000  0.4606010000000  0.4194590000000 1.0
C      1  0.4672960000000  0.4885690000000  0.5036800000000 1.0
C      1  0.5800380000000  0.4529390000000  0.5467260000000 1.0
C      1  0.5837550000000  0.4332310000000  0.5259780000000 1.0
C      1  0.5944560000000  0.5020630000000  0.5472740000000 1.0
END
