TITL C-612606-7351-438 1.53058901329951 125000 -377.249617382853 0 0 62 (C1) n - 1
REM
REM in /home/nfs/bkarasulu/CARBON/AIRSS/Generating-Clusters/TERSOFF/Only-C1/FIRE-HFTN
REM
REM
REM
REM
REM
REM ./C.cell (11c1c37f851c82e70ff6c80c92926a4b)
REM AIRSS Version 0.9.1 bugfix July 2018 build 013d7b7c2542+ Fri, 06 Jul 2018 19:26:36 +0100
REM compiler GCC version 9.2.1 20190827 (Red Hat 9.2.1-1)
REM options -cpp -mtune=generic -march=x86-64 -g -O0 -fpre-include=/usr/include/finclude/math-vector-fortran.h
REM seed -667063904 -1101174240 -167232135 -1274383109 1773563694 891758315 -2117507290 -1590013963 18512758 -331619141 929393195 -1347916484 359570602 -1497984978 1375798306 -193836117 -2049141216 634041883 351938613 -1871847513 2062124913 -1265999731 -1317124593 1139674653 972352313 -289035691 -1320925424 -2126978205 2053341766 476823000 432997941 2114684897 -165572231
REM
CELL 1.54180   50.00000   50.00000   50.00000   90.00000   90.00000   90.00000
LATT -1
SFAC C  
C      1  0.5224730000000  0.5340930000000  0.6083630000000 1.0
C      1  0.4805980000000  0.5394340000000  0.4917820000000 1.0
C      1  0.4612260000000  0.4940070000000  0.4968440000000 1.0
C      1  0.4968060000000  0.5335350000000  0.5518070000000 1.0
C      1  0.4264050000000  0.4649050000000  0.5393050000000 1.0
C      1  0.4808110000000  0.4834440000000  0.5155470000000 1.0
C      1  0.4366090000000  0.4369200000000  0.3590070000000 1.0
C      1  0.4657400000000  0.5176900000000  0.4817230000000 1.0
C      1  0.5514400000000  0.5570900000000  0.5628610000000 1.0
C      1  0.5187150000000  0.5714460000000  0.5100390000000 1.0
C      1  0.4394500000000  0.4894510000000  0.3615250000000 1.0
C      1  0.4500490000000  0.5220260000000  0.4298780000000 1.0
C      1  0.4595350000000  0.4243460000000  0.3691890000000 1.0
C      1  0.3968210000000  0.4020910000000  0.4288420000000 1.0
C      1  0.5146880000000  0.5160640000000  0.5382520000000 1.0
C      1  0.5609520000000  0.4938660000000  0.5389460000000 1.0
C      1  0.5327900000000  0.5715950000000  0.5785170000000 1.0
C      1  0.3950920000000  0.4118080000000  0.3784520000000 1.0
C      1  0.5862210000000  0.5965050000000  0.5007630000000 1.0
C      1  0.4924820000000  0.4538080000000  0.5538480000000 1.0
C      1  0.5139320000000  0.4562200000000  0.5696250000000 1.0
C      1  0.5968320000000  0.5282810000000  0.5221290000000 1.0
C      1  0.4367850000000  0.4788870000000  0.4963340000000 1.0
C      1  0.4188250000000  0.4831650000000  0.5193390000000 1.0
C      1  0.5602780000000  0.5638940000000  0.5368040000000 1.0
C      1  0.5040770000000  0.4979710000000  0.5200840000000 1.0
C      1  0.5496150000000  0.5290990000000  0.5687260000000 1.0
C      1  0.5127690000000  0.5559830000000  0.5911970000000 1.0
C      1  0.4692880000000  0.5361430000000  0.5929880000000 1.0
C      1  0.4374170000000  0.4642670000000  0.3533110000000 1.0
C      1  0.4749540000000  0.4609270000000  0.5331650000000 1.0
C      1  0.4616860000000  0.4104550000000  0.4407700000000 1.0
C      1  0.4120620000000  0.4236450000000  0.3616820000000 1.0
C      1  0.5417860000000  0.5136530000000  0.5461300000000 1.0
C      1  0.4724310000000  0.4152160000000  0.3906030000000 1.0
C      1  0.5385580000000  0.4685930000000  0.5753380000000 1.0
C      1  0.3895890000000  0.4040270000000  0.4033080000000 1.0
C      1  0.4395650000000  0.4143940000000  0.4575270000000 1.0
C      1  0.4758570000000  0.5248920000000  0.6170590000000 1.0
C      1  0.6006800000000  0.5739760000000  0.5094660000000 1.0
C      1  0.4419510000000  0.4292040000000  0.4810140000000 1.0
C      1  0.6212330000000  0.5330130000000  0.5074550000000 1.0
C      1  0.6454070000000  0.5718270000000  0.4858260000000 1.0
C      1  0.4427570000000  0.4496400000000  0.4994590000000 1.0
C      1  0.5413170000000  0.5176870000000  0.5941950000000 1.0
C      1  0.4459220000000  0.5191830000000  0.4038300000000 1.0
C      1  0.5441560000000  0.5795100000000  0.5185210000000 1.0
C      1  0.4556640000000  0.5195000000000  0.4556600000000 1.0
C      1  0.5574840000000  0.4701400000000  0.5539010000000 1.0
C      1  0.5408100000000  0.4892280000000  0.5949420000000 1.0
C      1  0.5841880000000  0.5039710000000  0.5270990000000 1.0
C      1  0.6651390000000  0.5826890000000  0.4727180000000 1.0
C      1  0.4983470000000  0.5578330000000  0.4994490000000 1.0
C      1  0.4731340000000  0.4105120000000  0.4167730000000 1.0
C      1  0.5594090000000  0.5989610000000  0.5044560000000 1.0
C      1  0.4898710000000  0.5463510000000  0.5760240000000 1.0
C      1  0.5850680000000  0.5548360000000  0.5258640000000 1.0
C      1  0.5019540000000  0.5237580000000  0.6252200000000 1.0
C      1  0.4144900000000  0.4058440000000  0.4483650000000 1.0
C      1  0.4491180000000  0.4493360000000  0.5287030000000 1.0
C      1  0.6242920000000  0.5606750000000  0.4996510000000 1.0
C      1  0.4423950000000  0.5084890000000  0.3797990000000 1.0
END
