TITL C-612603-7354-417 3.11733654985316e-05 125000 -933.263307535567 0 0 156 (C1) n - 1
REM
REM in /home/nfs/bkarasulu/CARBON/AIRSS/Generating-Clusters/TERSOFF/Only-C1/FIRE-HFTN
REM
REM
REM
REM
REM
REM ./C.cell (11c1c37f851c82e70ff6c80c92926a4b)
REM AIRSS Version 0.9.1 bugfix July 2018 build 013d7b7c2542+ Fri, 06 Jul 2018 19:26:36 +0100
REM compiler GCC version 9.2.1 20190827 (Red Hat 9.2.1-1)
REM options -cpp -mtune=generic -march=x86-64 -g -O0 -fpre-include=/usr/include/finclude/math-vector-fortran.h
REM seed -1217323989 1293864827 -606119937 1534272923 -20288439 141898513 1697672320 1551531710 -377583730 1313260664 -211848149 1461586226 2100182574 -1972861829 1845797057 1386077498 2119309921 1345778984 1070726684 -1808431740 -408064686 397699054 735163812 836326138 -1891243376 -1413752815 56337165 -1675972201 -1174742767 1750366287 -89511109 -553199209 -452023854
REM
CELL 1.54180   50.00000   50.00000   50.00000   90.00000   90.00000   90.00000
LATT -1
SFAC C  
C      1  0.4855470000000  0.4311610000000  0.5962700000000 1.0
C      1  0.5903950000000  0.4818150000000  0.5305050000000 1.0
C      1  0.4599800000000  0.5371120000000  0.4555350000000 1.0
C      1  0.5448250000000  0.4766690000000  0.4737790000000 1.0
C      1  0.4055680000000  0.4600350000000  0.5591080000000 1.0
C      1  0.5508520000000  0.6199300000000  0.4328680000000 1.0
C      1  0.5284570000000  0.5116590000000  0.4369480000000 1.0
C      1  0.5095340000000  0.4380920000000  0.5097440000000 1.0
C      1  0.5006530000000  0.6307860000000  0.4435120000000 1.0
C      1  0.5148250000000  0.4659100000000  0.6115890000000 1.0
C      1  0.5910760000000  0.5874550000000  0.5126150000000 1.0
C      1  0.5082090000000  0.5107060000000  0.4869130000000 1.0
C      1  0.5260890000000  0.6294690000000  0.4357120000000 1.0
C      1  0.6040350000000  0.4707490000000  0.5058830000000 1.0
C      1  0.3671190000000  0.5358110000000  0.4758630000000 1.0
C      1  0.5413700000000  0.5237340000000  0.3765390000000 1.0
C      1  0.5375960000000  0.4087620000000  0.5413310000000 1.0
C      1  0.5451280000000  0.4652160000000  0.4466280000000 1.0
C      1  0.4578080000000  0.4949800000000  0.4757060000000 1.0
C      1  0.5727000000000  0.5996430000000  0.4934100000000 1.0
C      1  0.4116780000000  0.4908800000000  0.4881940000000 1.0
C      1  0.5580370000000  0.5638530000000  0.4671620000000 1.0
C      1  0.5622220000000  0.4172080000000  0.4701430000000 1.0
C      1  0.5663160000000  0.4487140000000  0.4292480000000 1.0
C      1  0.5789570000000  0.5330960000000  0.4358510000000 1.0
C      1  0.5798800000000  0.4207620000000  0.4948970000000 1.0
C      1  0.5330740000000  0.4190660000000  0.4651640000000 1.0
C      1  0.5606250000000  0.4786200000000  0.5939880000000 1.0
C      1  0.5903800000000  0.5125460000000  0.5399350000000 1.0
C      1  0.4576210000000  0.4780410000000  0.5162270000000 1.0
C      1  0.5458860000000  0.4018360000000  0.5657320000000 1.0
C      1  0.4396160000000  0.4842730000000  0.4948310000000 1.0
C      1  0.5118060000000  0.4475900000000  0.5615330000000 1.0
C      1  0.4244730000000  0.4401190000000  0.4634540000000 1.0
C      1  0.5692000000000  0.5496340000000  0.4885350000000 1.0
C      1  0.4533970000000  0.4537220000000  0.5576590000000 1.0
C      1  0.5254210000000  0.5389250000000  0.5944680000000 1.0
C      1  0.5118030000000  0.5394450000000  0.5383930000000 1.0
C      1  0.4655360000000  0.4748000000000  0.5986150000000 1.0
C      1  0.5418600000000  0.4985240000000  0.5235310000000 1.0
C      1  0.4102310000000  0.5872420000000  0.5148360000000 1.0
C      1  0.5549740000000  0.5449740000000  0.5564870000000 1.0
C      1  0.3789320000000  0.4937510000000  0.5296550000000 1.0
C      1  0.5529690000000  0.4066610000000  0.5925160000000 1.0
C      1  0.4591410000000  0.4777540000000  0.5704180000000 1.0
C      1  0.5337330000000  0.4298420000000  0.5233280000000 1.0
C      1  0.4418910000000  0.4812010000000  0.6128820000000 1.0
C      1  0.4410220000000  0.5523070000000  0.6290730000000 1.0
C      1  0.5996220000000  0.5368330000000  0.5231810000000 1.0
C      1  0.4982400000000  0.4917420000000  0.5468410000000 1.0
C      1  0.5833760000000  0.5101160000000  0.4559190000000 1.0
C      1  0.5695160000000  0.5900300000000  0.4657470000000 1.0
C      1  0.4936860000000  0.4204930000000  0.4938430000000 1.0
C      1  0.4214900000000  0.5499770000000  0.5508480000000 1.0
C      1  0.5669900000000  0.4654970000000  0.5387870000000 1.0
C      1  0.4240300000000  0.5223290000000  0.5945300000000 1.0
C      1  0.4932550000000  0.3910530000000  0.4544410000000 1.0
C      1  0.5741200000000  0.5785680000000  0.4190550000000 1.0
C      1  0.4423430000000  0.4611920000000  0.4122560000000 1.0
C      1  0.5477320000000  0.6083170000000  0.5040950000000 1.0
C      1  0.4353950000000  0.4400030000000  0.4337680000000 1.0
C      1  0.5166710000000  0.4832790000000  0.4860690000000 1.0
C      1  0.4995180000000  0.5297240000000  0.5862480000000 1.0
C      1  0.4748730000000  0.5314690000000  0.6013360000000 1.0
C      1  0.5365110000000  0.4836020000000  0.3995840000000 1.0
C      1  0.5354430000000  0.5563740000000  0.4508800000000 1.0
C      1  0.3784230000000  0.4691820000000  0.5977650000000 1.0
C      1  0.4722110000000  0.3981150000000  0.4383570000000 1.0
C      1  0.5626400000000  0.5061090000000  0.5873770000000 1.0
C      1  0.3861690000000  0.4956160000000  0.5024700000000 1.0
C      1  0.5090580000000  0.4050500000000  0.4739460000000 1.0
C      1  0.4055020000000  0.5266530000000  0.4510270000000 1.0
C      1  0.5037860000000  0.4661820000000  0.5055970000000 1.0
C      1  0.4720130000000  0.4407590000000  0.4576440000000 1.0
C      1  0.5933460000000  0.4890400000000  0.4370930000000 1.0
C      1  0.3895410000000  0.5469720000000  0.4626680000000 1.0
C      1  0.4655900000000  0.5081440000000  0.3908430000000 1.0
C      1  0.4893700000000  0.5312560000000  0.4902970000000 1.0
C      1  0.5041170000000  0.5811950000000  0.4962650000000 1.0
C      1  0.5716320000000  0.5503750000000  0.4140860000000 1.0
C      1  0.4661010000000  0.5255510000000  0.5544400000000 1.0
C      1  0.6032150000000  0.4422250000000  0.4629540000000 1.0
C      1  0.4137060000000  0.5895330000000  0.4869650000000 1.0
C      1  0.4956320000000  0.5215740000000  0.5564080000000 1.0
C      1  0.5367650000000  0.4869250000000  0.4273700000000 1.0
C      1  0.5190490000000  0.4743160000000  0.5563530000000 1.0
C      1  0.5272520000000  0.4987120000000  0.3778230000000 1.0
C      1  0.4469810000000  0.5349650000000  0.6077880000000 1.0
C      1  0.5862670000000  0.4688760000000  0.4208150000000 1.0
C      1  0.5631260000000  0.3865450000000  0.6079970000000 1.0
C      1  0.4654520000000  0.5156540000000  0.4367420000000 1.0
C      1  0.4848960000000  0.4424370000000  0.3672290000000 1.0
C      1  0.4691890000000  0.4889500000000  0.4494570000000 1.0
C      1  0.5687630000000  0.5990710000000  0.4385830000000 1.0
C      1  0.6037980000000  0.5153190000000  0.4776660000000 1.0
C      1  0.5448210000000  0.5209270000000  0.6045430000000 1.0
C      1  0.4592410000000  0.4231870000000  0.4384520000000 1.0
C      1  0.4103120000000  0.5021800000000  0.4615320000000 1.0
C      1  0.4077410000000  0.5370780000000  0.5753980000000 1.0
C      1  0.5420860000000  0.4596080000000  0.6045010000000 1.0
C      1  0.4202570000000  0.4933010000000  0.5981270000000 1.0
C      1  0.4985950000000  0.5408980000000  0.4157200000000 1.0
C      1  0.4732350000000  0.5620380000000  0.4608770000000 1.0
C      1  0.4831670000000  0.4633880000000  0.4441360000000 1.0
C      1  0.5715280000000  0.5206350000000  0.5625300000000 1.0
C      1  0.4535340000000  0.6193850000000  0.4651530000000 1.0
C      1  0.4811440000000  0.5118220000000  0.3666120000000 1.0
C      1  0.4610150000000  0.4781220000000  0.3947990000000 1.0
C      1  0.5205140000000  0.5384340000000  0.4342940000000 1.0
C      1  0.5946760000000  0.5363500000000  0.4943280000000 1.0
C      1  0.5557790000000  0.4474650000000  0.5191730000000 1.0
C      1  0.4756730000000  0.5236890000000  0.4123500000000 1.0
C      1  0.4839750000000  0.4675960000000  0.3775670000000 1.0
C      1  0.3728430000000  0.5082920000000  0.5514770000000 1.0
C      1  0.5500500000000  0.5404080000000  0.5071480000000 1.0
C      1  0.5012270000000  0.4907570000000  0.3679850000000 1.0
C      1  0.4685790000000  0.4314390000000  0.4842470000000 1.0
C      1  0.4541160000000  0.4313360000000  0.5400870000000 1.0
C      1  0.4349940000000  0.5684900000000  0.6485890000000 1.0
C      1  0.3672950000000  0.5117600000000  0.4881070000000 1.0
C      1  0.5562850000000  0.4582560000000  0.4933920000000 1.0
C      1  0.4282750000000  0.5028550000000  0.5397680000000 1.0
C      1  0.5056170000000  0.4498200000000  0.4304940000000 1.0
C      1  0.5996090000000  0.5659940000000  0.5279870000000 1.0
C      1  0.5503250000000  0.5127330000000  0.5014950000000 1.0
C      1  0.4876470000000  0.4581340000000  0.6064280000000 1.0
C      1  0.5390530000000  0.5459140000000  0.5325330000000 1.0
C      1  0.4394160000000  0.4334210000000  0.4909160000000 1.0
C      1  0.4327650000000  0.4337720000000  0.5199970000000 1.0
C      1  0.5474300000000  0.4366610000000  0.4080250000000 1.0
C      1  0.5494250000000  0.4324350000000  0.6031890000000 1.0
C      1  0.3819180000000  0.5263960000000  0.5692870000000 1.0
C      1  0.4514730000000  0.5498080000000  0.5542840000000 1.0
C      1  0.4108580000000  0.4464510000000  0.5355360000000 1.0
C      1  0.5795010000000  0.4308240000000  0.4496830000000 1.0
C      1  0.6149230000000  0.4917950000000  0.4893790000000 1.0
C      1  0.5196080000000  0.4399460000000  0.4069960000000 1.0
C      1  0.4115980000000  0.5746480000000  0.5384340000000 1.0
C      1  0.5252620000000  0.4428280000000  0.4507240000000 1.0
C      1  0.4511680000000  0.5012900000000  0.5562440000000 1.0
C      1  0.5590170000000  0.5028700000000  0.4752410000000 1.0
C      1  0.4183660000000  0.5266670000000  0.5312380000000 1.0
C      1  0.3998240000000  0.5718960000000  0.4699770000000 1.0
C      1  0.4759960000000  0.4157410000000  0.5496330000000 1.0
C      1  0.4851750000000  0.4797470000000  0.5233450000000 1.0
C      1  0.4325590000000  0.6073930000000  0.4763270000000 1.0
C      1  0.5998070000000  0.4437700000000  0.4921700000000 1.0
C      1  0.4913040000000  0.5599310000000  0.4837440000000 1.0
C      1  0.4019950000000  0.4746840000000  0.5842210000000 1.0
C      1  0.5439310000000  0.4812130000000  0.5455110000000 1.0
C      1  0.5408000000000  0.5570220000000  0.5783420000000 1.0
C      1  0.5224550000000  0.5991960000000  0.5036100000000 1.0
C      1  0.5579910000000  0.5396810000000  0.3911550000000 1.0
C      1  0.4763970000000  0.6270130000000  0.4538280000000 1.0
C      1  0.4633300000000  0.5225190000000  0.4811950000000 1.0
C      1  0.4936500000000  0.4271150000000  0.5692780000000 1.0
END
