TITL C-612604-1799-1082 92.6700839363237 125000 -525.313547248667 0 0 88 (C1) n - 1
REM
REM in /home/nfs/bkarasulu/CARBON/AIRSS/Generating-Clusters/TERSOFF/Only-C1/FIRE-HFTN
REM
REM
REM
REM
REM
REM ./C.cell (11c1c37f851c82e70ff6c80c92926a4b)
REM AIRSS Version 0.9.1 bugfix July 2018 build 013d7b7c2542+ Fri, 06 Jul 2018 19:26:36 +0100
REM compiler GCC version 9.2.1 20190827 (Red Hat 9.2.1-1)
REM options -cpp -mtune=generic -march=x86-64 -g -O0 -fpre-include=/usr/include/finclude/math-vector-fortran.h
REM seed 1486761526 -2115478483 -211714243 884330444 -1474472295 963318184 599729190 -2012408699 1215188176 1111790300 -1400486214 -1591309251 -1390926472 -1511560795 -1663928510 -2108432111 -96451709 81235640 -1383790644 -963200198 -371796534 -106415935 751414517 -1047798052 -1803931247 273985369 -1619715749 -651032799 861073623 1718889563 2105156536 -880839078 944853317
REM
CELL 1.54180   50.00000   50.00000   50.00000   90.00000   90.00000   90.00000
LATT -1
SFAC C  
C      1  0.5461590000000  0.5225360000000  0.6238160000000 1.0
C      1  0.5949410000000  0.6031160000000  0.4363040000000 1.0
C      1  0.5386780000000  0.4616890000000  0.5488130000000 1.0
C      1  0.4864970000000  0.4133230000000  0.5127090000000 1.0
C      1  0.5678210000000  0.5245510000000  0.4415630000000 1.0
C      1  0.4530940000000  0.5820960000000  0.5105360000000 1.0
C      1  0.5329340000000  0.5377490000000  0.4116790000000 1.0
C      1  0.4752200000000  0.4998940000000  0.3848500000000 1.0
C      1  0.4929480000000  0.6311410000000  0.4982610000000 1.0
C      1  0.4368450000000  0.4918550000000  0.4899490000000 1.0
C      1  0.4968940000000  0.5635590000000  0.5225400000000 1.0
C      1  0.4981410000000  0.4883760000000  0.5569980000000 1.0
C      1  0.5517810000000  0.5457270000000  0.4308320000000 1.0
C      1  0.5082460000000  0.5394880000000  0.5691010000000 1.0
C      1  0.4807330000000  0.4713920000000  0.5135230000000 1.0
C      1  0.5763900000000  0.5008200000000  0.5458300000000 1.0
C      1  0.4735770000000  0.4288310000000  0.4922970000000 1.0
C      1  0.5416490000000  0.5191240000000  0.4796610000000 1.0
C      1  0.4723420000000  0.4851540000000  0.6026910000000 1.0
C      1  0.5679090000000  0.4508740000000  0.4739750000000 1.0
C      1  0.5248530000000  0.4903020000000  0.4017280000000 1.0
C      1  0.4630490000000  0.5478080000000  0.4665540000000 1.0
C      1  0.4866190000000  0.4678460000000  0.4635010000000 1.0
C      1  0.4272350000000  0.5087040000000  0.5426030000000 1.0
C      1  0.5342220000000  0.4154410000000  0.4744980000000 1.0
C      1  0.5322730000000  0.4169880000000  0.5392430000000 1.0
C      1  0.4874180000000  0.5074250000000  0.6015820000000 1.0
C      1  0.4742040000000  0.4996650000000  0.5538810000000 1.0
C      1  0.5151020000000  0.4275540000000  0.4309300000000 1.0
C      1  0.5508490000000  0.5722830000000  0.4417390000000 1.0
C      1  0.4413500000000  0.4647910000000  0.4787740000000 1.0
C      1  0.4401530000000  0.5138230000000  0.4458400000000 1.0
C      1  0.4476690000000  0.4427250000000  0.4970370000000 1.0
C      1  0.5572240000000  0.4714370000000  0.5106590000000 1.0
C      1  0.4812720000000  0.5860990000000  0.5118880000000 1.0
C      1  0.5673710000000  0.4775350000000  0.4647650000000 1.0
C      1  0.4542980000000  0.5043210000000  0.5349940000000 1.0
C      1  0.4912980000000  0.4396610000000  0.4710820000000 1.0
C      1  0.5090350000000  0.4672140000000  0.3965140000000 1.0
C      1  0.4230860000000  0.5330240000000  0.5559860000000 1.0
C      1  0.4624210000000  0.4626990000000  0.5917860000000 1.0
C      1  0.4876930000000  0.5209580000000  0.3994800000000 1.0
C      1  0.5159550000000  0.5173360000000  0.4033840000000 1.0
C      1  0.5057700000000  0.5491920000000  0.4989430000000 1.0
C      1  0.5397980000000  0.4593260000000  0.5922520000000 1.0
C      1  0.4793740000000  0.5102720000000  0.4881160000000 1.0
C      1  0.5718020000000  0.4943360000000  0.5197140000000 1.0
C      1  0.4840370000000  0.5377600000000  0.4833620000000 1.0
C      1  0.4559750000000  0.4456850000000  0.5720780000000 1.0
C      1  0.5105280000000  0.5204860000000  0.5910040000000 1.0
C      1  0.4302660000000  0.5157320000000  0.4741240000000 1.0
C      1  0.5050760000000  0.4602780000000  0.5088690000000 1.0
C      1  0.5127090000000  0.4252150000000  0.4588420000000 1.0
C      1  0.4583390000000  0.5360430000000  0.4405090000000 1.0
C      1  0.4098690000000  0.4871780000000  0.5371440000000 1.0
C      1  0.5690570000000  0.4947810000000  0.5711700000000 1.0
C      1  0.4617210000000  0.4957880000000  0.5076880000000 1.0
C      1  0.4585560000000  0.4694900000000  0.4556810000000 1.0
C      1  0.5535590000000  0.4260910000000  0.5203100000000 1.0
C      1  0.4351700000000  0.4443240000000  0.5234170000000 1.0
C      1  0.5283240000000  0.5832750000000  0.4552170000000 1.0
C      1  0.4484230000000  0.4376300000000  0.5476030000000 1.0
C      1  0.4844050000000  0.4742570000000  0.3841370000000 1.0
C      1  0.4403800000000  0.5525480000000  0.5626220000000 1.0
C      1  0.4376810000000  0.5438630000000  0.4821630000000 1.0
C      1  0.5326510000000  0.5448260000000  0.4892440000000 1.0
C      1  0.5111420000000  0.5945070000000  0.4726180000000 1.0
C      1  0.4923760000000  0.5547820000000  0.5502590000000 1.0
C      1  0.4478460000000  0.4879370000000  0.4373330000000 1.0
C      1  0.4659690000000  0.5599730000000  0.5599150000000 1.0
C      1  0.5138090000000  0.4428110000000  0.4091020000000 1.0
C      1  0.5222030000000  0.5021510000000  0.4901290000000 1.0
C      1  0.5735820000000  0.5884020000000  0.4388450000000 1.0
C      1  0.5310220000000  0.4614710000000  0.5002130000000 1.0
C      1  0.5352590000000  0.5102480000000  0.6018000000000 1.0
C      1  0.5336340000000  0.4434610000000  0.5688610000000 1.0
C      1  0.4729150000000  0.5371450000000  0.4168990000000 1.0
C      1  0.5232810000000  0.5003850000000  0.5190960000000 1.0
C      1  0.5067960000000  0.4100020000000  0.5303310000000 1.0
C      1  0.5597930000000  0.4522090000000  0.5315230000000 1.0
C      1  0.5220330000000  0.4847050000000  0.5430470000000 1.0
C      1  0.5488930000000  0.4875450000000  0.5903850000000 1.0
C      1  0.4132230000000  0.4621580000000  0.5274320000000 1.0
C      1  0.4951130000000  0.6041120000000  0.4941550000000 1.0
C      1  0.4347860000000  0.5642340000000  0.5014200000000 1.0
C      1  0.5557130000000  0.4273570000000  0.4895280000000 1.0
C      1  0.5609930000000  0.5065640000000  0.4624630000000 1.0
C      1  0.4986980000000  0.4925310000000  0.4760590000000 1.0
END
