TITL C-612606-7351-1303 1.00853618075736 125000 -409.248551266303 0 0 68 (C1) n - 1
REM
REM in /home/nfs/bkarasulu/CARBON/AIRSS/Generating-Clusters/TERSOFF/Only-C1/FIRE-HFTN
REM
REM
REM
REM
REM
REM ./C.cell (11c1c37f851c82e70ff6c80c92926a4b)
REM AIRSS Version 0.9.1 bugfix July 2018 build 013d7b7c2542+ Fri, 06 Jul 2018 19:26:36 +0100
REM compiler GCC version 9.2.1 20190827 (Red Hat 9.2.1-1)
REM options -cpp -mtune=generic -march=x86-64 -g -O0 -fpre-include=/usr/include/finclude/math-vector-fortran.h
REM seed -1857722115 -77342377 -676207713 -1181642407 1196424276 -1535626033 1159317319 445807056 -701830996 1375096522 777873799 -1777552043 -1932417771 -1777209606 1792651718 -1460471675 -1899759167 1642443521 -1200611979 2120519092 412606777 -107874626 442588318 1758358044 1367291021 1290285481 601459150 1379978515 -785543839 2091079947 1637667050 -2100924563 413077439
REM
CELL 1.54180   50.00000   50.00000   50.00000   90.00000   90.00000   90.00000
LATT -1
SFAC C  
C      1  0.5266540000000  0.6183500000000  0.6006170000000 1.0
C      1  0.5263540000000  0.5840630000000  0.5601980000000 1.0
C      1  0.5989420000000  0.4911380000000  0.4871880000000 1.0
C      1  0.4534060000000  0.4724380000000  0.5290310000000 1.0
C      1  0.5267240000000  0.6351350000000  0.6205650000000 1.0
C      1  0.5265690000000  0.6012710000000  0.5803470000000 1.0
C      1  0.5205030000000  0.5479350000000  0.4230590000000 1.0
C      1  0.4933720000000  0.5084620000000  0.5366160000000 1.0
C      1  0.4853500000000  0.4219880000000  0.5105750000000 1.0
C      1  0.4869270000000  0.5330970000000  0.5781070000000 1.0
C      1  0.5781600000000  0.4861840000000  0.4687530000000 1.0
C      1  0.4925210000000  0.4735590000000  0.5036190000000 1.0
C      1  0.4869220000000  0.5932590000000  0.4599970000000 1.0
C      1  0.3990870000000  0.4953810000000  0.4685120000000 1.0
C      1  0.4194400000000  0.4542500000000  0.4924920000000 1.0
C      1  0.5208950000000  0.4800410000000  0.4995790000000 1.0
C      1  0.4771900000000  0.5321900000000  0.4838770000000 1.0
C      1  0.4784030000000  0.4767890000000  0.4765140000000 1.0
C      1  0.4031850000000  0.5651230000000  0.5183370000000 1.0
C      1  0.5167970000000  0.4994750000000  0.4769850000000 1.0
C      1  0.5157670000000  0.4624590000000  0.5783270000000 1.0
C      1  0.4595840000000  0.4307410000000  0.5019000000000 1.0
C      1  0.4901340000000  0.4157570000000  0.5372570000000 1.0
C      1  0.5256210000000  0.5662230000000  0.5406350000000 1.0
C      1  0.4933770000000  0.5670340000000  0.4564880000000 1.0
C      1  0.5583690000000  0.4662210000000  0.4734280000000 1.0
C      1  0.4279800000000  0.5286290000000  0.4878010000000 1.0
C      1  0.5457890000000  0.4667840000000  0.4992760000000 1.0
C      1  0.5405390000000  0.5497870000000  0.4681660000000 1.0
C      1  0.4790810000000  0.4848810000000  0.5260310000000 1.0
C      1  0.5150460000000  0.4550170000000  0.4535930000000 1.0
C      1  0.4416690000000  0.4522890000000  0.5122360000000 1.0
C      1  0.5936710000000  0.5362230000000  0.5086510000000 1.0
C      1  0.4779570000000  0.3967680000000  0.5797830000000 1.0
C      1  0.4567190000000  0.4942020000000  0.4721880000000 1.0
C      1  0.5425550000000  0.4589730000000  0.5708010000000 1.0
C      1  0.5721900000000  0.5517670000000  0.5051450000000 1.0
C      1  0.5563410000000  0.4418150000000  0.4310120000000 1.0
C      1  0.4179720000000  0.5157460000000  0.4629280000000 1.0
C      1  0.4150640000000  0.5473780000000  0.5034010000000 1.0
C      1  0.5708210000000  0.5084350000000  0.4530680000000 1.0
C      1  0.6043490000000  0.5123790000000  0.5027520000000 1.0
C      1  0.5053040000000  0.4222870000000  0.4900350000000 1.0
C      1  0.5050700000000  0.4883150000000  0.5787560000000 1.0
C      1  0.4259350000000  0.4352740000000  0.4714000000000 1.0
C      1  0.5011630000000  0.5355780000000  0.4086910000000 1.0
C      1  0.4889250000000  0.4171370000000  0.5652420000000 1.0
C      1  0.4524960000000  0.4251180000000  0.4735910000000 1.0
C      1  0.5197340000000  0.5581060000000  0.4498490000000 1.0
C      1  0.4740110000000  0.4253020000000  0.4551670000000 1.0
C      1  0.5021410000000  0.4805930000000  0.4590980000000 1.0
C      1  0.5263240000000  0.5482090000000  0.5193810000000 1.0
C      1  0.4542600000000  0.5169940000000  0.4915110000000 1.0
C      1  0.5593840000000  0.5323930000000  0.4556480000000 1.0
C      1  0.4614500000000  0.5290080000000  0.4385510000000 1.0
C      1  0.5007130000000  0.4316390000000  0.4631940000000 1.0
C      1  0.4745230000000  0.5457530000000  0.4591480000000 1.0
C      1  0.4757790000000  0.5279960000000  0.4141940000000 1.0
C      1  0.5448590000000  0.5524220000000  0.4971990000000 1.0
C      1  0.5085780000000  0.5258250000000  0.5179940000000 1.0
C      1  0.5436930000000  0.4539970000000  0.4519460000000 1.0
C      1  0.5022800000000  0.5211720000000  0.4903820000000 1.0
C      1  0.4013480000000  0.4744410000000  0.4854490000000 1.0
C      1  0.5577920000000  0.4562630000000  0.5491320000000 1.0
C      1  0.4953090000000  0.5107180000000  0.5649140000000 1.0
C      1  0.4991970000000  0.4399210000000  0.5779270000000 1.0
C      1  0.5580180000000  0.4579310000000  0.5226060000000 1.0
C      1  0.4437190000000  0.5079700000000  0.4491610000000 1.0
END
