TITL C-612600-6631-657 0.25657074518365 125000 -551.372515924606 0 0 91 (C1) n - 1
REM
REM in /home/nfs/bkarasulu/CARBON/AIRSS/Generating-Clusters/TERSOFF/Only-C1/FIRE-HFTN
REM
REM
REM
REM
REM
REM ./C.cell (11c1c37f851c82e70ff6c80c92926a4b)
REM AIRSS Version 0.9.1 bugfix July 2018 build 013d7b7c2542+ Fri, 06 Jul 2018 19:26:36 +0100
REM compiler GCC version 9.2.1 20190827 (Red Hat 9.2.1-1)
REM options -cpp -mtune=generic -march=x86-64 -g -O0 -fpre-include=/usr/include/finclude/math-vector-fortran.h
REM seed -1848131016 -599189908 -250312180 -2089494603 -1953640410 221821282 -1595300375 2094535347 1526608922 -352886449 -281409722 -1790621729 1237029039 -170780745 1339326405 -1535065402 -2134562270 2084211412 1654649745 -831893340 1722313694 1573977753 2129898642 2109336033 1761601085 -651715460 -553088672 1037066537 -518461421 268069233 2006963933 1086499573 -1171706128
REM
CELL 1.54180   50.00000   50.00000   50.00000   90.00000   90.00000   90.00000
LATT -1
SFAC C  
C      1  0.4247530000000  0.5397840000000  0.4819780000000 1.0
C      1  0.5155920000000  0.5776580000000  0.5093060000000 1.0
C      1  0.5198870000000  0.4430790000000  0.5648980000000 1.0
C      1  0.3558100000000  0.5122080000000  0.5918090000000 1.0
C      1  0.5685410000000  0.4214670000000  0.4875250000000 1.0
C      1  0.4228810000000  0.4786740000000  0.4477210000000 1.0
C      1  0.4103050000000  0.4967530000000  0.4665590000000 1.0
C      1  0.5598170000000  0.4655770000000  0.4450360000000 1.0
C      1  0.4576080000000  0.5056900000000  0.4797210000000 1.0
C      1  0.5684350000000  0.4777520000000  0.5984250000000 1.0
C      1  0.4606020000000  0.5352490000000  0.4050970000000 1.0
C      1  0.5416010000000  0.6137320000000  0.4880250000000 1.0
C      1  0.4731910000000  0.4717640000000  0.4293700000000 1.0
C      1  0.5002900000000  0.5020340000000  0.5926610000000 1.0
C      1  0.4917530000000  0.4818070000000  0.5750320000000 1.0
C      1  0.5350420000000  0.5677600000000  0.5276220000000 1.0
C      1  0.5444180000000  0.5233970000000  0.4522410000000 1.0
C      1  0.5975110000000  0.4774510000000  0.5101700000000 1.0
C      1  0.5639340000000  0.5307630000000  0.5163730000000 1.0
C      1  0.5280330000000  0.4840280000000  0.5401130000000 1.0
C      1  0.4445860000000  0.5106970000000  0.3653520000000 1.0
C      1  0.4634310000000  0.5339030000000  0.5166660000000 1.0
C      1  0.5299960000000  0.5549790000000  0.5527440000000 1.0
C      1  0.4785660000000  0.4602360000000  0.5160480000000 1.0
C      1  0.4775610000000  0.5453600000000  0.5616540000000 1.0
C      1  0.5764290000000  0.4215380000000  0.4617720000000 1.0
C      1  0.5320660000000  0.4667560000000  0.4371400000000 1.0
C      1  0.3773550000000  0.5083770000000  0.5776410000000 1.0
C      1  0.4449540000000  0.4711910000000  0.4335480000000 1.0
C      1  0.5111580000000  0.5340180000000  0.4122700000000 1.0
C      1  0.4909420000000  0.4603800000000  0.4100460000000 1.0
C      1  0.5587250000000  0.5584880000000  0.5127690000000 1.0
C      1  0.5401770000000  0.4858030000000  0.5144380000000 1.0
C      1  0.5284270000000  0.4180470000000  0.5662150000000 1.0
C      1  0.4383240000000  0.5211630000000  0.3906810000000 1.0
C      1  0.4878890000000  0.5319490000000  0.3964560000000 1.0
C      1  0.5522600000000  0.5092540000000  0.5010870000000 1.0
C      1  0.5308740000000  0.5302970000000  0.4301150000000 1.0
C      1  0.4830770000000  0.4881640000000  0.5200040000000 1.0
C      1  0.4500640000000  0.4801580000000  0.4860770000000 1.0
C      1  0.4475970000000  0.5287870000000  0.4941400000000 1.0
C      1  0.3992180000000  0.5044660000000  0.5632010000000 1.0
C      1  0.4886330000000  0.4854860000000  0.4496680000000 1.0
C      1  0.5378630000000  0.4614330000000  0.4993860000000 1.0
C      1  0.5189730000000  0.6037000000000  0.4990150000000 1.0
C      1  0.5728920000000  0.4405200000000  0.4429320000000 1.0
C      1  0.5486720000000  0.3691180000000  0.5640560000000 1.0
C      1  0.4223700000000  0.5002220000000  0.5475520000000 1.0
C      1  0.4862680000000  0.5157680000000  0.5165290000000 1.0
C      1  0.4025370000000  0.4896420000000  0.4942940000000 1.0
C      1  0.4955150000000  0.5568170000000  0.4677720000000 1.0
C      1  0.5701620000000  0.5256570000000  0.5434340000000 1.0
C      1  0.5130420000000  0.4697060000000  0.5597170000000 1.0
C      1  0.5060430000000  0.5448290000000  0.5675080000000 1.0
C      1  0.4135850000000  0.5250550000000  0.4601410000000 1.0
C      1  0.5708660000000  0.4578620000000  0.6150850000000 1.0
C      1  0.4471490000000  0.5455360000000  0.4286770000000 1.0
C      1  0.3785590000000  0.4760280000000  0.4968760000000 1.0
C      1  0.5655200000000  0.6011610000000  0.4865790000000 1.0
C      1  0.4210150000000  0.5330140000000  0.4339350000000 1.0
C      1  0.5588770000000  0.3451760000000  0.5625480000000 1.0
C      1  0.4698450000000  0.5114180000000  0.3554250000000 1.0
C      1  0.5542870000000  0.4388180000000  0.5022380000000 1.0
C      1  0.5723620000000  0.5770880000000  0.4967090000000 1.0
C      1  0.4556050000000  0.4535830000000  0.5585700000000 1.0
C      1  0.4475040000000  0.5016150000000  0.5629390000000 1.0
C      1  0.4624470000000  0.4456770000000  0.5337740000000 1.0
C      1  0.5383450000000  0.3934870000000  0.5654820000000 1.0
C      1  0.4167910000000  0.4952130000000  0.5193500000000 1.0
C      1  0.5183490000000  0.4597590000000  0.4129800000000 1.0
C      1  0.5927510000000  0.4835700000000  0.5361070000000 1.0
C      1  0.5790300000000  0.5003420000000  0.5542210000000 1.0
C      1  0.5128940000000  0.4725700000000  0.4578760000000 1.0
C      1  0.4923800000000  0.4484600000000  0.4948620000000 1.0
C      1  0.4667920000000  0.5537690000000  0.5364490000000 1.0
C      1  0.5558630000000  0.5073230000000  0.4723380000000 1.0
C      1  0.5075360000000  0.5303470000000  0.5053690000000 1.0
C      1  0.5452660000000  0.5200400000000  0.5828880000000 1.0
C      1  0.4589400000000  0.5261700000000  0.5722690000000 1.0
C      1  0.4903290000000  0.5218850000000  0.3698490000000 1.0
C      1  0.5710700000000  0.4841010000000  0.4645710000000 1.0
C      1  0.5166670000000  0.5237730000000  0.5860120000000 1.0
C      1  0.5644270000000  0.4979310000000  0.5798210000000 1.0
C      1  0.5150680000000  0.4593080000000  0.4825910000000 1.0
C      1  0.5912770000000  0.4772960000000  0.4837890000000 1.0
C      1  0.4154420000000  0.5207670000000  0.4081490000000 1.0
C      1  0.5057800000000  0.5564250000000  0.4936380000000 1.0
C      1  0.4637470000000  0.4785040000000  0.5688150000000 1.0
C      1  0.4779810000000  0.5090830000000  0.4604590000000 1.0
C      1  0.5527600000000  0.5391640000000  0.5619020000000 1.0
C      1  0.4862420000000  0.5351480000000  0.4551110000000 1.0
END
