TITL C-612606-7351-840 0.000334753797296682 125000 -623.589508779355 0 0 102 (C1) n - 1
REM
REM in /home/nfs/bkarasulu/CARBON/AIRSS/Generating-Clusters/TERSOFF/Only-C1/FIRE-HFTN
REM
REM
REM
REM
REM
REM ./C.cell (11c1c37f851c82e70ff6c80c92926a4b)
REM AIRSS Version 0.9.1 bugfix July 2018 build 013d7b7c2542+ Fri, 06 Jul 2018 19:26:36 +0100
REM compiler GCC version 9.2.1 20190827 (Red Hat 9.2.1-1)
REM options -cpp -mtune=generic -march=x86-64 -g -O0 -fpre-include=/usr/include/finclude/math-vector-fortran.h
REM seed -979080020 1066650707 -1429064170 -2061416655 -1759131723 91496923 -169474349 -1341907817 -639000811 -210410749 647934173 1997320278 117822543 1632559820 -855772290 -2140023864 -142261155 1648074056 502049945 1928502905 1596597905 -585126338 -649208414 908212996 -2030559515 -1398077131 -1487320334 -598137562 87330603 2146347935 -858169435 -1490831159 677525606
REM
CELL 1.54180   50.00000   50.00000   50.00000   90.00000   90.00000   90.00000
LATT -1
SFAC C  
C      1  0.5670520000000  0.4935620000000  0.5684570000000 1.0
C      1  0.5334160000000  0.5641350000000  0.4590690000000 1.0
C      1  0.4909350000000  0.5841190000000  0.4593260000000 1.0
C      1  0.4749620000000  0.5299890000000  0.5834100000000 1.0
C      1  0.4536610000000  0.5155190000000  0.5216780000000 1.0
C      1  0.5832590000000  0.5104590000000  0.5527910000000 1.0
C      1  0.5026740000000  0.5275120000000  0.5880190000000 1.0
C      1  0.4791570000000  0.4887280000000  0.4780640000000 1.0
C      1  0.4233750000000  0.4612270000000  0.4952880000000 1.0
C      1  0.5213110000000  0.4357730000000  0.5949710000000 1.0
C      1  0.4598800000000  0.5075630000000  0.5919210000000 1.0
C      1  0.5233970000000  0.5894060000000  0.5442750000000 1.0
C      1  0.5892390000000  0.4353510000000  0.5378210000000 1.0
C      1  0.5230000000000  0.4708530000000  0.5136530000000 1.0
C      1  0.5104200000000  0.4501820000000  0.5745140000000 1.0
C      1  0.5447420000000  0.5606610000000  0.4874330000000 1.0
C      1  0.4393010000000  0.4587640000000  0.5449920000000 1.0
C      1  0.4088970000000  0.5115330000000  0.5195450000000 1.0
C      1  0.6467910000000  0.5438860000000  0.5561170000000 1.0
C      1  0.5095900000000  0.5651210000000  0.5487470000000 1.0
C      1  0.4340110000000  0.3974360000000  0.4079900000000 1.0
C      1  0.4569350000000  0.5563000000000  0.4478110000000 1.0
C      1  0.4367840000000  0.5421650000000  0.5554850000000 1.0
C      1  0.5127480000000  0.4525100000000  0.4258370000000 1.0
C      1  0.5634810000000  0.5017540000000  0.4443340000000 1.0
C      1  0.4880880000000  0.4978620000000  0.4117180000000 1.0
C      1  0.5781140000000  0.4683490000000  0.5745370000000 1.0
C      1  0.5158330000000  0.4995660000000  0.4490280000000 1.0
C      1  0.4996580000000  0.5987040000000  0.4835700000000 1.0
C      1  0.5050700000000  0.4352260000000  0.4484830000000 1.0
C      1  0.5409150000000  0.4866430000000  0.4974670000000 1.0
C      1  0.5450770000000  0.5961210000000  0.5275260000000 1.0
C      1  0.4807880000000  0.5646310000000  0.5453420000000 1.0
C      1  0.4610920000000  0.4120930000000  0.4523480000000 1.0
C      1  0.5406180000000  0.4605930000000  0.4306280000000 1.0
C      1  0.4896440000000  0.4689760000000  0.4162710000000 1.0
C      1  0.4200630000000  0.4647460000000  0.5243190000000 1.0
C      1  0.4220850000000  0.4853850000000  0.4780430000000 1.0
C      1  0.5866530000000  0.4463910000000  0.5619540000000 1.0
C      1  0.5101520000000  0.4793320000000  0.5383570000000 1.0
C      1  0.4466490000000  0.4141110000000  0.4772800000000 1.0
C      1  0.4900250000000  0.4117740000000  0.4521830000000 1.0
C      1  0.4679620000000  0.5784930000000  0.5224930000000 1.0
C      1  0.4300660000000  0.5250750000000  0.5340190000000 1.0
C      1  0.5387360000000  0.4969130000000  0.5713280000000 1.0
C      1  0.5092720000000  0.4500280000000  0.4985410000000 1.0
C      1  0.6032360000000  0.5196640000000  0.5351880000000 1.0
C      1  0.4510190000000  0.3927970000000  0.4954210000000 1.0
C      1  0.4471440000000  0.4054160000000  0.4290390000000 1.0
C      1  0.4737950000000  0.5157250000000  0.4298100000000 1.0
C      1  0.5377100000000  0.5127850000000  0.4400360000000 1.0
C      1  0.4760010000000  0.5970590000000  0.5012370000000 1.0
C      1  0.5069130000000  0.5229750000000  0.4936030000000 1.0
C      1  0.5575090000000  0.4739150000000  0.4505440000000 1.0
C      1  0.6258400000000  0.5321520000000  0.5459880000000 1.0
C      1  0.5019270000000  0.3886260000000  0.4633600000000 1.0
C      1  0.4228440000000  0.5359200000000  0.4788700000000 1.0
C      1  0.4421280000000  0.4644260000000  0.4356660000000 1.0
C      1  0.4820150000000  0.4846350000000  0.5427070000000 1.0
C      1  0.5576920000000  0.4702940000000  0.4793920000000 1.0
C      1  0.5085990000000  0.4530560000000  0.4704560000000 1.0
C      1  0.5252090000000  0.5227780000000  0.5718000000000 1.0
C      1  0.5741170000000  0.4507490000000  0.4910570000000 1.0
C      1  0.4378370000000  0.5360290000000  0.4547050000000 1.0
C      1  0.4470730000000  0.5111560000000  0.4429160000000 1.0
C      1  0.4849660000000  0.4429060000000  0.5616120000000 1.0
C      1  0.4640780000000  0.5480020000000  0.5633910000000 1.0
C      1  0.4994170000000  0.5082220000000  0.3888920000000 1.0
C      1  0.4541820000000  0.5982150000000  0.4804870000000 1.0
C      1  0.5483860000000  0.5378260000000  0.5041380000000 1.0
C      1  0.4350810000000  0.4865390000000  0.4517370000000 1.0
C      1  0.4616630000000  0.5825210000000  0.4575680000000 1.0
C      1  0.5850650000000  0.5138680000000  0.4573800000000 1.0
C      1  0.4258760000000  0.5576960000000  0.4967480000000 1.0
C      1  0.4827330000000  0.4469320000000  0.5093390000000 1.0
C      1  0.6014280000000  0.5169270000000  0.5072100000000 1.0
C      1  0.5226890000000  0.4742090000000  0.5633720000000 1.0
C      1  0.5053820000000  0.5596680000000  0.4497660000000 1.0
C      1  0.5276400000000  0.6036130000000  0.4821130000000 1.0
C      1  0.5666910000000  0.6100270000000  0.5366080000000 1.0
C      1  0.4636210000000  0.4579590000000  0.4206650000000 1.0
C      1  0.4651050000000  0.4662940000000  0.5611030000000 1.0
C      1  0.4020120000000  0.4861350000000  0.5301950000000 1.0
C      1  0.4823160000000  0.4325330000000  0.5343230000000 1.0
C      1  0.5382450000000  0.5939310000000  0.4560200000000 1.0
C      1  0.4710910000000  0.3749970000000  0.4982140000000 1.0
C      1  0.4827960000000  0.5159860000000  0.4845390000000 1.0
C      1  0.5484960000000  0.5414120000000  0.5321020000000 1.0
C      1  0.4829970000000  0.5430040000000  0.4388340000000 1.0
C      1  0.5975490000000  0.5175520000000  0.4807860000000 1.0
C      1  0.5340180000000  0.5146990000000  0.4964350000000 1.0
C      1  0.4138560000000  0.5109780000000  0.4903800000000 1.0
C      1  0.5429110000000  0.5873270000000  0.5008620000000 1.0
C      1  0.5279640000000  0.5426190000000  0.5514230000000 1.0
C      1  0.4308930000000  0.4362380000000  0.4844930000000 1.0
C      1  0.4415800000000  0.5692040000000  0.5153100000000 1.0
C      1  0.4670330000000  0.4918050000000  0.5208920000000 1.0
C      1  0.4584460000000  0.4814110000000  0.5855740000000 1.0
C      1  0.5010940000000  0.4797600000000  0.4630740000000 1.0
C      1  0.4699260000000  0.4725830000000  0.5001670000000 1.0
C      1  0.5847620000000  0.4377790000000  0.5116850000000 1.0
C      1  0.4938260000000  0.3729400000000  0.4837860000000 1.0
END
