TITL C-612600-6631-103 -0.00101214927922653 125000 -654.367848681333 0 0 108 (C1) n - 1
REM
REM in /home/nfs/bkarasulu/CARBON/AIRSS/Generating-Clusters/TERSOFF/Only-C1/FIRE-HFTN
REM
REM
REM
REM
REM
REM ./C.cell (11c1c37f851c82e70ff6c80c92926a4b)
REM AIRSS Version 0.9.1 bugfix July 2018 build 013d7b7c2542+ Fri, 06 Jul 2018 19:26:36 +0100
REM compiler GCC version 9.2.1 20190827 (Red Hat 9.2.1-1)
REM options -cpp -mtune=generic -march=x86-64 -g -O0 -fpre-include=/usr/include/finclude/math-vector-fortran.h
REM seed -1537945142 1458040650 1665127493 -744725540 1870219764 1145331298 78300664 237393790 1775140590 295846196 867508352 905341285 1684663653 1760802957 1453692809 1535571604 -2113956307 -238001833 812792964 -822644577 1581878880 -1372977042 -1241891018 1000805361 -1302646939 1657619965 -480925321 487666485 823957141 -1026109832 1961682614 1758433975 -669505235
REM
CELL 1.54180   50.00000   50.00000   50.00000   90.00000   90.00000   90.00000
LATT -1
SFAC C  
C      1  0.4247350000000  0.4317460000000  0.5311000000000 1.0
C      1  0.4308000000000  0.5487690000000  0.4752860000000 1.0
C      1  0.4767380000000  0.5625090000000  0.4197420000000 1.0
C      1  0.5248050000000  0.4354530000000  0.3862010000000 1.0
C      1  0.4615610000000  0.5190620000000  0.4400230000000 1.0
C      1  0.5018310000000  0.4291260000000  0.5168000000000 1.0
C      1  0.4502800000000  0.4693030000000  0.4493340000000 1.0
C      1  0.5567120000000  0.4583010000000  0.5651170000000 1.0
C      1  0.5430710000000  0.4361530000000  0.5764320000000 1.0
C      1  0.4191540000000  0.4919600000000  0.5186630000000 1.0
C      1  0.4787360000000  0.5135760000000  0.4895880000000 1.0
C      1  0.4024890000000  0.4967210000000  0.4503230000000 1.0
C      1  0.5202580000000  0.5814990000000  0.4782300000000 1.0
C      1  0.5255990000000  0.5736870000000  0.5936150000000 1.0
C      1  0.5487300000000  0.5503050000000  0.5597300000000 1.0
C      1  0.5308690000000  0.5230610000000  0.5974130000000 1.0
C      1  0.4580550000000  0.5800490000000  0.4101900000000 1.0
C      1  0.4373140000000  0.5313850000000  0.4519760000000 1.0
C      1  0.5251670000000  0.4214330000000  0.5621960000000 1.0
C      1  0.5491930000000  0.5617090000000  0.5334860000000 1.0
C      1  0.5923410000000  0.4783010000000  0.5032070000000 1.0
C      1  0.5278300000000  0.5326460000000  0.4391430000000 1.0
C      1  0.5359870000000  0.5486670000000  0.5854040000000 1.0
C      1  0.5270480000000  0.4556940000000  0.3683560000000 1.0
C      1  0.5632010000000  0.5590620000000  0.4872100000000 1.0
C      1  0.5114980000000  0.4712970000000  0.4912380000000 1.0
C      1  0.4967750000000  0.4571670000000  0.5126640000000 1.0
C      1  0.4859580000000  0.4695250000000  0.5359660000000 1.0
C      1  0.4726280000000  0.5341050000000  0.4181120000000 1.0
C      1  0.5611140000000  0.4564020000000  0.5339480000000 1.0
C      1  0.4456910000000  0.5663760000000  0.4922190000000 1.0
C      1  0.4395580000000  0.5143040000000  0.5753690000000 1.0
C      1  0.5505260000000  0.5029170000000  0.5929350000000 1.0
C      1  0.5127800000000  0.4081800000000  0.4242740000000 1.0
C      1  0.5224510000000  0.5955700000000  0.5779480000000 1.0
C      1  0.4113400000000  0.4835960000000  0.4720970000000 1.0
C      1  0.5367790000000  0.5585930000000  0.4772370000000 1.0
C      1  0.5098900000000  0.4048880000000  0.4738090000000 1.0
C      1  0.3968740000000  0.5091290000000  0.5203330000000 1.0
C      1  0.5024130000000  0.5862260000000  0.4551570000000 1.0
C      1  0.6105670000000  0.4496880000000  0.5389780000000 1.0
C      1  0.5049620000000  0.5115870000000  0.6012740000000 1.0
C      1  0.5337360000000  0.4952210000000  0.5481790000000 1.0
C      1  0.5484690000000  0.4853790000000  0.5713020000000 1.0
C      1  0.4768740000000  0.5958090000000  0.4630760000000 1.0
C      1  0.5944260000000  0.5459470000000  0.4513810000000 1.0
C      1  0.5308870000000  0.3940640000000  0.4071360000000 1.0
C      1  0.5233470000000  0.5542060000000  0.4233340000000 1.0
C      1  0.5538960000000  0.4174450000000  0.4974190000000 1.0
C      1  0.5082780000000  0.5081170000000  0.5482130000000 1.0
C      1  0.4044130000000  0.5443310000000  0.4858340000000 1.0
C      1  0.3947450000000  0.4296170000000  0.5967120000000 1.0
C      1  0.5025800000000  0.5349820000000  0.5453390000000 1.0
C      1  0.4563060000000  0.4989530000000  0.4902970000000 1.0
C      1  0.5861840000000  0.4660060000000  0.4781880000000 1.0
C      1  0.4845420000000  0.4911700000000  0.5575730000000 1.0
C      1  0.4418600000000  0.4318490000000  0.4807490000000 1.0
C      1  0.4975840000000  0.4091130000000  0.4486110000000 1.0
C      1  0.4300570000000  0.5532370000000  0.5423930000000 1.0
C      1  0.4660300000000  0.5863540000000  0.4869100000000 1.0
C      1  0.4547400000000  0.4421710000000  0.4580690000000 1.0
C      1  0.5672190000000  0.5505910000000  0.5140230000000 1.0
C      1  0.5347100000000  0.4861450000000  0.5000280000000 1.0
C      1  0.4696330000000  0.4903320000000  0.4432550000000 1.0
C      1  0.4377340000000  0.4864380000000  0.5384530000000 1.0
C      1  0.4910940000000  0.4496360000000  0.4269030000000 1.0
C      1  0.4773530000000  0.4303240000000  0.4453900000000 1.0
C      1  0.6068390000000  0.5399140000000  0.5393520000000 1.0
C      1  0.5662890000000  0.5072340000000  0.4612450000000 1.0
C      1  0.5851620000000  0.5208960000000  0.4480340000000 1.0
C      1  0.5142090000000  0.4693030000000  0.4623140000000 1.0
C      1  0.4902410000000  0.4928480000000  0.5878770000000 1.0
C      1  0.4142980000000  0.4731030000000  0.5916200000000 1.0
C      1  0.5019780000000  0.5714020000000  0.4302740000000 1.0
C      1  0.3913080000000  0.5304800000000  0.5047880000000 1.0
C      1  0.4948460000000  0.4745540000000  0.4414240000000 1.0
C      1  0.5090160000000  0.4348610000000  0.4103450000000 1.0
C      1  0.4783040000000  0.5212100000000  0.3945250000000 1.0
C      1  0.4241990000000  0.4980420000000  0.5925870000000 1.0
C      1  0.4325350000000  0.4291190000000  0.5056590000000 1.0
C      1  0.5499940000000  0.5008750000000  0.4815820000000 1.0
C      1  0.5308200000000  0.5843500000000  0.5282810000000 1.0
C      1  0.5894990000000  0.4611040000000  0.5258990000000 1.0
C      1  0.4308230000000  0.5390890000000  0.5652310000000 1.0
C      1  0.4844210000000  0.5877750000000  0.5097150000000 1.0
C      1  0.4874380000000  0.5565920000000  0.5469680000000 1.0
C      1  0.4461160000000  0.5633440000000  0.5218780000000 1.0
C      1  0.5233580000000  0.5356400000000  0.4669420000000 1.0
C      1  0.5665320000000  0.4580040000000  0.4613630000000 1.0
C      1  0.4549500000000  0.4987700000000  0.5568410000000 1.0
C      1  0.4177830000000  0.4393370000000  0.5557770000000 1.0
C      1  0.5127100000000  0.5878870000000  0.5054800000000 1.0
C      1  0.4089400000000  0.4473570000000  0.5813750000000 1.0
C      1  0.5404400000000  0.4600570000000  0.4544530000000 1.0
C      1  0.5926440000000  0.5064400000000  0.5082950000000 1.0
C      1  0.5847100000000  0.5633220000000  0.4695590000000 1.0
C      1  0.5885010000000  0.5319980000000  0.5203710000000 1.0
C      1  0.5238040000000  0.4236770000000  0.5341300000000 1.0
C      1  0.5380550000000  0.4060800000000  0.4784670000000 1.0
C      1  0.5256690000000  0.6001630000000  0.5515270000000 1.0
C      1  0.4948690000000  0.4102910000000  0.4971900000000 1.0
C      1  0.5012290000000  0.5249610000000  0.4806690000000 1.0
C      1  0.5437580000000  0.4809100000000  0.5256160000000 1.0
C      1  0.4297990000000  0.4892630000000  0.4926250000000 1.0
C      1  0.4136630000000  0.5194070000000  0.4407830000000 1.0
C      1  0.5492130000000  0.4308560000000  0.5219890000000 1.0
C      1  0.5378680000000  0.4095930000000  0.3853100000000 1.0
C      1  0.4721660000000  0.5727270000000  0.5305480000000 1.0
END
