TITL C-612601-4209-966 344109.408898431 125000 -845.781439089749 0 0 144 (C1) n - 1
REM
REM in /home/nfs/bkarasulu/CARBON/AIRSS/Generating-Clusters/TERSOFF/Only-C1/FIRE-HFTN
REM
REM
REM
REM
REM
REM ./C.cell (11c1c37f851c82e70ff6c80c92926a4b)
REM AIRSS Version 0.9.1 bugfix July 2018 build 013d7b7c2542+ Fri, 06 Jul 2018 19:26:36 +0100
REM compiler GCC version 9.2.1 20190827 (Red Hat 9.2.1-1)
REM options -cpp -mtune=generic -march=x86-64 -g -O0 -fpre-include=/usr/include/finclude/math-vector-fortran.h
REM seed -1796811820 -168906309 -538665796 -900651298 989531214 -1337551456 -1002626876 453692645 1539643594 -730608573 -498133679 1462509763 -680077435 -694033585 -2129969043 2074338174 1210839414 1239441966 7828099 582895660 -746636150 -1767535971 -353867751 834489745 -1319753197 -2127084817 237632111 787466062 699601750 -384743634 -1530105876 1930463165 935608489
REM
CELL 1.54180   50.00000   50.00000   50.00000   90.00000   90.00000   90.00000
LATT -1
SFAC C  
C      1  0.5479220000000  0.5223090000000  0.4927870000000 1.0
C      1  0.5643680000000  0.5623650000000  0.4367820000000 1.0
C      1  0.4866630000000  0.5148710000000  0.6064060000000 1.0
C      1  0.5199750000000  0.5481460000000  0.4647700000000 1.0
C      1  0.5299550000000  0.4933970000000  0.6121360000000 1.0
C      1  0.4222520000000  0.5754290000000  0.5829400000000 1.0
C      1  0.3938320000000  0.5214130000000  0.4326470000000 1.0
C      1  0.5829640000000  0.4082440000000  0.5343930000000 1.0
C      1  0.3706370000000  0.5181590000000  0.6186570000000 1.0
C      1  0.4856240000000  0.5125470000000  0.5572050000000 1.0
C      1  0.5243440000000  0.4592260000000  0.4477870000000 1.0
C      1  0.4502520000000  0.4747350000000  0.4342590000000 1.0
C      1  0.5913390000000  0.5355850000000  0.5165520000000 1.0
C      1  0.4352770000000  0.5320300000000  0.5641370000000 1.0
C      1  0.4055920000000  0.4744370000000  0.5725460000000 1.0
C      1  0.5797380000000  0.4298770000000  0.4905090000000 1.0
C      1  0.4041770000000  0.5385600000000  0.4149870000000 1.0
C      1  0.4183600000000  0.4555600000000  0.5589380000000 1.0
C      1  0.5048270000000  0.5585630000000  0.5507380000000 1.0
C      1  0.5349120000000  0.4072340000000  0.5369370000000 1.0
C      1  0.5542620000000  0.5051120000000  0.6024970000000 1.0
C      1  0.5658700000000  0.5632310000000  0.4660370000000 1.0
C      1  0.4684230000000  0.4776270000000  0.5320330000000 1.0
C      1  0.5259990000000  0.5057890000000  0.3919440000000 1.0
C      1  0.5726960000000  0.4752650000000  0.5667610000000 1.0
C      1  0.5933270000000  0.4987400000000  0.4747070000000 1.0
C      1  0.4853700000000  0.4719440000000  0.3995550000000 1.0
C      1  0.4134260000000  0.4328450000000  0.5163160000000 1.0
C      1  0.5743180000000  0.5141430000000  0.4586570000000 1.0
C      1  0.4478510000000  0.4616690000000  0.4772830000000 1.0
C      1  0.5256780000000  0.5189350000000  0.4734700000000 1.0
C      1  0.3856870000000  0.6057850000000  0.4490120000000 1.0
C      1  0.5546450000000  0.4139540000000  0.4833770000000 1.0
C      1  0.5095440000000  0.4400890000000  0.5763280000000 1.0
C      1  0.6293850000000  0.4703700000000  0.4603030000000 1.0
C      1  0.5541650000000  0.4274360000000  0.5916320000000 1.0
C      1  0.3837250000000  0.5001040000000  0.4780830000000 1.0
C      1  0.6315050000000  0.4574950000000  0.5230610000000 1.0
C      1  0.5315370000000  0.5255270000000  0.5670450000000 1.0
C      1  0.4923070000000  0.5176800000000  0.5065600000000 1.0
C      1  0.4903370000000  0.6290280000000  0.5500140000000 1.0
C      1  0.4686480000000  0.4692150000000  0.4584880000000 1.0
C      1  0.5675190000000  0.5360980000000  0.4756570000000 1.0
C      1  0.4714260000000  0.4311440000000  0.5138100000000 1.0
C      1  0.4297140000000  0.4455570000000  0.5355450000000 1.0
C      1  0.5601440000000  0.4733430000000  0.5093470000000 1.0
C      1  0.5455290000000  0.4670280000000  0.5620350000000 1.0
C      1  0.4246630000000  0.5536170000000  0.4067710000000 1.0
C      1  0.5021170000000  0.4893470000000  0.6048580000000 1.0
C      1  0.4935980000000  0.5664450000000  0.4270060000000 1.0
C      1  0.4514650000000  0.5030660000000  0.5294760000000 1.0
C      1  0.5386330000000  0.5041580000000  0.4509100000000 1.0
C      1  0.4300120000000  0.5483870000000  0.5083230000000 1.0
C      1  0.5748010000000  0.4883780000000  0.5921520000000 1.0
C      1  0.4822910000000  0.5002590000000  0.4004630000000 1.0
C      1  0.4568890000000  0.4510300000000  0.5281800000000 1.0
C      1  0.5162840000000  0.5070490000000  0.4318780000000 1.0
C      1  0.3899170000000  0.5072900000000  0.5062730000000 1.0
C      1  0.5446910000000  0.5270930000000  0.4005250000000 1.0
C      1  0.4368350000000  0.4357590000000  0.4731230000000 1.0
C      1  0.5474960000000  0.6015140000000  0.5079750000000 1.0
C      1  0.5511590000000  0.4720400000000  0.4850320000000 1.0
C      1  0.5514490000000  0.5828360000000  0.4838500000000 1.0
C      1  0.4574070000000  0.5171910000000  0.5540420000000 1.0
C      1  0.4306350000000  0.5792900000000  0.4621350000000 1.0
C      1  0.5604340000000  0.4027210000000  0.5504650000000 1.0
C      1  0.5415640000000  0.4769840000000  0.4593750000000 1.0
C      1  0.4897900000000  0.4831030000000  0.4706440000000 1.0
C      1  0.4716390000000  0.4151100000000  0.4388190000000 1.0
C      1  0.5158740000000  0.4540420000000  0.5195990000000 1.0
C      1  0.4240190000000  0.4869970000000  0.4487630000000 1.0
C      1  0.4087350000000  0.5198770000000  0.5571320000000 1.0
C      1  0.5152220000000  0.4691780000000  0.4009060000000 1.0
C      1  0.4082370000000  0.5947150000000  0.4559540000000 1.0
C      1  0.5206440000000  0.5655220000000  0.4199720000000 1.0
C      1  0.5175480000000  0.6055870000000  0.5158060000000 1.0
C      1  0.5745080000000  0.4343060000000  0.4450890000000 1.0
C      1  0.5056050000000  0.5983060000000  0.4891050000000 1.0
C      1  0.5783000000000  0.5599750000000  0.5583140000000 1.0
C      1  0.4453360000000  0.5113690000000  0.4837100000000 1.0
C      1  0.4617500000000  0.5277390000000  0.4675980000000 1.0
C      1  0.5901130000000  0.4295380000000  0.5172490000000 1.0
C      1  0.5434610000000  0.5517660000000  0.5242440000000 1.0
C      1  0.5221430000000  0.5728970000000  0.4817820000000 1.0
C      1  0.5125030000000  0.4188090000000  0.5545930000000 1.0
C      1  0.4943660000000  0.3981560000000  0.4844910000000 1.0
C      1  0.3978860000000  0.5011430000000  0.5756120000000 1.0
C      1  0.4507150000000  0.5744660000000  0.4426590000000 1.0
C      1  0.4488060000000  0.5650580000000  0.4149550000000 1.0
C      1  0.5882960000000  0.4466600000000  0.4678100000000 1.0
C      1  0.4331480000000  0.5675160000000  0.4877960000000 1.0
C      1  0.4556410000000  0.4155820000000  0.4644620000000 1.0
C      1  0.4898900000000  0.5806470000000  0.5561180000000 1.0
C      1  0.5375130000000  0.4468050000000  0.5800250000000 1.0
C      1  0.6037090000000  0.4511960000000  0.5292240000000 1.0
C      1  0.5035390000000  0.5342650000000  0.5673680000000 1.0
C      1  0.5070390000000  0.4238090000000  0.4856060000000 1.0
C      1  0.5700450000000  0.5490420000000  0.5816360000000 1.0
C      1  0.3965600000000  0.5235120000000  0.5301820000000 1.0
C      1  0.5118890000000  0.4415920000000  0.4653510000000 1.0
C      1  0.4615210000000  0.4312230000000  0.4173800000000 1.0
C      1  0.4697240000000  0.5640090000000  0.5814210000000 1.0
C      1  0.4946050000000  0.4864750000000  0.5464290000000 1.0
C      1  0.4629870000000  0.4590640000000  0.4127820000000 1.0
C      1  0.4770970000000  0.5512200000000  0.4768280000000 1.0
C      1  0.5504120000000  0.4169770000000  0.4515230000000 1.0
C      1  0.5954940000000  0.4706070000000  0.5509000000000 1.0
C      1  0.3583250000000  0.4889940000000  0.4748950000000 1.0
C      1  0.4671800000000  0.4049950000000  0.4884630000000 1.0
C      1  0.4891350000000  0.5095130000000  0.4269020000000 1.0
C      1  0.6196160000000  0.4868630000000  0.5551530000000 1.0
C      1  0.5269970000000  0.4193250000000  0.4293170000000 1.0
C      1  0.6402530000000  0.4785980000000  0.5386380000000 1.0
C      1  0.4334880000000  0.4864700000000  0.4772280000000 1.0
C      1  0.4419560000000  0.5575920000000  0.5763010000000 1.0
C      1  0.4418730000000  0.5213840000000  0.5092950000000 1.0
C      1  0.5248850000000  0.4834870000000  0.5483250000000 1.0
C      1  0.4917230000000  0.5459740000000  0.5028990000000 1.0
C      1  0.4867860000000  0.5413100000000  0.5925270000000 1.0
C      1  0.3818250000000  0.5094990000000  0.5967660000000 1.0
C      1  0.4687560000000  0.5194920000000  0.4422020000000 1.0
C      1  0.5625130000000  0.4055000000000  0.5783490000000 1.0
C      1  0.6028450000000  0.4719110000000  0.4680030000000 1.0
C      1  0.4991760000000  0.6044660000000  0.5408240000000 1.0
C      1  0.5249370000000  0.4488870000000  0.4209950000000 1.0
C      1  0.4999780000000  0.4076270000000  0.4341080000000 1.0
C      1  0.5030000000000  0.5033630000000  0.4848510000000 1.0
C      1  0.4053440000000  0.5493900000000  0.5218360000000 1.0
C      1  0.5364650000000  0.5093670000000  0.5438460000000 1.0
C      1  0.5510200000000  0.5289610000000  0.5870500000000 1.0
C      1  0.4993210000000  0.5167850000000  0.3839630000000 1.0
C      1  0.5726980000000  0.5543700000000  0.5309720000000 1.0
C      1  0.4879270000000  0.5434210000000  0.3839700000000 1.0
C      1  0.5429070000000  0.5227630000000  0.5203030000000 1.0
C      1  0.4151770000000  0.4288940000000  0.4897620000000 1.0
C      1  0.5397060000000  0.4056360000000  0.5075460000000 1.0
C      1  0.5455090000000  0.5518680000000  0.4173050000000 1.0
C      1  0.4959460000000  0.4626590000000  0.5915860000000 1.0
C      1  0.5179250000000  0.5589010000000  0.5091240000000 1.0
C      1  0.4984290000000  0.4367980000000  0.5090940000000 1.0
C      1  0.5990400000000  0.5143030000000  0.4999910000000 1.0
C      1  0.4756030000000  0.5596820000000  0.4044500000000 1.0
C      1  0.4779180000000  0.5688060000000  0.4525340000000 1.0
C      1  0.3991250000000  0.5019940000000  0.4523070000000 1.0
END
