TITL C-612600-6631-173 1.55506200413572 125000 -169.902617773409 0 0 29 (C1) n - 1
REM
REM in /home/nfs/bkarasulu/CARBON/AIRSS/Generating-Clusters/TERSOFF/Only-C1/FIRE-HFTN
REM
REM
REM
REM
REM
REM ./C.cell (11c1c37f851c82e70ff6c80c92926a4b)
REM AIRSS Version 0.9.1 bugfix July 2018 build 013d7b7c2542+ Fri, 06 Jul 2018 19:26:36 +0100
REM compiler GCC version 9.2.1 20190827 (Red Hat 9.2.1-1)
REM options -cpp -mtune=generic -march=x86-64 -g -O0 -fpre-include=/usr/include/finclude/math-vector-fortran.h
REM seed -2039884282 -182714142 488890519 -812321303 287062642 1367066137 1600837503 361664854 916435785 1537596540 -427295726 -135101299 999978054 532902394 1095224435 -726259064 1655794181 1196601302 -636132022 -1379115849 1686712051 1102086851 1533739679 1451393560 1819057542 1382331256 -1866480212 -488377385 -2119042256 33318110 1971380368 -989503342 815321963
REM
CELL 1.54180   50.00000   50.00000   50.00000   90.00000   90.00000   90.00000
LATT -1
SFAC C  
C      1  0.5521650000000  0.4205840000000  0.5052780000000 1.0
C      1  0.4425990000000  0.5132550000000  0.5564330000000 1.0
C      1  0.4328750000000  0.4236600000000  0.6229340000000 1.0
C      1  0.5084380000000  0.4489960000000  0.5205070000000 1.0
C      1  0.5276120000000  0.5451640000000  0.4397620000000 1.0
C      1  0.4300620000000  0.4926520000000  0.5983860000000 1.0
C      1  0.4314990000000  0.5144000000000  0.5822860000000 1.0
C      1  0.5721890000000  0.5705140000000  0.3790140000000 1.0
C      1  0.5127540000000  0.5367120000000  0.4600110000000 1.0
C      1  0.4532420000000  0.5340690000000  0.5408970000000 1.0
C      1  0.4359020000000  0.4446780000000  0.6078260000000 1.0
C      1  0.5870490000000  0.5789630000000  0.3587640000000 1.0
C      1  0.4526330000000  0.4654060000000  0.5660470000000 1.0
C      1  0.5731470000000  0.4069450000000  0.4979700000000 1.0
C      1  0.4934880000000  0.4419420000000  0.5433060000000 1.0
C      1  0.4394640000000  0.4668150000000  0.5914220000000 1.0
C      1  0.6019120000000  0.5874150000000  0.3385100000000 1.0
C      1  0.5424710000000  0.5536140000000  0.4195120000000 1.0
C      1  0.4731510000000  0.4473010000000  0.5597750000000 1.0
C      1  0.4478540000000  0.4864660000000  0.5470650000000 1.0
C      1  0.6165300000000  0.5957280000000  0.3185890000000 1.0
C      1  0.4979360000000  0.5281950000000  0.4802460000000 1.0
C      1  0.5308410000000  0.4344450000000  0.5127040000000 1.0
C      1  0.4792640000000  0.4906900000000  0.5063380000000 1.0
C      1  0.4996800000000  0.4714840000000  0.5059340000000 1.0
C      1  0.5573300000000  0.5620640000000  0.3992630000000 1.0
C      1  0.4557920000000  0.4834060000000  0.5203050000000 1.0
C      1  0.4694010000000  0.5358370000000  0.5194800000000 1.0
C      1  0.4827210000000  0.5186010000000  0.5014370000000 1.0
END
