TITL C-612605-9286-880 -12.4301940959156 125000 -913.248894786676 0 0 151 (C1) n - 1
REM
REM in /home/nfs/bkarasulu/CARBON/AIRSS/Generating-Clusters/TERSOFF/Only-C1/FIRE-HFTN
REM
REM
REM
REM
REM
REM ./C.cell (11c1c37f851c82e70ff6c80c92926a4b)
REM AIRSS Version 0.9.1 bugfix July 2018 build 013d7b7c2542+ Fri, 06 Jul 2018 19:26:36 +0100
REM compiler GCC version 9.2.1 20190827 (Red Hat 9.2.1-1)
REM options -cpp -mtune=generic -march=x86-64 -g -O0 -fpre-include=/usr/include/finclude/math-vector-fortran.h
REM seed 653540721 -380164915 -1824757854 -1547704164 1730612535 412293192 -1829952384 1823767495 -467074768 1027628629 -1103846543 -1399270922 -1143982224 -858652690 -1748825777 596181751 -1216918341 1485268396 -880378443 -868346437 -1418727116 -630556240 -1333076084 952186180 411951553 560149781 -1677773186 -808655342 557698149 -1208650404 1052802915 -1089356300 2045912645
REM
CELL 1.54180   50.00000   50.00000   50.00000   90.00000   90.00000   90.00000
LATT -1
SFAC C  
C      1  0.5153350000000  0.6063960000000  0.4807520000000 1.0
C      1  0.5653090000000  0.4979970000000  0.4273400000000 1.0
C      1  0.4327320000000  0.4368280000000  0.5718080000000 1.0
C      1  0.4936660000000  0.5016870000000  0.5347310000000 1.0
C      1  0.5489470000000  0.5043190000000  0.5826560000000 1.0
C      1  0.4614760000000  0.4656600000000  0.5372730000000 1.0
C      1  0.5934570000000  0.4585400000000  0.4466610000000 1.0
C      1  0.6282480000000  0.5310180000000  0.5041720000000 1.0
C      1  0.4500850000000  0.5648890000000  0.5412970000000 1.0
C      1  0.3777350000000  0.4787370000000  0.4730380000000 1.0
C      1  0.5104050000000  0.4773010000000  0.5334860000000 1.0
C      1  0.4514240000000  0.4235600000000  0.5521770000000 1.0
C      1  0.5329900000000  0.5602530000000  0.4318530000000 1.0
C      1  0.5169960000000  0.5154010000000  0.4344910000000 1.0
C      1  0.5679720000000  0.4836890000000  0.5910990000000 1.0
C      1  0.5528960000000  0.5108410000000  0.5529120000000 1.0
C      1  0.5248700000000  0.4694150000000  0.5573540000000 1.0
C      1  0.5343760000000  0.5316920000000  0.5409830000000 1.0
C      1  0.5835060000000  0.4320380000000  0.4916140000000 1.0
C      1  0.4328090000000  0.5207650000000  0.4084520000000 1.0
C      1  0.6797040000000  0.5253080000000  0.5188920000000 1.0
C      1  0.4879680000000  0.4560740000000  0.5307640000000 1.0
C      1  0.4404960000000  0.4607020000000  0.4364620000000 1.0
C      1  0.5341940000000  0.4362840000000  0.4770290000000 1.0
C      1  0.5125210000000  0.5431520000000  0.5591780000000 1.0
C      1  0.4828260000000  0.4315630000000  0.4219220000000 1.0
C      1  0.4617860000000  0.5060610000000  0.6046030000000 1.0
C      1  0.5784100000000  0.5962350000000  0.5567970000000 1.0
C      1  0.4328140000000  0.4356990000000  0.4490250000000 1.0
C      1  0.5023150000000  0.3843290000000  0.5384810000000 1.0
C      1  0.5309900000000  0.4690880000000  0.5123120000000 1.0
C      1  0.4501030000000  0.4192660000000  0.4942670000000 1.0
C      1  0.4586850000000  0.4777760000000  0.5996900000000 1.0
C      1  0.5653160000000  0.4067990000000  0.5277640000000 1.0
C      1  0.5385690000000  0.4892700000000  0.4936070000000 1.0
C      1  0.5086910000000  0.4675010000000  0.4295720000000 1.0
C      1  0.5868450000000  0.4521410000000  0.5116970000000 1.0
C      1  0.4386920000000  0.4932150000000  0.4007240000000 1.0
C      1  0.5837320000000  0.4788510000000  0.4320240000000 1.0
C      1  0.4827740000000  0.4374060000000  0.5881800000000 1.0
C      1  0.5004670000000  0.5016290000000  0.3939520000000 1.0
C      1  0.5975960000000  0.5587300000000  0.4813330000000 1.0
C      1  0.4862510000000  0.4517370000000  0.4710210000000 1.0
C      1  0.5567710000000  0.5696580000000  0.4211970000000 1.0
C      1  0.4086250000000  0.4243490000000  0.5768290000000 1.0
C      1  0.4752110000000  0.5829210000000  0.4981710000000 1.0
C      1  0.4771760000000  0.5087910000000  0.5124580000000 1.0
C      1  0.5351520000000  0.4633150000000  0.4370270000000 1.0
C      1  0.4607570000000  0.6157480000000  0.5272550000000 1.0
C      1  0.5137040000000  0.4953120000000  0.4822700000000 1.0
C      1  0.5769570000000  0.4697320000000  0.5658580000000 1.0
C      1  0.3972890000000  0.5628670000000  0.4568100000000 1.0
C      1  0.4728790000000  0.5358740000000  0.5103620000000 1.0
C      1  0.5251800000000  0.3891210000000  0.4693720000000 1.0
C      1  0.4472660000000  0.4661430000000  0.4083620000000 1.0
C      1  0.5469950000000  0.5146200000000  0.4419700000000 1.0
C      1  0.4923480000000  0.4772930000000  0.4818790000000 1.0
C      1  0.4922540000000  0.5176070000000  0.4516210000000 1.0
C      1  0.4510600000000  0.5085260000000  0.5577000000000 1.0
C      1  0.4177290000000  0.4393390000000  0.5195910000000 1.0
C      1  0.5614440000000  0.4370970000000  0.5956380000000 1.0
C      1  0.4750210000000  0.5620270000000  0.5236930000000 1.0
C      1  0.5428040000000  0.4391030000000  0.4496510000000 1.0
C      1  0.4494730000000  0.5992210000000  0.5051100000000 1.0
C      1  0.4414040000000  0.4859070000000  0.5412740000000 1.0
C      1  0.4974440000000  0.5655180000000  0.5458600000000 1.0
C      1  0.6153210000000  0.5562300000000  0.5028770000000 1.0
C      1  0.4057880000000  0.5090780000000  0.5587010000000 1.0
C      1  0.5253390000000  0.4416220000000  0.5037200000000 1.0
C      1  0.4416850000000  0.5534010000000  0.4652270000000 1.0
C      1  0.4902240000000  0.6114600000000  0.5313290000000 1.0
C      1  0.5216260000000  0.5050000000000  0.5930590000000 1.0
C      1  0.4959550000000  0.4750650000000  0.4041590000000 1.0
C      1  0.4666600000000  0.5613180000000  0.4234700000000 1.0
C      1  0.5863160000000  0.4982840000000  0.4996490000000 1.0
C      1  0.4621050000000  0.5658740000000  0.4513520000000 1.0
C      1  0.4034420000000  0.5551270000000  0.5353390000000 1.0
C      1  0.4985740000000  0.6033320000000  0.5042890000000 1.0
C      1  0.4254520000000  0.5139410000000  0.4873590000000 1.0
C      1  0.4343780000000  0.4163930000000  0.4692950000000 1.0
C      1  0.4645620000000  0.4430550000000  0.4873460000000 1.0
C      1  0.4245530000000  0.5924630000000  0.4913300000000 1.0
C      1  0.4913720000000  0.5726060000000  0.4146640000000 1.0
C      1  0.4271120000000  0.5521360000000  0.5509700000000 1.0
C      1  0.6548130000000  0.5279160000000  0.5116270000000 1.0
C      1  0.5674470000000  0.4088690000000  0.4994460000000 1.0
C      1  0.4387920000000  0.4610630000000  0.5868980000000 1.0
C      1  0.5667250000000  0.4617990000000  0.6097700000000 1.0
C      1  0.5483840000000  0.3938430000000  0.4833510000000 1.0
C      1  0.4784530000000  0.5810710000000  0.4682260000000 1.0
C      1  0.4834800000000  0.4639470000000  0.6007530000000 1.0
C      1  0.5041190000000  0.4324950000000  0.5229730000000 1.0
C      1  0.4989180000000  0.5985980000000  0.4573510000000 1.0
C      1  0.4790510000000  0.4220440000000  0.5635560000000 1.0
C      1  0.5334800000000  0.4335340000000  0.5874810000000 1.0
C      1  0.4200050000000  0.5701950000000  0.4726040000000 1.0
C      1  0.4082740000000  0.5291610000000  0.4204890000000 1.0
C      1  0.5234100000000  0.4596420000000  0.5830110000000 1.0
C      1  0.3663570000000  0.4993920000000  0.4607490000000 1.0
C      1  0.5049760000000  0.3939420000000  0.4512230000000 1.0
C      1  0.4483190000000  0.4670860000000  0.4948300000000 1.0
C      1  0.6130260000000  0.5735480000000  0.5246730000000 1.0
C      1  0.4095490000000  0.5127420000000  0.5105730000000 1.0
C      1  0.6116570000000  0.5095480000000  0.4970270000000 1.0
C      1  0.4206790000000  0.4603330000000  0.5002820000000 1.0
C      1  0.5716620000000  0.4878840000000  0.5439420000000 1.0
C      1  0.5608390000000  0.5250100000000  0.4664050000000 1.0
C      1  0.5266990000000  0.4106310000000  0.4142290000000 1.0
C      1  0.5719590000000  0.5523600000000  0.4726550000000 1.0
C      1  0.3703680000000  0.5230450000000  0.4491640000000 1.0
C      1  0.5004210000000  0.4080510000000  0.4257150000000 1.0
C      1  0.4527630000000  0.5411690000000  0.4091680000000 1.0
C      1  0.5585640000000  0.4203490000000  0.5513450000000 1.0
C      1  0.4520510000000  0.4838410000000  0.4492840000000 1.0
C      1  0.5049930000000  0.4130760000000  0.5472010000000 1.0
C      1  0.5314180000000  0.4173210000000  0.5630350000000 1.0
C      1  0.3983270000000  0.4669780000000  0.4849600000000 1.0
C      1  0.5620660000000  0.5045630000000  0.4867490000000 1.0
C      1  0.5314890000000  0.5409680000000  0.5125620000000 1.0
C      1  0.5104540000000  0.5248050000000  0.4077690000000 1.0
C      1  0.4991820000000  0.5969800000000  0.4288530000000 1.0
C      1  0.5734310000000  0.4069310000000  0.4268220000000 1.0
C      1  0.4291220000000  0.5266170000000  0.5639500000000 1.0
C      1  0.3954430000000  0.5368140000000  0.5169340000000 1.0
C      1  0.4405690000000  0.4212750000000  0.5233600000000 1.0
C      1  0.5738960000000  0.4400810000000  0.5676190000000 1.0
C      1  0.4141870000000  0.4954990000000  0.5335650000000 1.0
C      1  0.5053250000000  0.5282800000000  0.5854800000000 1.0
C      1  0.5534210000000  0.6014350000000  0.5642930000000 1.0
C      1  0.5523690000000  0.5736640000000  0.4728700000000 1.0
C      1  0.5052460000000  0.5213120000000  0.4768150000000 1.0
C      1  0.5830150000000  0.4789300000000  0.5196610000000 1.0
C      1  0.4630910000000  0.5098520000000  0.4541880000000 1.0
C      1  0.4029630000000  0.6089960000000  0.4962830000000 1.0
C      1  0.4436190000000  0.5257530000000  0.4691380000000 1.0
C      1  0.4914710000000  0.4490030000000  0.4441090000000 1.0
C      1  0.5991930000000  0.5868540000000  0.5431020000000 1.0
C      1  0.4736220000000  0.4542840000000  0.4023210000000 1.0
C      1  0.5489770000000  0.4184830000000  0.4303340000000 1.0
C      1  0.3910100000000  0.5400450000000  0.4405070000000 1.0
C      1  0.5431360000000  0.5991230000000  0.4811730000000 1.0
C      1  0.5268160000000  0.6013120000000  0.5633100000000 1.0
C      1  0.5089040000000  0.4781140000000  0.5991460000000 1.0
C      1  0.4794650000000  0.5265120000000  0.5988550000000 1.0
C      1  0.5030640000000  0.5940160000000  0.5504670000000 1.0
C      1  0.5203560000000  0.5433230000000  0.4848520000000 1.0
C      1  0.4690740000000  0.4875130000000  0.4961270000000 1.0
C      1  0.5298000000000  0.5593410000000  0.4614200000000 1.0
C      1  0.5124350000000  0.5535610000000  0.4122870000000 1.0
C      1  0.5925170000000  0.4399340000000  0.4660480000000 1.0
C      1  0.4789040000000  0.5090320000000  0.5575010000000 1.0
END
