TITL C-612602-9376-1024 -0.0674210878514589 125000 -829.285354729256 0 0 134 (C1) n - 1
REM
REM in /home/nfs/bkarasulu/CARBON/AIRSS/Generating-Clusters/TERSOFF/Only-C1/FIRE-HFTN
REM
REM
REM
REM
REM
REM ./C.cell (11c1c37f851c82e70ff6c80c92926a4b)
REM AIRSS Version 0.9.1 bugfix July 2018 build 013d7b7c2542+ Fri, 06 Jul 2018 19:26:36 +0100
REM compiler GCC version 9.2.1 20190827 (Red Hat 9.2.1-1)
REM options -cpp -mtune=generic -march=x86-64 -g -O0 -fpre-include=/usr/include/finclude/math-vector-fortran.h
REM seed 1555746839 -2049551157 -1592219065 277946757 89599898 -1088360431 2034850896 1134435529 1769004890 -95192528 1417416558 40422490 -2101550884 -2119479261 1390340351 279129532 2065889445 -657732536 -163288793 1421935096 1229863363 -854754907 640134526 1594901933 -124030089 -958720587 988874322 1238138560 -938682073 -1621024006 -744709471 -675403803 1770387347
REM
CELL 1.54180   50.00000   50.00000   50.00000   90.00000   90.00000   90.00000
LATT -1
SFAC C  
C      1  0.4453780000000  0.5223520000000  0.4844770000000 1.0
C      1  0.4850130000000  0.3799070000000  0.5235820000000 1.0
C      1  0.5818470000000  0.5402430000000  0.5025500000000 1.0
C      1  0.6138960000000  0.4963670000000  0.4045200000000 1.0
C      1  0.5341910000000  0.4343330000000  0.5115020000000 1.0
C      1  0.5212400000000  0.4281210000000  0.4303490000000 1.0
C      1  0.4969160000000  0.5599880000000  0.6137950000000 1.0
C      1  0.5272750000000  0.4952460000000  0.5920900000000 1.0
C      1  0.6384360000000  0.5956580000000  0.4970000000000 1.0
C      1  0.5708490000000  0.4597800000000  0.5645300000000 1.0
C      1  0.6560650000000  0.6147880000000  0.4952880000000 1.0
C      1  0.5213670000000  0.5909510000000  0.5869500000000 1.0
C      1  0.3818460000000  0.5216850000000  0.4828610000000 1.0
C      1  0.4261260000000  0.4561850000000  0.4587980000000 1.0
C      1  0.5242580000000  0.4027410000000  0.4229090000000 1.0
C      1  0.4667230000000  0.5921120000000  0.4627650000000 1.0
C      1  0.4284380000000  0.5187740000000  0.5902530000000 1.0
C      1  0.4252630000000  0.4363440000000  0.5561240000000 1.0
C      1  0.5019970000000  0.5138150000000  0.5966270000000 1.0
C      1  0.4700560000000  0.3803430000000  0.5462070000000 1.0
C      1  0.5188090000000  0.4681840000000  0.6008840000000 1.0
C      1  0.4410110000000  0.4948180000000  0.4809850000000 1.0
C      1  0.5294060000000  0.6317970000000  0.4442930000000 1.0
C      1  0.4801900000000  0.5098090000000  0.5789520000000 1.0
C      1  0.5097500000000  0.4446380000000  0.5922680000000 1.0
C      1  0.4328340000000  0.4360940000000  0.4780460000000 1.0
C      1  0.4581540000000  0.6031070000000  0.5362790000000 1.0
C      1  0.5190480000000  0.4991340000000  0.3932140000000 1.0
C      1  0.6059940000000  0.4522300000000  0.4241950000000 1.0
C      1  0.3659190000000  0.5015850000000  0.4894280000000 1.0
C      1  0.4484440000000  0.5753380000000  0.4492230000000 1.0
C      1  0.5395570000000  0.5758680000000  0.5423780000000 1.0
C      1  0.4376110000000  0.5000670000000  0.4311800000000 1.0
C      1  0.5133980000000  0.5742220000000  0.4865980000000 1.0
C      1  0.4577150000000  0.3988650000000  0.5615660000000 1.0
C      1  0.5517840000000  0.5911480000000  0.5219020000000 1.0
C      1  0.4150710000000  0.4398350000000  0.5293110000000 1.0
C      1  0.4521810000000  0.4267630000000  0.5593800000000 1.0
C      1  0.5467130000000  0.5084950000000  0.6112020000000 1.0
C      1  0.4758670000000  0.5849740000000  0.5489970000000 1.0
C      1  0.4900790000000  0.5772640000000  0.5027300000000 1.0
C      1  0.5208970000000  0.5014010000000  0.4829210000000 1.0
C      1  0.4333920000000  0.4403570000000  0.5076920000000 1.0
C      1  0.3597260000000  0.4783860000000  0.5006920000000 1.0
C      1  0.5086010000000  0.5349070000000  0.6154660000000 1.0
C      1  0.5401270000000  0.5859850000000  0.5685690000000 1.0
C      1  0.6018760000000  0.5574620000000  0.5006090000000 1.0
C      1  0.4927220000000  0.4895320000000  0.3882880000000 1.0
C      1  0.5203560000000  0.5300340000000  0.5278140000000 1.0
C      1  0.5674870000000  0.4923270000000  0.5021980000000 1.0
C      1  0.5111470000000  0.3796360000000  0.4202050000000 1.0
C      1  0.5725700000000  0.5132990000000  0.4279000000000 1.0
C      1  0.4263140000000  0.5400030000000  0.4734230000000 1.0
C      1  0.4486410000000  0.4861440000000  0.4083460000000 1.0
C      1  0.5765280000000  0.4212200000000  0.5345050000000 1.0
C      1  0.4727540000000  0.4169250000000  0.4958930000000 1.0
C      1  0.4966010000000  0.5799250000000  0.5940650000000 1.0
C      1  0.5104700000000  0.5348060000000  0.4273930000000 1.0
C      1  0.4869690000000  0.3698840000000  0.4260940000000 1.0
C      1  0.5351850000000  0.5296050000000  0.6248150000000 1.0
C      1  0.5469700000000  0.5045650000000  0.4356160000000 1.0
C      1  0.4763110000000  0.4721200000000  0.5481640000000 1.0
C      1  0.5428450000000  0.4201530000000  0.5689650000000 1.0
C      1  0.5384160000000  0.4957510000000  0.3740990000000 1.0
C      1  0.4467620000000  0.4943730000000  0.3804380000000 1.0
C      1  0.4885940000000  0.5438290000000  0.4123820000000 1.0
C      1  0.4539880000000  0.4158880000000  0.4738210000000 1.0
C      1  0.5322370000000  0.5267520000000  0.4993380000000 1.0
C      1  0.4721180000000  0.4969160000000  0.3691890000000 1.0
C      1  0.3881070000000  0.5691710000000  0.4820070000000 1.0
C      1  0.5953330000000  0.5130820000000  0.4141080000000 1.0
C      1  0.5120650000000  0.4777970000000  0.4989440000000 1.0
C      1  0.5351540000000  0.4960150000000  0.5626510000000 1.0
C      1  0.3885000000000  0.5955590000000  0.4849010000000 1.0
C      1  0.4590400000000  0.4793250000000  0.4958670000000 1.0
C      1  0.5553430000000  0.4795420000000  0.5507610000000 1.0
C      1  0.5064760000000  0.4492880000000  0.4365590000000 1.0
C      1  0.5142950000000  0.5074960000000  0.5454670000000 1.0
C      1  0.5123010000000  0.4194340000000  0.5214870000000 1.0
C      1  0.4537130000000  0.3957850000000  0.4546900000000 1.0
C      1  0.5257210000000  0.5124480000000  0.4179000000000 1.0
C      1  0.6178970000000  0.4701070000000  0.4082540000000 1.0
C      1  0.4355130000000  0.5500150000000  0.4485520000000 1.0
C      1  0.4769310000000  0.4774260000000  0.4099510000000 1.0
C      1  0.4879340000000  0.4976840000000  0.5540000000000 1.0
C      1  0.6059750000000  0.4261190000000  0.4991190000000 1.0
C      1  0.4422100000000  0.5295530000000  0.4294130000000 1.0
C      1  0.4730290000000  0.4420820000000  0.5430280000000 1.0
C      1  0.4320100000000  0.4842120000000  0.4557700000000 1.0
C      1  0.4738540000000  0.5826170000000  0.5772790000000 1.0
C      1  0.5654060000000  0.4799950000000  0.4758340000000 1.0
C      1  0.5156890000000  0.6125410000000  0.4579090000000 1.0
C      1  0.4613280000000  0.4358450000000  0.5149820000000 1.0
C      1  0.4623870000000  0.5383090000000  0.4114090000000 1.0
C      1  0.3676400000000  0.4568160000000  0.5139920000000 1.0
C      1  0.5317130000000  0.4626180000000  0.5119500000000 1.0
C      1  0.4489650000000  0.5832760000000  0.5888920000000 1.0
C      1  0.4893190000000  0.4710250000000  0.4340710000000 1.0
C      1  0.5886460000000  0.4498450000000  0.4442270000000 1.0
C      1  0.5232380000000  0.5491880000000  0.4789030000000 1.0
C      1  0.3990660000000  0.5434820000000  0.4803980000000 1.0
C      1  0.4538250000000  0.5159080000000  0.5851170000000 1.0
C      1  0.5177270000000  0.5576760000000  0.5364320000000 1.0
C      1  0.5771100000000  0.4547610000000  0.4692660000000 1.0
C      1  0.3957640000000  0.4498930000000  0.5991870000000 1.0
C      1  0.5272810000000  0.5979990000000  0.4795590000000 1.0
C      1  0.4735110000000  0.5270670000000  0.4846340000000 1.0
C      1  0.5801140000000  0.4343440000000  0.4886350000000 1.0
C      1  0.6086560000000  0.4736440000000  0.6003710000000 1.0
C      1  0.4871510000000  0.4913610000000  0.4527100000000 1.0
C      1  0.4098410000000  0.4428050000000  0.5784330000000 1.0
C      1  0.5432090000000  0.4932190000000  0.4619520000000 1.0
C      1  0.5159500000000  0.4285690000000  0.5702380000000 1.0
C      1  0.5610750000000  0.4259990000000  0.5095650000000 1.0
C      1  0.4288580000000  0.6199520000000  0.5008090000000 1.0
C      1  0.5476100000000  0.6036040000000  0.4982620000000 1.0
C      1  0.6037950000000  0.4185990000000  0.5256470000000 1.0
C      1  0.6204520000000  0.5762660000000  0.4987510000000 1.0
C      1  0.4515620000000  0.6061930000000  0.5091290000000 1.0
C      1  0.5540340000000  0.4775050000000  0.5224910000000 1.0
C      1  0.5904570000000  0.4669480000000  0.5829630000000 1.0
C      1  0.5659250000000  0.4321050000000  0.5582290000000 1.0
C      1  0.4960150000000  0.5140670000000  0.4690160000000 1.0
C      1  0.4846370000000  0.4733840000000  0.4999870000000 1.0
C      1  0.5621340000000  0.5207150000000  0.5019130000000 1.0
C      1  0.4648600000000  0.3774860000000  0.4389420000000 1.0
C      1  0.5101390000000  0.5373830000000  0.4556380000000 1.0
C      1  0.4041090000000  0.6160140000000  0.4917810000000 1.0
C      1  0.3878170000000  0.4432150000000  0.5245670000000 1.0
C      1  0.4888160000000  0.6056470000000  0.4512040000000 1.0
C      1  0.4677900000000  0.5910830000000  0.4913780000000 1.0
C      1  0.5008200000000  0.4294420000000  0.5462230000000 1.0
C      1  0.4937730000000  0.4021280000000  0.5079230000000 1.0
C      1  0.4930630000000  0.5711740000000  0.5306820000000 1.0
END
