TITL C-612606-7351-226 0.00727142980406379 125000 -622.113784013197 0 0 101 (C1) n - 1
REM
REM in /home/nfs/bkarasulu/CARBON/AIRSS/Generating-Clusters/TERSOFF/Only-C1/FIRE-HFTN
REM
REM
REM
REM
REM
REM ./C.cell (11c1c37f851c82e70ff6c80c92926a4b)
REM AIRSS Version 0.9.1 bugfix July 2018 build 013d7b7c2542+ Fri, 06 Jul 2018 19:26:36 +0100
REM compiler GCC version 9.2.1 20190827 (Red Hat 9.2.1-1)
REM options -cpp -mtune=generic -march=x86-64 -g -O0 -fpre-include=/usr/include/finclude/math-vector-fortran.h
REM seed -295222734 363798745 -478125899 656265096 1904318195 -928126563 1108846497 1368527044 -1610575087 186336837 1095495471 1791050960 -72914996 73889858 -889993439 1383258580 -301621346 1305619825 -830302855 -934852514 1840609357 -1439962925 1426583213 155676016 1765334022 59247080 1225805658 1753147902 1667619159 215571124 -292741635 -2077879280 -1382487090
REM
CELL 1.54180   50.00000   50.00000   50.00000   90.00000   90.00000   90.00000
LATT -1
SFAC C  
C      1  0.4465730000000  0.5070770000000  0.5762710000000 1.0
C      1  0.4880170000000  0.5549780000000  0.5268550000000 1.0
C      1  0.5158840000000  0.5265450000000  0.3735580000000 1.0
C      1  0.4118850000000  0.5190740000000  0.5096640000000 1.0
C      1  0.4481030000000  0.5604630000000  0.4529090000000 1.0
C      1  0.5249430000000  0.5487740000000  0.5630440000000 1.0
C      1  0.5078660000000  0.4967710000000  0.5463850000000 1.0
C      1  0.4711810000000  0.4503650000000  0.5714340000000 1.0
C      1  0.4569140000000  0.3983070000000  0.5062250000000 1.0
C      1  0.5144860000000  0.4211650000000  0.4648330000000 1.0
C      1  0.5038870000000  0.4257830000000  0.5449810000000 1.0
C      1  0.4386580000000  0.4066510000000  0.4851520000000 1.0
C      1  0.5600050000000  0.6126630000000  0.5073840000000 1.0
C      1  0.5458440000000  0.5298870000000  0.5637740000000 1.0
C      1  0.5043820000000  0.5426300000000  0.5025720000000 1.0
C      1  0.4219910000000  0.4954170000000  0.5219850000000 1.0
C      1  0.5334080000000  0.3807730000000  0.5528840000000 1.0
C      1  0.4270750000000  0.4517180000000  0.5426700000000 1.0
C      1  0.4968500000000  0.5651020000000  0.4585750000000 1.0
C      1  0.4682100000000  0.5171730000000  0.4835630000000 1.0
C      1  0.4554380000000  0.4551550000000  0.5485830000000 1.0
C      1  0.4660830000000  0.4703680000000  0.5270230000000 1.0
C      1  0.5186220000000  0.5830820000000  0.4550120000000 1.0
C      1  0.4635760000000  0.5155120000000  0.5110410000000 1.0
C      1  0.4251630000000  0.4301410000000  0.5237520000000 1.0
C      1  0.4180130000000  0.4937990000000  0.4514640000000 1.0
C      1  0.5039990000000  0.4928990000000  0.4060220000000 1.0
C      1  0.4704960000000  0.5760280000000  0.4630590000000 1.0
C      1  0.4570000000000  0.5267880000000  0.5584320000000 1.0
C      1  0.4155610000000  0.4790050000000  0.5450450000000 1.0
C      1  0.5193560000000  0.4030010000000  0.5496910000000 1.0
C      1  0.5859190000000  0.5395070000000  0.3922290000000 1.0
C      1  0.5446490000000  0.5918210000000  0.4965910000000 1.0
C      1  0.5164050000000  0.4980390000000  0.5196330000000 1.0
C      1  0.4838590000000  0.4072380000000  0.5029510000000 1.0
C      1  0.4588700000000  0.5954030000000  0.5051830000000 1.0
C      1  0.5046450000000  0.5428600000000  0.4737300000000 1.0
C      1  0.5628750000000  0.4433100000000  0.5553450000000 1.0
C      1  0.5993690000000  0.5161360000000  0.4631680000000 1.0
C      1  0.4396150000000  0.4541760000000  0.4802900000000 1.0
C      1  0.4799540000000  0.4741040000000  0.4606950000000 1.0
C      1  0.4221670000000  0.4933550000000  0.5692870000000 1.0
C      1  0.5060920000000  0.5647180000000  0.5495200000000 1.0
C      1  0.4721520000000  0.5990090000000  0.4807780000000 1.0
C      1  0.5511780000000  0.5650660000000  0.5050540000000 1.0
C      1  0.5324310000000  0.5055020000000  0.4428470000000 1.0
C      1  0.5119790000000  0.4736410000000  0.5047330000000 1.0
C      1  0.5193840000000  0.4616720000000  0.5760910000000 1.0
C      1  0.4504480000000  0.5555250000000  0.4248840000000 1.0
C      1  0.4987810000000  0.4441390000000  0.5664130000000 1.0
C      1  0.5236970000000  0.5990780000000  0.4781960000000 1.0
C      1  0.5655190000000  0.5413510000000  0.3752020000000 1.0
C      1  0.5990660000000  0.5090960000000  0.4888050000000 1.0
C      1  0.5045050000000  0.4667350000000  0.4483130000000 1.0
C      1  0.4410540000000  0.4053740000000  0.5301510000000 1.0
C      1  0.5879030000000  0.4968740000000  0.5110150000000 1.0
C      1  0.5418250000000  0.5053570000000  0.5780850000000 1.0
C      1  0.5586750000000  0.4603730000000  0.4946470000000 1.0
C      1  0.5614880000000  0.4844560000000  0.5767320000000 1.0
C      1  0.4520360000000  0.5099720000000  0.3687410000000 1.0
C      1  0.5809590000000  0.4861280000000  0.5556380000000 1.0
C      1  0.4855460000000  0.4575300000000  0.5080900000000 1.0
C      1  0.4727540000000  0.5012390000000  0.4624840000000 1.0
C      1  0.5796000000000  0.4605660000000  0.5396450000000 1.0
C      1  0.4185880000000  0.5394770000000  0.4926770000000 1.0
C      1  0.5942790000000  0.5307770000000  0.4160080000000 1.0
C      1  0.4995830000000  0.4041900000000  0.4796300000000 1.0
C      1  0.5249620000000  0.5244160000000  0.5115880000000 1.0
C      1  0.4279260000000  0.4323040000000  0.4940140000000 1.0
C      1  0.5141090000000  0.4923960000000  0.5753750000000 1.0
C      1  0.4961040000000  0.5132180000000  0.3882710000000 1.0
C      1  0.5204880000000  0.4487860000000  0.4639610000000 1.0
C      1  0.5820870000000  0.5085210000000  0.5371420000000 1.0
C      1  0.4241810000000  0.4709300000000  0.4637790000000 1.0
C      1  0.4981900000000  0.6116820000000  0.4835300000000 1.0
C      1  0.4503960000000  0.4921380000000  0.5182150000000 1.0
C      1  0.4919280000000  0.4296460000000  0.5191550000000 1.0
C      1  0.5479480000000  0.4577700000000  0.5753730000000 1.0
C      1  0.5855210000000  0.5174380000000  0.4389720000000 1.0
C      1  0.4282770000000  0.5428850000000  0.4659010000000 1.0
C      1  0.4656570000000  0.4935200000000  0.5930880000000 1.0
C      1  0.4681750000000  0.5771800000000  0.5223040000000 1.0
C      1  0.4689520000000  0.5216630000000  0.3868220000000 1.0
C      1  0.4927070000000  0.5020410000000  0.5932910000000 1.0
C      1  0.4685490000000  0.4580130000000  0.4815370000000 1.0
C      1  0.5401260000000  0.5364330000000  0.3689690000000 1.0
C      1  0.5315910000000  0.4610220000000  0.4875610000000 1.0
C      1  0.4634160000000  0.4651760000000  0.5942280000000 1.0
C      1  0.5475060000000  0.3590430000000  0.5558230000000 1.0
C      1  0.5154710000000  0.4861030000000  0.4306550000000 1.0
C      1  0.5204150000000  0.5238710000000  0.4601710000000 1.0
C      1  0.5737340000000  0.6321060000000  0.5179970000000 1.0
C      1  0.4595120000000  0.5418300000000  0.4039290000000 1.0
C      1  0.4402480000000  0.3914190000000  0.5534690000000 1.0
C      1  0.5597970000000  0.5063250000000  0.4382600000000 1.0
C      1  0.5043260000000  0.5912380000000  0.5568240000000 1.0
C      1  0.5493040000000  0.5389650000000  0.5168800000000 1.0
C      1  0.5628530000000  0.5292550000000  0.5401590000000 1.0
C      1  0.4201450000000  0.5204620000000  0.4499280000000 1.0
C      1  0.5787820000000  0.4691430000000  0.5120560000000 1.0
C      1  0.4693000000000  0.5321700000000  0.5334540000000 1.0
END
