TITL C-612606-7351-451 1.24684943192335 125000 -299.859112593092 0 0 50 (C1) n - 1
REM
REM in /home/nfs/bkarasulu/CARBON/AIRSS/Generating-Clusters/TERSOFF/Only-C1/FIRE-HFTN
REM
REM
REM
REM
REM
REM ./C.cell (11c1c37f851c82e70ff6c80c92926a4b)
REM AIRSS Version 0.9.1 bugfix July 2018 build 013d7b7c2542+ Fri, 06 Jul 2018 19:26:36 +0100
REM compiler GCC version 9.2.1 20190827 (Red Hat 9.2.1-1)
REM options -cpp -mtune=generic -march=x86-64 -g -O0 -fpre-include=/usr/include/finclude/math-vector-fortran.h
REM seed 1695221232 1443819667 11590970 1967094054 1962764961 -763606107 -1957170757 1273323192 -407918777 1358722975 192035303 1391741377 130372461 533158567 -951532806 -1556200643 -1070917897 -262266362 -1740548973 2138742315 -1445419405 1392105498 403041039 204434603 -1680698706 -2094198871 263377759 338336408 -890637793 -2040879904 -1569256292 1618592379 444419737
REM
CELL 1.54180   50.00000   50.00000   50.00000   90.00000   90.00000   90.00000
LATT -1
SFAC C  
C      1  0.3521560000000  0.7481980000000  0.5127760000000 1.0
C      1  0.5629970000000  0.4503470000000  0.4598120000000 1.0
C      1  0.5059390000000  0.3934920000000  0.5183500000000 1.0
C      1  0.5480270000000  0.4564050000000  0.5047500000000 1.0
C      1  0.5434540000000  0.4504950000000  0.5319740000000 1.0
C      1  0.5143180000000  0.5593980000000  0.4768120000000 1.0
C      1  0.4204060000000  0.6363870000000  0.4959140000000 1.0
C      1  0.6014360000000  0.4171320000000  0.4966440000000 1.0
C      1  0.5843700000000  0.4601740000000  0.4772840000000 1.0
C      1  0.5516510000000  0.4683490000000  0.5518260000000 1.0
C      1  0.5323540000000  0.5401800000000  0.4733380000000 1.0
C      1  0.3930190000000  0.6812550000000  0.5026800000000 1.0
C      1  0.5383780000000  0.5128990000000  0.4719000000000 1.0
C      1  0.5098870000000  0.4515410000000  0.4443000000000 1.0
C      1  0.4735390000000  0.4786380000000  0.4831850000000 1.0
C      1  0.4439910000000  0.5171120000000  0.4856950000000 1.0
C      1  0.4925550000000  0.4056170000000  0.4964830000000 1.0
C      1  0.4492100000000  0.5431130000000  0.4864700000000 1.0
C      1  0.5146270000000  0.4383250000000  0.4691280000000 1.0
C      1  0.4472020000000  0.4894360000000  0.4828320000000 1.0
C      1  0.4931550000000  0.4322070000000  0.4865250000000 1.0
C      1  0.5195070000000  0.4959420000000  0.4584430000000 1.0
C      1  0.3793250000000  0.7036880000000  0.5060630000000 1.0
C      1  0.5411310000000  0.4426110000000  0.4793800000000 1.0
C      1  0.5305900000000  0.4264390000000  0.5392650000000 1.0
C      1  0.5684180000000  0.4762620000000  0.4961400000000 1.0
C      1  0.5836620000000  0.3994050000000  0.5058840000000 1.0
C      1  0.5588860000000  0.4861650000000  0.5700370000000 1.0
C      1  0.5587230000000  0.5014040000000  0.4878670000000 1.0
C      1  0.4869060000000  0.4471280000000  0.5492380000000 1.0
C      1  0.5536500000000  0.4664210000000  0.4382280000000 1.0
C      1  0.4477880000000  0.5915300000000  0.4891510000000 1.0
C      1  0.4621950000000  0.5679040000000  0.4855910000000 1.0
C      1  0.4250860000000  0.4728090000000  0.4792830000000 1.0
C      1  0.5661120000000  0.5041530000000  0.5881140000000 1.0
C      1  0.5338810000000  0.4023860000000  0.5226190000000 1.0
C      1  0.4939440000000  0.3994140000000  0.5443210000000 1.0
C      1  0.5264390000000  0.4747110000000  0.4402040000000 1.0
C      1  0.5732220000000  0.5218500000000  0.6058870000000 1.0
C      1  0.4898130000000  0.5686800000000  0.4810970000000 1.0
C      1  0.4940330000000  0.4931430000000  0.4704530000000 1.0
C      1  0.4050340000000  0.4564320000000  0.4763120000000 1.0
C      1  0.3656280000000  0.7261280000000  0.5094480000000 1.0
C      1  0.4067120000000  0.6588210000000  0.4992970000000 1.0
C      1  0.4341000000000  0.6139540000000  0.4925310000000 1.0
C      1  0.6035530000000  0.4416240000000  0.4858050000000 1.0
C      1  0.4765390000000  0.4562320000000  0.5261890000000 1.0
C      1  0.5043330000000  0.4253800000000  0.5527080000000 1.0
C      1  0.5587210000000  0.3938030000000  0.5136130000000 1.0
C      1  0.4793950000000  0.4548830000000  0.4981540000000 1.0
END
