TITL C-612602-9376-1146 -235.404468840611 125000 -1049.2968690154 0 0 173 (C1) n - 1
REM
REM in /home/nfs/bkarasulu/CARBON/AIRSS/Generating-Clusters/TERSOFF/Only-C1/FIRE-HFTN
REM
REM
REM
REM
REM
REM ./C.cell (11c1c37f851c82e70ff6c80c92926a4b)
REM AIRSS Version 0.9.1 bugfix July 2018 build 013d7b7c2542+ Fri, 06 Jul 2018 19:26:36 +0100
REM compiler GCC version 9.2.1 20190827 (Red Hat 9.2.1-1)
REM options -cpp -mtune=generic -march=x86-64 -g -O0 -fpre-include=/usr/include/finclude/math-vector-fortran.h
REM seed -1525121136 -1244628413 -447123722 -1069800108 -1649685180 -467573019 -1001368063 2135389278 -26227038 162292810 31810687 -1854823207 131407174 726316918 1214753972 1327317260 1984901841 -970421976 564670103 -343230574 2112149980 -1380946310 -2024521103 1775349771 1304039167 -1752442592 -1641213340 893086461 1050601916 59662490 -773223023 27846759 1292384832
REM
CELL 1.54180   50.00000   50.00000   50.00000   90.00000   90.00000   90.00000
LATT -1
SFAC C  
C      1  0.4561240000000  0.5767050000000  0.4902700000000 1.0
C      1  0.5523450000000  0.5116010000000  0.4931220000000 1.0
C      1  0.5619520000000  0.4034560000000  0.4848620000000 1.0
C      1  0.4560490000000  0.5307760000000  0.3816490000000 1.0
C      1  0.3930020000000  0.4801120000000  0.4668130000000 1.0
C      1  0.4339280000000  0.5306160000000  0.5487370000000 1.0
C      1  0.4729710000000  0.4794100000000  0.5287280000000 1.0
C      1  0.6115900000000  0.5377280000000  0.5031310000000 1.0
C      1  0.4774700000000  0.3681730000000  0.5451570000000 1.0
C      1  0.4604100000000  0.5308140000000  0.4459470000000 1.0
C      1  0.4441690000000  0.4650570000000  0.4382850000000 1.0
C      1  0.5972450000000  0.4360250000000  0.5110710000000 1.0
C      1  0.3929640000000  0.4873770000000  0.5198420000000 1.0
C      1  0.5519080000000  0.4906300000000  0.5124880000000 1.0
C      1  0.6113850000000  0.4865210000000  0.5003330000000 1.0
C      1  0.5034810000000  0.5091770000000  0.6369330000000 1.0
C      1  0.4583420000000  0.5589590000000  0.3875300000000 1.0
C      1  0.5002270000000  0.5180490000000  0.4759580000000 1.0
C      1  0.3835090000000  0.4397290000000  0.5120670000000 1.0
C      1  0.5734100000000  0.5257460000000  0.4210640000000 1.0
C      1  0.5334660000000  0.5740320000000  0.4833890000000 1.0
C      1  0.5203900000000  0.4704030000000  0.5397570000000 1.0
C      1  0.4798820000000  0.5690140000000  0.4020320000000 1.0
C      1  0.4859420000000  0.5726500000000  0.4291710000000 1.0
C      1  0.5418130000000  0.5438740000000  0.5248900000000 1.0
C      1  0.4945420000000  0.5506060000000  0.5899110000000 1.0
C      1  0.5047800000000  0.5300380000000  0.5740690000000 1.0
C      1  0.4992700000000  0.4164360000000  0.4776720000000 1.0
C      1  0.5671880000000  0.5406830000000  0.5409540000000 1.0
C      1  0.3601680000000  0.5166330000000  0.4681120000000 1.0
C      1  0.4973570000000  0.5971350000000  0.4381730000000 1.0
C      1  0.4204220000000  0.4904080000000  0.5105810000000 1.0
C      1  0.4125500000000  0.5803810000000  0.4716240000000 1.0
C      1  0.5643800000000  0.4330190000000  0.5548840000000 1.0
C      1  0.4340310000000  0.5181900000000  0.3962990000000 1.0
C      1  0.5252780000000  0.6006460000000  0.4451280000000 1.0
C      1  0.5404010000000  0.4142980000000  0.5000050000000 1.0
C      1  0.5010480000000  0.5789710000000  0.5833230000000 1.0
C      1  0.5242410000000  0.4253470000000  0.3957560000000 1.0
C      1  0.5406250000000  0.3591510000000  0.5735790000000 1.0
C      1  0.4078140000000  0.5452070000000  0.4345560000000 1.0
C      1  0.5275210000000  0.3868420000000  0.4503300000000 1.0
C      1  0.4082940000000  0.5529940000000  0.4619810000000 1.0
C      1  0.4821100000000  0.5267470000000  0.6302670000000 1.0
C      1  0.4765560000000  0.5634770000000  0.4763020000000 1.0
C      1  0.5892160000000  0.4383010000000  0.5389310000000 1.0
C      1  0.4772820000000  0.4194650000000  0.5443540000000 1.0
C      1  0.4485880000000  0.4683030000000  0.4102920000000 1.0
C      1  0.4194220000000  0.5410130000000  0.4093200000000 1.0
C      1  0.5621050000000  0.4846290000000  0.4571360000000 1.0
C      1  0.5187490000000  0.4473490000000  0.5244030000000 1.0
C      1  0.4235080000000  0.4653980000000  0.5874460000000 1.0
C      1  0.4421680000000  0.5035880000000  0.5510390000000 1.0
C      1  0.4049330000000  0.4386270000000  0.4942420000000 1.0
C      1  0.5289920000000  0.5836220000000  0.5776340000000 1.0
C      1  0.5871400000000  0.5818950000000  0.4985560000000 1.0
C      1  0.5006600000000  0.6168480000000  0.4813050000000 1.0
C      1  0.5215120000000  0.5225490000000  0.5296690000000 1.0
C      1  0.4777670000000  0.5488250000000  0.6134590000000 1.0
C      1  0.4060520000000  0.5317620000000  0.5578690000000 1.0
C      1  0.4714470000000  0.3931850000000  0.5527980000000 1.0
C      1  0.3773820000000  0.5100520000000  0.5266480000000 1.0
C      1  0.4586540000000  0.4829040000000  0.4561140000000 1.0
C      1  0.4793180000000  0.4843560000000  0.5017010000000 1.0
C      1  0.5453400000000  0.5056320000000  0.5631410000000 1.0
C      1  0.5800900000000  0.5726200000000  0.4725050000000 1.0
C      1  0.4484690000000  0.4465680000000  0.4823520000000 1.0
C      1  0.4550610000000  0.3902420000000  0.4622530000000 1.0
C      1  0.4889790000000  0.5561340000000  0.5365310000000 1.0
C      1  0.5458770000000  0.3832140000000  0.5650370000000 1.0
C      1  0.5726160000000  0.3866950000000  0.4375000000000 1.0
C      1  0.5136440000000  0.4925250000000  0.4336430000000 1.0
C      1  0.5893400000000  0.5582640000000  0.5400670000000 1.0
C      1  0.4999660000000  0.5319630000000  0.5461200000000 1.0
C      1  0.4948060000000  0.6310160000000  0.5037410000000 1.0
C      1  0.5938290000000  0.5233780000000  0.4383200000000 1.0
C      1  0.4673220000000  0.4688020000000  0.4807790000000 1.0
C      1  0.3865030000000  0.5079610000000  0.4721470000000 1.0
C      1  0.5459960000000  0.5655230000000  0.5918750000000 1.0
C      1  0.4661060000000  0.5753990000000  0.6138740000000 1.0
C      1  0.5551500000000  0.4392400000000  0.4250090000000 1.0
C      1  0.4044490000000  0.4537970000000  0.4688800000000 1.0
C      1  0.5389050000000  0.4392840000000  0.4482770000000 1.0
C      1  0.3908370000000  0.5337680000000  0.5329630000000 1.0
C      1  0.6121740000000  0.4623250000000  0.4228340000000 1.0
C      1  0.5038990000000  0.5729890000000  0.5215510000000 1.0
C      1  0.6064550000000  0.5160840000000  0.4608260000000 1.0
C      1  0.6006770000000  0.5695870000000  0.5621080000000 1.0
C      1  0.4316510000000  0.5647540000000  0.3973070000000 1.0
C      1  0.5706900000000  0.5177070000000  0.5581830000000 1.0
C      1  0.5005270000000  0.4672820000000  0.4353210000000 1.0
C      1  0.5207070000000  0.4532670000000  0.3849940000000 1.0
C      1  0.5585260000000  0.6032000000000  0.5361440000000 1.0
C      1  0.4073670000000  0.5298170000000  0.4821030000000 1.0
C      1  0.5068720000000  0.4830470000000  0.6266990000000 1.0
C      1  0.4889870000000  0.4442570000000  0.4220280000000 1.0
C      1  0.5190700000000  0.5077890000000  0.4574440000000 1.0
C      1  0.5626290000000  0.4618850000000  0.4094910000000 1.0
C      1  0.4384130000000  0.4502020000000  0.5311520000000 1.0
C      1  0.4382310000000  0.5436330000000  0.5213090000000 1.0
C      1  0.5304110000000  0.5205180000000  0.5822010000000 1.0
C      1  0.5564220000000  0.4643300000000  0.5008690000000 1.0
C      1  0.4325800000000  0.5121490000000  0.4852570000000 1.0
C      1  0.5461880000000  0.5320090000000  0.6275980000000 1.0
C      1  0.5887560000000  0.5002410000000  0.5708880000000 1.0
C      1  0.5460530000000  0.5060770000000  0.4662860000000 1.0
C      1  0.3360450000000  0.5260650000000  0.4652680000000 1.0
C      1  0.5575700000000  0.4562500000000  0.5735040000000 1.0
C      1  0.5213570000000  0.4672030000000  0.6104950000000 1.0
C      1  0.5000090000000  0.4245460000000  0.5262020000000 1.0
C      1  0.4542070000000  0.6113760000000  0.4590180000000 1.0
C      1  0.5307690000000  0.4970220000000  0.4105210000000 1.0
C      1  0.4311060000000  0.5927110000000  0.5300540000000 1.0
C      1  0.4936390000000  0.3608510000000  0.5249310000000 1.0
C      1  0.4309040000000  0.4484960000000  0.4574650000000 1.0
C      1  0.5839890000000  0.4722140000000  0.5725310000000 1.0
C      1  0.4392490000000  0.5911490000000  0.4719170000000 1.0
C      1  0.4321920000000  0.4392570000000  0.5053340000000 1.0
C      1  0.5415450000000  0.5983730000000  0.5567190000000 1.0
C      1  0.6107540000000  0.5130750000000  0.4888030000000 1.0
C      1  0.4480100000000  0.5088350000000  0.4592620000000 1.0
C      1  0.3801260000000  0.4628700000000  0.5251880000000 1.0
C      1  0.5549480000000  0.3897550000000  0.4597660000000 1.0
C      1  0.5519890000000  0.6161950000000  0.4897320000000 1.0
C      1  0.6236250000000  0.4502030000000  0.4718950000000 1.0
C      1  0.4419960000000  0.6039820000000  0.5532580000000 1.0
C      1  0.5283680000000  0.6035260000000  0.4757020000000 1.0
C      1  0.5662210000000  0.3949760000000  0.4122080000000 1.0
C      1  0.4762710000000  0.5923970000000  0.5920250000000 1.0
C      1  0.4797840000000  0.4656600000000  0.5546470000000 1.0
C      1  0.4423680000000  0.4811890000000  0.5309500000000 1.0
C      1  0.4078010000000  0.5419060000000  0.5108370000000 1.0
C      1  0.4725530000000  0.4559110000000  0.4002680000000 1.0
C      1  0.5442950000000  0.5385330000000  0.6003840000000 1.0
C      1  0.5171410000000  0.4335930000000  0.4633570000000 1.0
C      1  0.5278030000000  0.5217350000000  0.6443420000000 1.0
C      1  0.4758060000000  0.5544290000000  0.4492560000000 1.0
C      1  0.4927160000000  0.4601340000000  0.3797050000000 1.0
C      1  0.4588850000000  0.6049080000000  0.5739770000000 1.0
C      1  0.4064050000000  0.5990830000000  0.5173440000000 1.0
C      1  0.5678400000000  0.4650690000000  0.4749180000000 1.0
C      1  0.4806090000000  0.5125760000000  0.4956880000000 1.0
C      1  0.4007250000000  0.5125730000000  0.5784190000000 1.0
C      1  0.4414660000000  0.4469480000000  0.5786880000000 1.0
C      1  0.6026420000000  0.4568520000000  0.5563800000000 1.0
C      1  0.5531500000000  0.4076950000000  0.5580040000000 1.0
C      1  0.6236790000000  0.4539750000000  0.4454390000000 1.0
C      1  0.5999410000000  0.5614220000000  0.5141370000000 1.0
C      1  0.4457260000000  0.5721900000000  0.5163960000000 1.0
C      1  0.5341440000000  0.4961170000000  0.5367030000000 1.0
C      1  0.4826310000000  0.6125620000000  0.4583840000000 1.0
C      1  0.5287070000000  0.5652970000000  0.5099540000000 1.0
C      1  0.5688640000000  0.6027540000000  0.5093350000000 1.0
C      1  0.5502340000000  0.4174120000000  0.4063250000000 1.0
C      1  0.5392560000000  0.4731210000000  0.3967520000000 1.0
C      1  0.5072880000000  0.3768890000000  0.5082830000000 1.0
C      1  0.5549690000000  0.5634100000000  0.4680000000000 1.0
C      1  0.5413720000000  0.4418690000000  0.5085130000000 1.0
C      1  0.4749590000000  0.4057190000000  0.4689710000000 1.0
C      1  0.5899270000000  0.4677330000000  0.4089570000000 1.0
C      1  0.5094590000000  0.3969800000000  0.4323660000000 1.0
C      1  0.4590770000000  0.4419680000000  0.5541940000000 1.0
C      1  0.4351600000000  0.4903220000000  0.3988110000000 1.0
C      1  0.6119380000000  0.4576780000000  0.4967750000000 1.0
C      1  0.5288840000000  0.4613340000000  0.5838390000000 1.0
C      1  0.4088160000000  0.4881520000000  0.5872260000000 1.0
C      1  0.5869720000000  0.4140270000000  0.4947300000000 1.0
C      1  0.5034580000000  0.4196790000000  0.4157670000000 1.0
C      1  0.3970040000000  0.5918490000000  0.4927400000000 1.0
C      1  0.4549510000000  0.5255270000000  0.5023410000000 1.0
C      1  0.5071360000000  0.4663240000000  0.5643740000000 1.0
C      1  0.5495970000000  0.5182580000000  0.4110550000000 1.0
C      1  0.5109580000000  0.4056220000000  0.5034170000000 1.0
END
