TITL C-612607-4507-1196 0.00376056193906821 125000 -947.522219851337 0 0 155 (C1) n - 1
REM
REM in /home/nfs/bkarasulu/CARBON/AIRSS/Generating-Clusters/TERSOFF/Only-C1/FIRE-HFTN
REM
REM
REM
REM
REM
REM ./C.cell (11c1c37f851c82e70ff6c80c92926a4b)
REM AIRSS Version 0.9.1 bugfix July 2018 build 013d7b7c2542+ Fri, 06 Jul 2018 19:26:36 +0100
REM compiler GCC version 9.2.1 20190827 (Red Hat 9.2.1-1)
REM options -cpp -mtune=generic -march=x86-64 -g -O0 -fpre-include=/usr/include/finclude/math-vector-fortran.h
REM seed -979259417 -194222199 -1169895133 54584224 -1742513187 750699426 1905185801 -360189317 -1764018523 1188285789 -847370702 1182623305 2076476065 327741692 1656776588 1051182881 -1564252595 1616115542 5853562 -358921685 1288436200 -1547788214 538437466 1287952601 2001300769 1121919802 126390797 -952841904 -222938260 -1346983050 251796843 297197913 2137001638
REM
CELL 1.54180   50.00000   50.00000   50.00000   90.00000   90.00000   90.00000
LATT -1
SFAC C  
C      1  0.5416380000000  0.5586670000000  0.4577800000000 1.0
C      1  0.5691420000000  0.4056520000000  0.5410250000000 1.0
C      1  0.6006350000000  0.5080760000000  0.5152660000000 1.0
C      1  0.4430560000000  0.5308250000000  0.5337200000000 1.0
C      1  0.4172500000000  0.5193160000000  0.5721570000000 1.0
C      1  0.5714400000000  0.4690650000000  0.5746480000000 1.0
C      1  0.6274860000000  0.4567360000000  0.4702200000000 1.0
C      1  0.4967330000000  0.3965020000000  0.5314470000000 1.0
C      1  0.4657060000000  0.4290770000000  0.4112600000000 1.0
C      1  0.5306010000000  0.5902680000000  0.5375590000000 1.0
C      1  0.4960330000000  0.4018440000000  0.4787630000000 1.0
C      1  0.5655910000000  0.4528440000000  0.4166500000000 1.0
C      1  0.4739400000000  0.4069610000000  0.4587340000000 1.0
C      1  0.4782870000000  0.4694590000000  0.6019330000000 1.0
C      1  0.4976470000000  0.5806830000000  0.4290820000000 1.0
C      1  0.4402990000000  0.5341660000000  0.5639050000000 1.0
C      1  0.6105260000000  0.4734340000000  0.4808460000000 1.0
C      1  0.5757870000000  0.4263520000000  0.5227540000000 1.0
C      1  0.4752510000000  0.4603410000000  0.5291070000000 1.0
C      1  0.4139190000000  0.4936710000000  0.5614800000000 1.0
C      1  0.4518650000000  0.4323900000000  0.5695570000000 1.0
C      1  0.5610050000000  0.5567660000000  0.5882650000000 1.0
C      1  0.4151040000000  0.5416950000000  0.5256940000000 1.0
C      1  0.5239500000000  0.5302830000000  0.4883380000000 1.0
C      1  0.4971690000000  0.4613510000000  0.4662720000000 1.0
C      1  0.5461090000000  0.4724700000000  0.4799330000000 1.0
C      1  0.4900600000000  0.4537010000000  0.4392580000000 1.0
C      1  0.5739980000000  0.5393980000000  0.4875470000000 1.0
C      1  0.5194240000000  0.4060210000000  0.5455260000000 1.0
C      1  0.5208390000000  0.5384960000000  0.4613640000000 1.0
C      1  0.5695940000000  0.5519120000000  0.4628360000000 1.0
C      1  0.4606720000000  0.4906550000000  0.6088320000000 1.0
C      1  0.5384680000000  0.4545400000000  0.4239290000000 1.0
C      1  0.5524040000000  0.5371530000000  0.6074010000000 1.0
C      1  0.5365530000000  0.4990090000000  0.4130060000000 1.0
C      1  0.5523660000000  0.4917780000000  0.5219780000000 1.0
C      1  0.4392530000000  0.4184390000000  0.5231980000000 1.0
C      1  0.5252710000000  0.4550300000000  0.5385830000000 1.0
C      1  0.5125340000000  0.4430130000000  0.4240660000000 1.0
C      1  0.5982770000000  0.4962600000000  0.4194740000000 1.0
C      1  0.5306470000000  0.5186500000000  0.5705050000000 1.0
C      1  0.4948100000000  0.5623150000000  0.5328750000000 1.0
C      1  0.5495840000000  0.5327980000000  0.5005760000000 1.0
C      1  0.4568050000000  0.4770410000000  0.5452570000000 1.0
C      1  0.5876530000000  0.4730740000000  0.5512570000000 1.0
C      1  0.5062310000000  0.5864600000000  0.5204730000000 1.0
C      1  0.5228000000000  0.3994800000000  0.4676930000000 1.0
C      1  0.5580650000000  0.6028060000000  0.4501640000000 1.0
C      1  0.4618790000000  0.4499550000000  0.4315740000000 1.0
C      1  0.5870720000000  0.5640850000000  0.4438040000000 1.0
C      1  0.5064810000000  0.4748060000000  0.6079190000000 1.0
C      1  0.5228460000000  0.4554180000000  0.5947900000000 1.0
C      1  0.4030220000000  0.5258230000000  0.4576230000000 1.0
C      1  0.5223870000000  0.5811330000000  0.5647260000000 1.0
C      1  0.4274500000000  0.3957720000000  0.5123770000000 1.0
C      1  0.4066350000000  0.4462290000000  0.5013010000000 1.0
C      1  0.4869010000000  0.5982180000000  0.5027470000000 1.0
C      1  0.5255960000000  0.4912640000000  0.3880070000000 1.0
C      1  0.5070150000000  0.4972180000000  0.5183880000000 1.0
C      1  0.5205380000000  0.5515130000000  0.3981890000000 1.0
C      1  0.5353240000000  0.5868530000000  0.4564630000000 1.0
C      1  0.4763380000000  0.4945820000000  0.4130560000000 1.0
C      1  0.5582800000000  0.5850340000000  0.5329890000000 1.0
C      1  0.4506080000000  0.4651310000000  0.4937000000000 1.0
C      1  0.4020350000000  0.4710630000000  0.4895650000000 1.0
C      1  0.4337540000000  0.4433810000000  0.5089240000000 1.0
C      1  0.4177250000000  0.4637480000000  0.4568170000000 1.0
C      1  0.5020810000000  0.3926480000000  0.4224550000000 1.0
C      1  0.5858440000000  0.4707990000000  0.4163510000000 1.0
C      1  0.4741330000000  0.4480540000000  0.4843270000000 1.0
C      1  0.4802950000000  0.4747790000000  0.3913330000000 1.0
C      1  0.4379690000000  0.5516790000000  0.4355970000000 1.0
C      1  0.3883210000000  0.5015330000000  0.4524880000000 1.0
C      1  0.4758280000000  0.4448390000000  0.5841030000000 1.0
C      1  0.5829520000000  0.5201800000000  0.4190400000000 1.0
C      1  0.4859250000000  0.5423810000000  0.5151780000000 1.0
C      1  0.5484280000000  0.5293720000000  0.5512580000000 1.0
C      1  0.4409410000000  0.5906930000000  0.5300940000000 1.0
C      1  0.4596800000000  0.6054570000000  0.5127780000000 1.0
C      1  0.4526520000000  0.4901160000000  0.4796110000000 1.0
C      1  0.4874430000000  0.5932430000000  0.4742490000000 1.0
C      1  0.5075240000000  0.5919310000000  0.4537380000000 1.0
C      1  0.4506570000000  0.6310220000000  0.5047460000000 1.0
C      1  0.4170020000000  0.4808700000000  0.6388860000000 1.0
C      1  0.5048470000000  0.4391800000000  0.5784900000000 1.0
C      1  0.5237960000000  0.4753520000000  0.4629560000000 1.0
C      1  0.5788790000000  0.5665410000000  0.5410120000000 1.0
C      1  0.5973750000000  0.5005080000000  0.5439630000000 1.0
C      1  0.5637530000000  0.4221950000000  0.4970800000000 1.0
C      1  0.5893680000000  0.5494850000000  0.4193480000000 1.0
C      1  0.4225650000000  0.5020700000000  0.4233930000000 1.0
C      1  0.4628230000000  0.5824720000000  0.4651570000000 1.0
C      1  0.4757910000000  0.5626940000000  0.5783080000000 1.0
C      1  0.5012740000000  0.5331250000000  0.4398430000000 1.0
C      1  0.4268180000000  0.4478040000000  0.5669310000000 1.0
C      1  0.3990990000000  0.4918780000000  0.5113790000000 1.0
C      1  0.4731800000000  0.3919590000000  0.5471660000000 1.0
C      1  0.5035950000000  0.4811960000000  0.3765910000000 1.0
C      1  0.5964890000000  0.5356620000000  0.5054850000000 1.0
C      1  0.5826590000000  0.5924880000000  0.4435900000000 1.0
C      1  0.4386740000000  0.4858930000000  0.6253150000000 1.0
C      1  0.4045850000000  0.5209510000000  0.5074850000000 1.0
C      1  0.4200890000000  0.5708950000000  0.5242940000000 1.0
C      1  0.5877600000000  0.4501300000000  0.5334940000000 1.0
C      1  0.4825370000000  0.4368700000000  0.5110230000000 1.0
C      1  0.4591560000000  0.5856730000000  0.5782640000000 1.0
C      1  0.4416740000000  0.5433090000000  0.4844140000000 1.0
C      1  0.5279600000000  0.4811380000000  0.5290250000000 1.0
C      1  0.5023070000000  0.5542470000000  0.4195800000000 1.0
C      1  0.5325880000000  0.4812970000000  0.4353170000000 1.0
C      1  0.5501350000000  0.4600140000000  0.5885400000000 1.0
C      1  0.5925400000000  0.4874120000000  0.4966810000000 1.0
C      1  0.4423490000000  0.6543300000000  0.4965770000000 1.0
C      1  0.4546440000000  0.4138380000000  0.5475970000000 1.0
C      1  0.5164130000000  0.4330150000000  0.5536920000000 1.0
C      1  0.5724050000000  0.5454160000000  0.5622530000000 1.0
C      1  0.5225640000000  0.3906370000000  0.4405020000000 1.0
C      1  0.5451570000000  0.3952100000000  0.5474270000000 1.0
C      1  0.4364470000000  0.4748740000000  0.5650060000000 1.0
C      1  0.5455660000000  0.4104090000000  0.4808460000000 1.0
C      1  0.4922560000000  0.4100130000000  0.5068020000000 1.0
C      1  0.4582320000000  0.5409900000000  0.5089940000000 1.0
C      1  0.5180950000000  0.4997180000000  0.6134210000000 1.0
C      1  0.4448730000000  0.5956890000000  0.5578240000000 1.0
C      1  0.4479850000000  0.5592860000000  0.4614820000000 1.0
C      1  0.4069510000000  0.4830020000000  0.4393130000000 1.0
C      1  0.5717040000000  0.5597670000000  0.3982190000000 1.0
C      1  0.4413080000000  0.4458920000000  0.4511630000000 1.0
C      1  0.4984650000000  0.5648890000000  0.5616250000000 1.0
C      1  0.4422190000000  0.5670660000000  0.4127710000000 1.0
C      1  0.4713220000000  0.4466040000000  0.3887290000000 1.0
C      1  0.4817660000000  0.5107550000000  0.4372050000000 1.0
C      1  0.5044520000000  0.5229000000000  0.5068460000000 1.0
C      1  0.5647640000000  0.4814840000000  0.4985670000000 1.0
C      1  0.4663960000000  0.5169510000000  0.5997640000000 1.0
C      1  0.4153780000000  0.5301120000000  0.4825130000000 1.0
C      1  0.4620800000000  0.5380230000000  0.5816680000000 1.0
C      1  0.5329770000000  0.5183220000000  0.5988620000000 1.0
C      1  0.4018450000000  0.4509590000000  0.5503220000000 1.0
C      1  0.4687640000000  0.3686510000000  0.5606210000000 1.0
C      1  0.6255170000000  0.4977200000000  0.4220140000000 1.0
C      1  0.5520030000000  0.5197140000000  0.5253090000000 1.0
C      1  0.4524310000000  0.5025150000000  0.5331240000000 1.0
C      1  0.4568400000000  0.4277480000000  0.4686010000000 1.0
C      1  0.4860480000000  0.4812570000000  0.5129380000000 1.0
C      1  0.3985360000000  0.4799510000000  0.5400320000000 1.0
C      1  0.4436120000000  0.5806660000000  0.3905810000000 1.0
C      1  0.4213550000000  0.5289590000000  0.4346240000000 1.0
C      1  0.5474850000000  0.5443230000000  0.3972880000000 1.0
C      1  0.5994550000000  0.5578980000000  0.5230710000000 1.0
C      1  0.5550880000000  0.5195550000000  0.4109220000000 1.0
C      1  0.4664210000000  0.5035340000000  0.4604510000000 1.0
C      1  0.5424890000000  0.5781750000000  0.5842480000000 1.0
C      1  0.4773740000000  0.4061030000000  0.4284650000000 1.0
C      1  0.5936180000000  0.5229000000000  0.5622150000000 1.0
END
