TITL C-612606-7351-1218 0.609251376999664 125000 -925.947106165277 0 0 153 (C1) n - 1
REM
REM in /home/nfs/bkarasulu/CARBON/AIRSS/Generating-Clusters/TERSOFF/Only-C1/FIRE-HFTN
REM
REM
REM
REM
REM
REM ./C.cell (11c1c37f851c82e70ff6c80c92926a4b)
REM AIRSS Version 0.9.1 bugfix July 2018 build 013d7b7c2542+ Fri, 06 Jul 2018 19:26:36 +0100
REM compiler GCC version 9.2.1 20190827 (Red Hat 9.2.1-1)
REM options -cpp -mtune=generic -march=x86-64 -g -O0 -fpre-include=/usr/include/finclude/math-vector-fortran.h
REM seed 1292114426 473413625 1289246345 63213240 584955496 -230335110 -1038689626 1785790209 -433129044 -1097927475 -1495668560 -102480062 2121756341 -630657773 1672728145 -1931692099 1400003031 -967423599 -658318141 528396367 1369246801 -515034845 -1214665906 177636877 1993723880 1020163816 1524940343 -94924511 1621315154 1960889559 1471264943 -1066417573 -565443885
REM
CELL 1.54180   50.00000   50.00000   50.00000   90.00000   90.00000   90.00000
LATT -1
SFAC C  
C      1  0.5796090000000  0.3741550000000  0.4395890000000 1.0
C      1  0.4951350000000  0.4967980000000  0.6413300000000 1.0
C      1  0.4555150000000  0.4254750000000  0.4763070000000 1.0
C      1  0.4847620000000  0.4754970000000  0.4258260000000 1.0
C      1  0.4654900000000  0.3674260000000  0.5029310000000 1.0
C      1  0.4997180000000  0.4324030000000  0.6244700000000 1.0
C      1  0.5484870000000  0.4652700000000  0.4034770000000 1.0
C      1  0.5279820000000  0.4241330000000  0.4729940000000 1.0
C      1  0.4616430000000  0.5101770000000  0.3831400000000 1.0
C      1  0.5357730000000  0.5850230000000  0.5535740000000 1.0
C      1  0.5419290000000  0.5780870000000  0.4416200000000 1.0
C      1  0.5658730000000  0.5115270000000  0.5002270000000 1.0
C      1  0.6205750000000  0.4944430000000  0.5348040000000 1.0
C      1  0.5223290000000  0.4703040000000  0.6020100000000 1.0
C      1  0.4050430000000  0.5040480000000  0.4457120000000 1.0
C      1  0.5665420000000  0.4679270000000  0.5883450000000 1.0
C      1  0.4870930000000  0.5835740000000  0.5697480000000 1.0
C      1  0.4320160000000  0.5043350000000  0.4364080000000 1.0
C      1  0.5505660000000  0.5162120000000  0.3646650000000 1.0
C      1  0.3824880000000  0.5525540000000  0.5203900000000 1.0
C      1  0.3572660000000  0.5598350000000  0.5167540000000 1.0
C      1  0.4792790000000  0.4877670000000  0.5957000000000 1.0
C      1  0.4210850000000  0.5172310000000  0.5690360000000 1.0
C      1  0.5287030000000  0.5683030000000  0.4663070000000 1.0
C      1  0.5462600000000  0.4943640000000  0.5134620000000 1.0
C      1  0.4940640000000  0.5334050000000  0.5711030000000 1.0
C      1  0.5014900000000  0.5327020000000  0.4116600000000 1.0
C      1  0.4558140000000  0.5186850000000  0.6257340000000 1.0
C      1  0.5611670000000  0.3890030000000  0.4515010000000 1.0
C      1  0.4204810000000  0.4189240000000  0.4387940000000 1.0
C      1  0.5599330000000  0.4599130000000  0.4293110000000 1.0
C      1  0.5807370000000  0.4486720000000  0.4933980000000 1.0
C      1  0.5482430000000  0.4813450000000  0.6052050000000 1.0
C      1  0.4163410000000  0.4443740000000  0.4263800000000 1.0
C      1  0.5423810000000  0.5281380000000  0.5960070000000 1.0
C      1  0.5593700000000  0.4401990000000  0.5811840000000 1.0
C      1  0.6100210000000  0.5575860000000  0.4463170000000 1.0
C      1  0.5389500000000  0.4640650000000  0.4476750000000 1.0
C      1  0.3961210000000  0.4693160000000  0.3893900000000 1.0
C      1  0.5189320000000  0.5912610000000  0.4829560000000 1.0
C      1  0.5103380000000  0.5736850000000  0.5577420000000 1.0
C      1  0.5544770000000  0.5265050000000  0.4788310000000 1.0
C      1  0.4777420000000  0.3224880000000  0.4785760000000 1.0
C      1  0.5050190000000  0.4834600000000  0.5833700000000 1.0
C      1  0.5741690000000  0.4614890000000  0.5428930000000 1.0
C      1  0.5978830000000  0.3597600000000  0.4278210000000 1.0
C      1  0.4622600000000  0.5695900000000  0.5693020000000 1.0
C      1  0.4184780000000  0.5282560000000  0.5945990000000 1.0
C      1  0.5349490000000  0.6006810000000  0.5282280000000 1.0
C      1  0.4361930000000  0.4060780000000  0.5594860000000 1.0
C      1  0.4048090000000  0.4958130000000  0.5600820000000 1.0
C      1  0.5306180000000  0.5027620000000  0.5366220000000 1.0
C      1  0.4793270000000  0.5519080000000  0.5012780000000 1.0
C      1  0.4895760000000  0.5070160000000  0.4917750000000 1.0
C      1  0.5886340000000  0.4603540000000  0.5187610000000 1.0
C      1  0.4771610000000  0.4254120000000  0.4134040000000 1.0
C      1  0.5572940000000  0.5486540000000  0.5320810000000 1.0
C      1  0.5834020000000  0.5101990000000  0.5664320000000 1.0
C      1  0.5853560000000  0.5382550000000  0.5304970000000 1.0
C      1  0.4330040000000  0.5988080000000  0.5383020000000 1.0
C      1  0.4921510000000  0.5445040000000  0.4365420000000 1.0
C      1  0.4580220000000  0.4708750000000  0.5891000000000 1.0
C      1  0.5020220000000  0.4234960000000  0.4022570000000 1.0
C      1  0.5850710000000  0.4582790000000  0.4434540000000 1.0
C      1  0.6163880000000  0.4748390000000  0.4844570000000 1.0
C      1  0.5510590000000  0.5079350000000  0.6144000000000 1.0
C      1  0.4685710000000  0.4492360000000  0.4295030000000 1.0
C      1  0.3951800000000  0.5228090000000  0.4628500000000 1.0
C      1  0.4357350000000  0.4253860000000  0.5776460000000 1.0
C      1  0.4908170000000  0.4582290000000  0.4732080000000 1.0
C      1  0.4693430000000  0.4159110000000  0.5006840000000 1.0
C      1  0.4382370000000  0.4949050000000  0.3885580000000 1.0
C      1  0.4146960000000  0.4846500000000  0.3759730000000 1.0
C      1  0.4572930000000  0.5926120000000  0.4688830000000 1.0
C      1  0.5033260000000  0.4614420000000  0.5412260000000 1.0
C      1  0.3947130000000  0.4614570000000  0.4172780000000 1.0
C      1  0.5750030000000  0.4820990000000  0.5646930000000 1.0
C      1  0.4385880000000  0.4779750000000  0.5329460000000 1.0
C      1  0.4630190000000  0.6326260000000  0.4321130000000 1.0
C      1  0.6100330000000  0.5097950000000  0.5549580000000 1.0
C      1  0.4660670000000  0.5404690000000  0.5679230000000 1.0
C      1  0.4597530000000  0.3925510000000  0.5136620000000 1.0
C      1  0.5436880000000  0.4053190000000  0.4629130000000 1.0
C      1  0.4376010000000  0.4858960000000  0.4155620000000 1.0
C      1  0.4554350000000  0.5531040000000  0.5128020000000 1.0
C      1  0.5953810000000  0.4594620000000  0.4702580000000 1.0
C      1  0.5627510000000  0.5371530000000  0.5770770000000 1.0
C      1  0.4777200000000  0.4949820000000  0.4469770000000 1.0
C      1  0.4404940000000  0.5842830000000  0.5594780000000 1.0
C      1  0.4335340000000  0.4003320000000  0.4216340000000 1.0
C      1  0.4327350000000  0.5287300000000  0.6171280000000 1.0
C      1  0.4447690000000  0.3948980000000  0.5370530000000 1.0
C      1  0.4868650000000  0.5119470000000  0.3965310000000 1.0
C      1  0.4594060000000  0.6131810000000  0.4497360000000 1.0
C      1  0.4992520000000  0.4854650000000  0.4032350000000 1.0
C      1  0.4351090000000  0.6071490000000  0.5114740000000 1.0
C      1  0.5067220000000  0.5475920000000  0.4615390000000 1.0
C      1  0.5441610000000  0.5229670000000  0.4326350000000 1.0
C      1  0.5077620000000  0.4389550000000  0.4851410000000 1.0
C      1  0.4591190000000  0.6014700000000  0.4967740000000 1.0
C      1  0.5274970000000  0.4832160000000  0.3950170000000 1.0
C      1  0.5138940000000  0.5309000000000  0.5922310000000 1.0
C      1  0.5448550000000  0.5111020000000  0.4577070000000 1.0
C      1  0.3888370000000  0.4827860000000  0.4354930000000 1.0
C      1  0.4840810000000  0.6063390000000  0.5101520000000 1.0
C      1  0.5908090000000  0.5224250000000  0.5079910000000 1.0
C      1  0.4079910000000  0.5460970000000  0.5234350000000 1.0
C      1  0.5300660000000  0.5278340000000  0.4089770000000 1.0
C      1  0.5093480000000  0.4355880000000  0.5317840000000 1.0
C      1  0.4351170000000  0.5423690000000  0.5286640000000 1.0
C      1  0.5615040000000  0.5141840000000  0.6393850000000 1.0
C      1  0.4562320000000  0.5001800000000  0.5352340000000 1.0
C      1  0.4773910000000  0.5023480000000  0.5169130000000 1.0
C      1  0.4135950000000  0.4766380000000  0.5431590000000 1.0
C      1  0.4435780000000  0.4487360000000  0.5874240000000 1.0
C      1  0.6126130000000  0.4769050000000  0.5138800000000 1.0
C      1  0.5583320000000  0.4384450000000  0.5521880000000 1.0
C      1  0.4145070000000  0.6207310000000  0.4996260000000 1.0
C      1  0.5307370000000  0.5317790000000  0.5368610000000 1.0
C      1  0.5096570000000  0.5457750000000  0.5499920000000 1.0
C      1  0.5491900000000  0.5537690000000  0.4831380000000 1.0
C      1  0.5571320000000  0.5625740000000  0.5596210000000 1.0
C      1  0.4449700000000  0.5247900000000  0.5515530000000 1.0
C      1  0.4715970000000  0.3446700000000  0.4908170000000 1.0
C      1  0.5916330000000  0.5712560000000  0.4326990000000 1.0
C      1  0.5195410000000  0.4426900000000  0.6089900000000 1.0
C      1  0.6104950000000  0.5292700000000  0.4893800000000 1.0
C      1  0.4667800000000  0.6517570000000  0.4148090000000 1.0
C      1  0.4299830000000  0.4183540000000  0.4658840000000 1.0
C      1  0.4953300000000  0.4274200000000  0.5081480000000 1.0
C      1  0.5347070000000  0.4788540000000  0.4931190000000 1.0
C      1  0.6168810000000  0.5422770000000  0.4670150000000 1.0
C      1  0.4581740000000  0.4044470000000  0.4112880000000 1.0
C      1  0.4947290000000  0.5347810000000  0.4850590000000 1.0
C      1  0.5662430000000  0.5791480000000  0.4305280000000 1.0
C      1  0.5368120000000  0.4848860000000  0.4655560000000 1.0
C      1  0.4409080000000  0.4586000000000  0.4222670000000 1.0
C      1  0.5407470000000  0.4273810000000  0.5980280000000 1.0
C      1  0.3325060000000  0.5670520000000  0.5129500000000 1.0
C      1  0.5119670000000  0.6016180000000  0.5089170000000 1.0
C      1  0.5633630000000  0.5224130000000  0.3428280000000 1.0
C      1  0.4541550000000  0.5660350000000  0.4580340000000 1.0
C      1  0.4562690000000  0.5152610000000  0.4457540000000 1.0
C      1  0.5132300000000  0.4848290000000  0.5545250000000 1.0
C      1  0.5370990000000  0.5096680000000  0.3879250000000 1.0
C      1  0.4877390000000  0.4866790000000  0.4722700000000 1.0
C      1  0.4700470000000  0.4438220000000  0.4595230000000 1.0
C      1  0.4774700000000  0.5015850000000  0.6209430000000 1.0
C      1  0.5357680000000  0.4273800000000  0.5390290000000 1.0
C      1  0.5709670000000  0.5199470000000  0.6629710000000 1.0
C      1  0.4641210000000  0.5427980000000  0.4443580000000 1.0
C      1  0.5579820000000  0.5933080000000  0.5128670000000 1.0
C      1  0.5573410000000  0.5657050000000  0.5073100000000 1.0
END
