TITL C-612606-7351-179 0.000449181226319135 125000 -835.596831276307 0 0 134 (C1) n - 1
REM
REM in /home/nfs/bkarasulu/CARBON/AIRSS/Generating-Clusters/TERSOFF/Only-C1/FIRE-HFTN
REM
REM
REM
REM
REM
REM ./C.cell (11c1c37f851c82e70ff6c80c92926a4b)
REM AIRSS Version 0.9.1 bugfix July 2018 build 013d7b7c2542+ Fri, 06 Jul 2018 19:26:36 +0100
REM compiler GCC version 9.2.1 20190827 (Red Hat 9.2.1-1)
REM options -cpp -mtune=generic -march=x86-64 -g -O0 -fpre-include=/usr/include/finclude/math-vector-fortran.h
REM seed 307582553 583384019 1430853326 -1231062817 -1554181863 -3968083 1465220988 776930864 -382944447 924719320 1565575154 -923459453 -78307212 -842297764 -1319327172 -1606876711 929413508 1253928690 -763611351 -692581235 -644238978 -130342769 522010494 1223336566 -1066238694 -2134058077 946005821 -66338136 -2052366846 -450917344 -262441428 23857986 -1127413174
REM
CELL 1.54180   50.00000   50.00000   50.00000   90.00000   90.00000   90.00000
LATT -1
SFAC C  
C      1  0.4861150000000  0.4611510000000  0.5976680000000 1.0
C      1  0.4517610000000  0.4536780000000  0.4416340000000 1.0
C      1  0.5050680000000  0.4684290000000  0.4243380000000 1.0
C      1  0.5472630000000  0.5154580000000  0.4984380000000 1.0
C      1  0.5717530000000  0.5016700000000  0.4373840000000 1.0
C      1  0.5127780000000  0.5280000000000  0.4021720000000 1.0
C      1  0.5555490000000  0.4229840000000  0.4723860000000 1.0
C      1  0.4874750000000  0.4811970000000  0.4046230000000 1.0
C      1  0.5731760000000  0.4274990000000  0.4505790000000 1.0
C      1  0.4319970000000  0.5752830000000  0.4861350000000 1.0
C      1  0.4916360000000  0.5104750000000  0.5669610000000 1.0
C      1  0.5398560000000  0.5629460000000  0.4934580000000 1.0
C      1  0.5028820000000  0.4127440000000  0.4734410000000 1.0
C      1  0.4767080000000  0.4263590000000  0.4726080000000 1.0
C      1  0.3970270000000  0.4586070000000  0.4468290000000 1.0
C      1  0.4450050000000  0.4721120000000  0.4613440000000 1.0
C      1  0.5391040000000  0.4656140000000  0.4982840000000 1.0
C      1  0.4593650000000  0.5615590000000  0.5486030000000 1.0
C      1  0.4373890000000  0.4976370000000  0.4530480000000 1.0
C      1  0.4929550000000  0.5077150000000  0.3933850000000 1.0
C      1  0.3982320000000  0.4957280000000  0.5493640000000 1.0
C      1  0.5589640000000  0.5124010000000  0.5230130000000 1.0
C      1  0.5270330000000  0.4417520000000  0.5388740000000 1.0
C      1  0.5817860000000  0.4775990000000  0.4476880000000 1.0
C      1  0.5425200000000  0.5947340000000  0.4409720000000 1.0
C      1  0.5181160000000  0.4108750000000  0.4980550000000 1.0
C      1  0.4825280000000  0.5497470000000  0.4325120000000 1.0
C      1  0.4710550000000  0.5273650000000  0.4714380000000 1.0
C      1  0.4857470000000  0.4459140000000  0.5151580000000 1.0
C      1  0.5150100000000  0.4401940000000  0.5651790000000 1.0
C      1  0.4314290000000  0.4818470000000  0.5066630000000 1.0
C      1  0.4094770000000  0.5351770000000  0.3420870000000 1.0
C      1  0.4416220000000  0.4375590000000  0.5706510000000 1.0
C      1  0.4245710000000  0.4558280000000  0.5563540000000 1.0
C      1  0.5445920000000  0.5488190000000  0.5577740000000 1.0
C      1  0.5744200000000  0.5299040000000  0.4488350000000 1.0
C      1  0.5093690000000  0.4295720000000  0.5187030000000 1.0
C      1  0.5779300000000  0.4784100000000  0.4756350000000 1.0
C      1  0.4688470000000  0.4436210000000  0.5823760000000 1.0
C      1  0.5576480000000  0.5011570000000  0.5696160000000 1.0
C      1  0.5139420000000  0.6122290000000  0.4806160000000 1.0
C      1  0.4997860000000  0.5519590000000  0.4106250000000 1.0
C      1  0.4065500000000  0.5648680000000  0.4796270000000 1.0
C      1  0.6262230000000  0.4942930000000  0.5725120000000 1.0
C      1  0.4726750000000  0.4046830000000  0.5571300000000 1.0
C      1  0.5986350000000  0.5304190000000  0.5027310000000 1.0
C      1  0.3988550000000  0.5135590000000  0.4748680000000 1.0
C      1  0.4734520000000  0.4376950000000  0.4463110000000 1.0
C      1  0.4590730000000  0.5433540000000  0.5709840000000 1.0
C      1  0.4654940000000  0.4981840000000  0.5633550000000 1.0
C      1  0.4406070000000  0.5117040000000  0.5088430000000 1.0
C      1  0.5272930000000  0.5008110000000  0.6134340000000 1.0
C      1  0.5017230000000  0.4985720000000  0.6263880000000 1.0
C      1  0.4437680000000  0.5173470000000  0.5691180000000 1.0
C      1  0.6022910000000  0.4879690000000  0.5617140000000 1.0
C      1  0.4604760000000  0.4702660000000  0.4001860000000 1.0
C      1  0.5891550000000  0.4443520000000  0.5144180000000 1.0
C      1  0.4830180000000  0.4802780000000  0.6183500000000 1.0
C      1  0.4672630000000  0.4430580000000  0.4938560000000 1.0
C      1  0.4560890000000  0.5311070000000  0.4939770000000 1.0
C      1  0.5832500000000  0.5412190000000  0.4774410000000 1.0
C      1  0.5240510000000  0.4853200000000  0.4379910000000 1.0
C      1  0.5558260000000  0.5445940000000  0.4295670000000 1.0
C      1  0.5017970000000  0.4921090000000  0.4904170000000 1.0
C      1  0.4433070000000  0.5276690000000  0.3833200000000 1.0
C      1  0.4260320000000  0.5316510000000  0.3619020000000 1.0
C      1  0.5774980000000  0.5696020000000  0.5197470000000 1.0
C      1  0.5874990000000  0.5102110000000  0.5201540000000 1.0
C      1  0.4457660000000  0.4107750000000  0.5596050000000 1.0
C      1  0.3870250000000  0.4929790000000  0.5222630000000 1.0
C      1  0.4110890000000  0.4584910000000  0.4229600000000 1.0
C      1  0.4932610000000  0.5402340000000  0.4583130000000 1.0
C      1  0.5523410000000  0.5283830000000  0.5799710000000 1.0
C      1  0.5686470000000  0.5652030000000  0.4907950000000 1.0
C      1  0.4478080000000  0.4642220000000  0.4882110000000 1.0
C      1  0.5301990000000  0.5754220000000  0.5184130000000 1.0
C      1  0.5394790000000  0.4459050000000  0.4780810000000 1.0
C      1  0.4633340000000  0.4782350000000  0.5440040000000 1.0
C      1  0.5387830000000  0.5252850000000  0.4139220000000 1.0
C      1  0.5326010000000  0.4763340000000  0.5995950000000 1.0
C      1  0.4395020000000  0.4590900000000  0.4164940000000 1.0
C      1  0.5753730000000  0.4652800000000  0.5291920000000 1.0
C      1  0.5210040000000  0.4960060000000  0.4663280000000 1.0
C      1  0.5776870000000  0.4802240000000  0.5751430000000 1.0
C      1  0.4701000000000  0.5186010000000  0.3795630000000 1.0
C      1  0.5464210000000  0.4598370000000  0.5256640000000 1.0
C      1  0.5520250000000  0.5722550000000  0.4303870000000 1.0
C      1  0.4398510000000  0.5548670000000  0.5292260000000 1.0
C      1  0.5929280000000  0.4577340000000  0.4896560000000 1.0
C      1  0.5749090000000  0.4509740000000  0.5746800000000 1.0
C      1  0.5481740000000  0.4901890000000  0.4828630000000 1.0
C      1  0.4571490000000  0.5358760000000  0.4281520000000 1.0
C      1  0.4116360000000  0.5091570000000  0.4492970000000 1.0
C      1  0.5143770000000  0.4202780000000  0.4468550000000 1.0
C      1  0.5430760000000  0.5013480000000  0.5446430000000 1.0
C      1  0.5655430000000  0.4024400000000  0.5161990000000 1.0
C      1  0.4993740000000  0.4417080000000  0.4338430000000 1.0
C      1  0.3943790000000  0.5407150000000  0.4810150000000 1.0
C      1  0.6019210000000  0.5543690000000  0.5200040000000 1.0
C      1  0.5818680000000  0.4211400000000  0.5302790000000 1.0
C      1  0.4010980000000  0.4871660000000  0.4949650000000 1.0
C      1  0.3938670000000  0.4650420000000  0.4734350000000 1.0
C      1  0.5293310000000  0.6090150000000  0.4591440000000 1.0
C      1  0.5535790000000  0.5691160000000  0.5377300000000 1.0
C      1  0.4678160000000  0.6091610000000  0.4931400000000 1.0
C      1  0.5130530000000  0.5103900000000  0.5439470000000 1.0
C      1  0.5382610000000  0.5265900000000  0.6053260000000 1.0
C      1  0.4852440000000  0.5361760000000  0.5809970000000 1.0
C      1  0.5940630000000  0.4870540000000  0.5344930000000 1.0
C      1  0.5222500000000  0.5488080000000  0.6119010000000 1.0
C      1  0.5191780000000  0.5399520000000  0.5451610000000 1.0
C      1  0.5326510000000  0.5368550000000  0.4866820000000 1.0
C      1  0.5472760000000  0.4053980000000  0.4945170000000 1.0
C      1  0.5007050000000  0.4928180000000  0.5192850000000 1.0
C      1  0.4851350000000  0.4709810000000  0.5286090000000 1.0
C      1  0.5175600000000  0.5282100000000  0.4648010000000 1.0
C      1  0.4275120000000  0.5284700000000  0.5294790000000 1.0
C      1  0.5788960000000  0.4286600000000  0.5586110000000 1.0
C      1  0.5819070000000  0.4505180000000  0.4383250000000 1.0
C      1  0.5029450000000  0.5855520000000  0.5206280000000 1.0
C      1  0.5456170000000  0.4993060000000  0.4244090000000 1.0
C      1  0.4827210000000  0.5760950000000  0.5391810000000 1.0
C      1  0.5140370000000  0.4589110000000  0.5873650000000 1.0
C      1  0.4473430000000  0.5573780000000  0.5015730000000 1.0
C      1  0.4194260000000  0.5154710000000  0.5532950000000 1.0
C      1  0.4112170000000  0.5237390000000  0.4242000000000 1.0
C      1  0.4947660000000  0.6036540000000  0.4993720000000 1.0
C      1  0.4017010000000  0.4709160000000  0.5635210000000 1.0
C      1  0.4567480000000  0.5168770000000  0.4496820000000 1.0
C      1  0.4983260000000  0.5517050000000  0.6000350000000 1.0
C      1  0.4892540000000  0.4257540000000  0.5676920000000 1.0
C      1  0.4380670000000  0.4694290000000  0.5347670000000 1.0
C      1  0.4440870000000  0.6004630000000  0.4839190000000 1.0
C      1  0.4353490000000  0.5324100000000  0.4103530000000 1.0
END
