TITL C-612600-6631-1241 -62.6042497751169 125000 -1014.74893428791 0 0 167 (C1) n - 1
REM
REM in /home/nfs/bkarasulu/CARBON/AIRSS/Generating-Clusters/TERSOFF/Only-C1/FIRE-HFTN
REM
REM
REM
REM
REM
REM ./C.cell (11c1c37f851c82e70ff6c80c92926a4b)
REM AIRSS Version 0.9.1 bugfix July 2018 build 013d7b7c2542+ Fri, 06 Jul 2018 19:26:36 +0100
REM compiler GCC version 9.2.1 20190827 (Red Hat 9.2.1-1)
REM options -cpp -mtune=generic -march=x86-64 -g -O0 -fpre-include=/usr/include/finclude/math-vector-fortran.h
REM seed 372106660 409867483 719114827 1427588494 976534934 -1024988035 439471068 1437532305 1481031951 -890795853 1341198804 -1706061982 -94574118 1165437362 1652120970 2077466448 1529814066 -1609242725 -763598325 -99947017 1558873205 -1400962892 1013664895 1525769042 -1075816191 -597738383 1520476467 -452056586 -2028114045 421003332 -241635503 -1782979404 964576543
REM
CELL 1.54180   50.00000   50.00000   50.00000   90.00000   90.00000   90.00000
LATT -1
SFAC C  
C      1  0.3918360000000  0.4616070000000  0.5224540000000 1.0
C      1  0.5207840000000  0.4275680000000  0.5592590000000 1.0
C      1  0.5095170000000  0.6156600000000  0.5080800000000 1.0
C      1  0.6061280000000  0.4682470000000  0.5501850000000 1.0
C      1  0.6433410000000  0.5093780000000  0.4689240000000 1.0
C      1  0.5340940000000  0.5940430000000  0.4556840000000 1.0
C      1  0.4251060000000  0.4447630000000  0.4145400000000 1.0
C      1  0.4385320000000  0.4551690000000  0.4956480000000 1.0
C      1  0.4583070000000  0.5842510000000  0.5575750000000 1.0
C      1  0.5716370000000  0.3918360000000  0.5335710000000 1.0
C      1  0.4873750000000  0.4595930000000  0.5723940000000 1.0
C      1  0.5466950000000  0.4579700000000  0.5975260000000 1.0
C      1  0.5702140000000  0.4526460000000  0.4461930000000 1.0
C      1  0.4859130000000  0.5878140000000  0.4383940000000 1.0
C      1  0.4498540000000  0.4808840000000  0.4258260000000 1.0
C      1  0.5806410000000  0.4875520000000  0.5134770000000 1.0
C      1  0.5953510000000  0.4318850000000  0.5008740000000 1.0
C      1  0.4611240000000  0.6037970000000  0.5069190000000 1.0
C      1  0.4393170000000  0.5048820000000  0.5012880000000 1.0
C      1  0.4683730000000  0.5096580000000  0.5518400000000 1.0
C      1  0.5755100000000  0.4385460000000  0.5196420000000 1.0
C      1  0.5272120000000  0.5100260000000  0.6226870000000 1.0
C      1  0.4166860000000  0.4774420000000  0.5877760000000 1.0
C      1  0.4538750000000  0.5280670000000  0.5078500000000 1.0
C      1  0.5069110000000  0.5856810000000  0.4589530000000 1.0
C      1  0.5345220000000  0.6006930000000  0.5064950000000 1.0
C      1  0.4515540000000  0.4809210000000  0.4917260000000 1.0
C      1  0.4784600000000  0.3972620000000  0.4399180000000 1.0
C      1  0.4966450000000  0.4634140000000  0.4719040000000 1.0
C      1  0.5232030000000  0.5786700000000  0.4073590000000 1.0
C      1  0.5979650000000  0.5662680000000  0.4916680000000 1.0
C      1  0.5622040000000  0.5634380000000  0.4295720000000 1.0
C      1  0.5440250000000  0.4520700000000  0.4523870000000 1.0
C      1  0.5477960000000  0.4957580000000  0.5651650000000 1.0
C      1  0.4874780000000  0.3955040000000  0.4699110000000 1.0
C      1  0.5632540000000  0.4649030000000  0.5181220000000 1.0
C      1  0.5752150000000  0.5820600000000  0.4837890000000 1.0
C      1  0.6078030000000  0.5884710000000  0.5340220000000 1.0
C      1  0.4714210000000  0.5184950000000  0.3884200000000 1.0
C      1  0.4408590000000  0.4986940000000  0.5475760000000 1.0
C      1  0.4888490000000  0.4917910000000  0.5403490000000 1.0
C      1  0.5261970000000  0.5366310000000  0.5514900000000 1.0
C      1  0.4504420000000  0.4031550000000  0.5086790000000 1.0
C      1  0.5355500000000  0.5102070000000  0.5405010000000 1.0
C      1  0.5490840000000  0.5942120000000  0.4813890000000 1.0
C      1  0.4186050000000  0.4527930000000  0.5715000000000 1.0
C      1  0.4718440000000  0.5460110000000  0.5872340000000 1.0
C      1  0.5097360000000  0.5165110000000  0.4308680000000 1.0
C      1  0.4090690000000  0.4333640000000  0.4577930000000 1.0
C      1  0.5060810000000  0.5643090000000  0.4772780000000 1.0
C      1  0.5507760000000  0.5091470000000  0.4551600000000 1.0
C      1  0.5336370000000  0.5830650000000  0.5568480000000 1.0
C      1  0.4713090000000  0.4271120000000  0.3914720000000 1.0
C      1  0.4049550000000  0.5574130000000  0.4900550000000 1.0
C      1  0.4587890000000  0.5907410000000  0.4477990000000 1.0
C      1  0.4797930000000  0.5319100000000  0.5642420000000 1.0
C      1  0.5859250000000  0.4652730000000  0.5703340000000 1.0
C      1  0.5348450000000  0.5540310000000  0.3958120000000 1.0
C      1  0.5889270000000  0.4017520000000  0.4639530000000 1.0
C      1  0.4737240000000  0.5466270000000  0.5043550000000 1.0
C      1  0.4955810000000  0.5119930000000  0.4859940000000 1.0
C      1  0.5984130000000  0.4265070000000  0.4735280000000 1.0
C      1  0.5164210000000  0.4873310000000  0.5324540000000 1.0
C      1  0.5408320000000  0.5306270000000  0.6121340000000 1.0
C      1  0.5940360000000  0.5295900000000  0.4593940000000 1.0
C      1  0.4463850000000  0.4703940000000  0.5413500000000 1.0
C      1  0.5432630000000  0.5858390000000  0.4297730000000 1.0
C      1  0.4181360000000  0.5659410000000  0.4372680000000 1.0
C      1  0.4047910000000  0.5365500000000  0.5473630000000 1.0
C      1  0.5227820000000  0.5082870000000  0.4921630000000 1.0
C      1  0.5461870000000  0.5488320000000  0.5930890000000 1.0
C      1  0.5396160000000  0.5566330000000  0.5668320000000 1.0
C      1  0.4537510000000  0.5669450000000  0.5813030000000 1.0
C      1  0.5028770000000  0.4953460000000  0.6247050000000 1.0
C      1  0.5660280000000  0.4448450000000  0.5798280000000 1.0
C      1  0.3982710000000  0.4834300000000  0.4723890000000 1.0
C      1  0.4432980000000  0.4344090000000  0.5772790000000 1.0
C      1  0.5512920000000  0.4264920000000  0.5606860000000 1.0
C      1  0.4117480000000  0.4273180000000  0.4318380000000 1.0
C      1  0.4853110000000  0.6067260000000  0.5215320000000 1.0
C      1  0.4252290000000  0.5770930000000  0.4858850000000 1.0
C      1  0.5337920000000  0.4651260000000  0.5194220000000 1.0
C      1  0.5162210000000  0.4017170000000  0.4757830000000 1.0
C      1  0.5694190000000  0.5105410000000  0.5002800000000 1.0
C      1  0.5032450000000  0.4480520000000  0.4162890000000 1.0
C      1  0.6064690000000  0.5655930000000  0.5191100000000 1.0
C      1  0.6070040000000  0.5127960000000  0.4404250000000 1.0
C      1  0.3908130000000  0.4715990000000  0.4965210000000 1.0
C      1  0.5434500000000  0.5168060000000  0.5112200000000 1.0
C      1  0.4888000000000  0.5408370000000  0.4799820000000 1.0
C      1  0.4930170000000  0.4940470000000  0.4341160000000 1.0
C      1  0.6368300000000  0.5347080000000  0.4778480000000 1.0
C      1  0.4334240000000  0.5806370000000  0.4573230000000 1.0
C      1  0.4848420000000  0.4493650000000  0.5223610000000 1.0
C      1  0.5965850000000  0.4488620000000  0.4558070000000 1.0
C      1  0.4703030000000  0.4551530000000  0.3815270000000 1.0
C      1  0.4382290000000  0.5870870000000  0.5103350000000 1.0
C      1  0.4225040000000  0.5197610000000  0.4087180000000 1.0
C      1  0.5651480000000  0.3902960000000  0.4595320000000 1.0
C      1  0.4477470000000  0.4213520000000  0.5306950000000 1.0
C      1  0.5090910000000  0.6407660000000  0.4966680000000 1.0
C      1  0.4202630000000  0.4924830000000  0.4222750000000 1.0
C      1  0.5014980000000  0.4672150000000  0.6182900000000 1.0
C      1  0.4572930000000  0.4413920000000  0.6019370000000 1.0
C      1  0.4171300000000  0.5039360000000  0.5945180000000 1.0
C      1  0.4091790000000  0.4684300000000  0.4081980000000 1.0
C      1  0.4477840000000  0.5364930000000  0.4565780000000 1.0
C      1  0.4992720000000  0.5432530000000  0.5476570000000 1.0
C      1  0.4197450000000  0.5311830000000  0.5940570000000 1.0
C      1  0.4789250000000  0.4449580000000  0.4313530000000 1.0
C      1  0.4164280000000  0.5124740000000  0.5386730000000 1.0
C      1  0.5387040000000  0.3920090000000  0.4625100000000 1.0
C      1  0.3993910000000  0.5320610000000  0.4971100000000 1.0
C      1  0.4655510000000  0.4930930000000  0.4483270000000 1.0
C      1  0.4756280000000  0.4653560000000  0.5460240000000 1.0
C      1  0.6161650000000  0.5141580000000  0.5324150000000 1.0
C      1  0.4433730000000  0.5214210000000  0.3894270000000 1.0
C      1  0.4832140000000  0.5972770000000  0.5492010000000 1.0
C      1  0.5747930000000  0.4924420000000  0.5725610000000 1.0
C      1  0.4168610000000  0.5609650000000  0.5543250000000 1.0
C      1  0.4312930000000  0.4077610000000  0.4891410000000 1.0
C      1  0.4008010000000  0.4533240000000  0.5474590000000 1.0
C      1  0.4141350000000  0.5442970000000  0.4212560000000 1.0
C      1  0.5662930000000  0.4183410000000  0.5377830000000 1.0
C      1  0.5440460000000  0.5913650000000  0.5317110000000 1.0
C      1  0.4606760000000  0.4198110000000  0.5563360000000 1.0
C      1  0.4762760000000  0.3956100000000  0.4996260000000 1.0
C      1  0.5249790000000  0.4408410000000  0.5073500000000 1.0
C      1  0.4404950000000  0.5101180000000  0.4587030000000 1.0
C      1  0.5244870000000  0.4677000000000  0.4653550000000 1.0
C      1  0.4129570000000  0.5109130000000  0.5101320000000 1.0
C      1  0.4842740000000  0.5485480000000  0.4061320000000 1.0
C      1  0.4834010000000  0.4425220000000  0.4588580000000 1.0
C      1  0.4731730000000  0.5338840000000  0.6122960000000 1.0
C      1  0.4348480000000  0.5786120000000  0.5385640000000 1.0
C      1  0.5325800000000  0.4742050000000  0.5769560000000 1.0
C      1  0.6260260000000  0.4944240000000  0.4514690000000 1.0
C      1  0.4748660000000  0.5416750000000  0.4541510000000 1.0
C      1  0.4801480000000  0.5117440000000  0.6255100000000 1.0
C      1  0.4393070000000  0.4484470000000  0.5236060000000 1.0
C      1  0.5275400000000  0.4540340000000  0.6183630000000 1.0
C      1  0.4259410000000  0.4340270000000  0.4798300000000 1.0
C      1  0.4740680000000  0.4062810000000  0.4125100000000 1.0
C      1  0.4266210000000  0.5565970000000  0.5817890000000 1.0
C      1  0.4952850000000  0.4128190000000  0.5479320000000 1.0
C      1  0.4776930000000  0.4867810000000  0.4772320000000 1.0
C      1  0.4816130000000  0.4897970000000  0.3824830000000 1.0
C      1  0.4895200000000  0.5557530000000  0.5250940000000 1.0
C      1  0.5079490000000  0.5942380000000  0.5630640000000 1.0
C      1  0.5094270000000  0.4847630000000  0.3850860000000 1.0
C      1  0.6142490000000  0.5407190000000  0.5300190000000 1.0
C      1  0.6107820000000  0.5467440000000  0.4748350000000 1.0
C      1  0.5721130000000  0.5179110000000  0.4719920000000 1.0
C      1  0.6041150000000  0.4888580000000  0.5300380000000 1.0
C      1  0.4942710000000  0.5765570000000  0.4115070000000 1.0
C      1  0.5179910000000  0.4636810000000  0.3999240000000 1.0
C      1  0.4149900000000  0.4966350000000  0.4525100000000 1.0
C      1  0.5180030000000  0.4142600000000  0.5019720000000 1.0
C      1  0.4806590000000  0.4572900000000  0.6000850000000 1.0
C      1  0.4524630000000  0.4528510000000  0.4225840000000 1.0
C      1  0.4976220000000  0.4031050000000  0.5196150000000 1.0
C      1  0.5383060000000  0.5202300000000  0.4320470000000 1.0
C      1  0.5142790000000  0.4547800000000  0.5673450000000 1.0
C      1  0.4904570000000  0.5372770000000  0.4312170000000 1.0
C      1  0.5506160000000  0.5403370000000  0.4160980000000 1.0
C      1  0.6174500000000  0.4676450000000  0.4528150000000 1.0
C      1  0.5336600000000  0.4934160000000  0.4707320000000 1.0
END
