TITL C-612600-6631-516 -0.0393391737876055 125000 -465.119426468433 0 0 77 (C1) n - 1
REM
REM in /home/nfs/bkarasulu/CARBON/AIRSS/Generating-Clusters/TERSOFF/Only-C1/FIRE-HFTN
REM
REM
REM
REM
REM
REM ./C.cell (11c1c37f851c82e70ff6c80c92926a4b)
REM AIRSS Version 0.9.1 bugfix July 2018 build 013d7b7c2542+ Fri, 06 Jul 2018 19:26:36 +0100
REM compiler GCC version 9.2.1 20190827 (Red Hat 9.2.1-1)
REM options -cpp -mtune=generic -march=x86-64 -g -O0 -fpre-include=/usr/include/finclude/math-vector-fortran.h
REM seed 925488354 -223880948 1808572699 -1258467018 -1313677588 -1920132307 1496268330 1134812101 -364165112 -1623815055 1130900230 -2139360267 -1391483667 794057927 1917934109 188041239 -1164130235 1873171131 526943970 -689765882 -833393925 -42764024 -1889656907 -705465164 -1943911938 -201500203 -496826557 -1136819331 -1911109723 1397725823 999791990 -1318525877 1429841875
REM
CELL 1.54180   50.00000   50.00000   50.00000   90.00000   90.00000   90.00000
LATT -1
SFAC C  
C      1  0.4811520000000  0.4403580000000  0.5444440000000 1.0
C      1  0.5085690000000  0.4213010000000  0.5098870000000 1.0
C      1  0.5406250000000  0.5741060000000  0.5997950000000 1.0
C      1  0.5478970000000  0.4888290000000  0.4367900000000 1.0
C      1  0.5683470000000  0.4986520000000  0.4540850000000 1.0
C      1  0.5270880000000  0.5300580000000  0.5827710000000 1.0
C      1  0.5385730000000  0.5924680000000  0.6187820000000 1.0
C      1  0.5001960000000  0.4854470000000  0.5125400000000 1.0
C      1  0.3677560000000  0.5014100000000  0.5099250000000 1.0
C      1  0.3946300000000  0.4460850000000  0.4966890000000 1.0
C      1  0.4986940000000  0.5261320000000  0.5749940000000 1.0
C      1  0.4106450000000  0.4910550000000  0.4876730000000 1.0
C      1  0.5716310000000  0.4986850000000  0.5005430000000 1.0
C      1  0.5345730000000  0.4791240000000  0.5761770000000 1.0
C      1  0.5591730000000  0.5595800000000  0.5567140000000 1.0
C      1  0.5067480000000  0.4778650000000  0.4160760000000 1.0
C      1  0.5494980000000  0.4578390000000  0.5626830000000 1.0
C      1  0.4422090000000  0.4518370000000  0.4907290000000 1.0
C      1  0.5167090000000  0.5260510000000  0.4139400000000 1.0
C      1  0.5755250000000  0.5545890000000  0.5054930000000 1.0
C      1  0.4680630000000  0.5030920000000  0.4190020000000 1.0
C      1  0.5277280000000  0.5195920000000  0.4819990000000 1.0
C      1  0.4450390000000  0.5524130000000  0.4183270000000 1.0
C      1  0.5890770000000  0.4951340000000  0.5219960000000 1.0
C      1  0.5301770000000  0.4402360000000  0.5498360000000 1.0
C      1  0.4358590000000  0.5167480000000  0.4503620000000 1.0
C      1  0.4319640000000  0.5054280000000  0.4765340000000 1.0
C      1  0.4841220000000  0.5014730000000  0.5307830000000 1.0
C      1  0.5423030000000  0.5546370000000  0.5798210000000 1.0
C      1  0.5741380000000  0.4813160000000  0.4769240000000 1.0
C      1  0.4423480000000  0.5607250000000  0.4876840000000 1.0
C      1  0.5746480000000  0.5263400000000  0.4598920000000 1.0
C      1  0.5199370000000  0.5542230000000  0.5185650000000 1.0
C      1  0.4622810000000  0.5402620000000  0.4852330000000 1.0
C      1  0.4875780000000  0.4828920000000  0.5933410000000 1.0
C      1  0.3911740000000  0.5094690000000  0.4984660000000 1.0
C      1  0.4653650000000  0.4566970000000  0.4050950000000 1.0
C      1  0.4694500000000  0.4368520000000  0.4232150000000 1.0
C      1  0.5917480000000  0.4781330000000  0.5425150000000 1.0
C      1  0.5259500000000  0.4998650000000  0.4201020000000 1.0
C      1  0.5066480000000  0.4154750000000  0.4820570000000 1.0
C      1  0.5013950000000  0.5135270000000  0.4732570000000 1.0
C      1  0.5414400000000  0.4556790000000  0.5059520000000 1.0
C      1  0.4636930000000  0.5157650000000  0.4432920000000 1.0
C      1  0.4498230000000  0.5161720000000  0.4964650000000 1.0
C      1  0.4966850000000  0.5439740000000  0.4099080000000 1.0
C      1  0.5365130000000  0.6105240000000  0.6374730000000 1.0
C      1  0.4853860000000  0.4305820000000  0.4694050000000 1.0
C      1  0.4157140000000  0.4629800000000  0.4918430000000 1.0
C      1  0.3982220000000  0.5373960000000  0.4961640000000 1.0
C      1  0.4796100000000  0.5289820000000  0.4638370000000 1.0
C      1  0.4831240000000  0.5094990000000  0.5916250000000 1.0
C      1  0.4711460000000  0.5533070000000  0.4105470000000 1.0
C      1  0.5123100000000  0.4552240000000  0.4342070000000 1.0
C      1  0.5430660000000  0.5158110000000  0.5436030000000 1.0
C      1  0.4261860000000  0.5410730000000  0.4369870000000 1.0
C      1  0.5620930000000  0.4564920000000  0.4858970000000 1.0
C      1  0.4968930000000  0.5219260000000  0.5462210000000 1.0
C      1  0.5285260000000  0.4811190000000  0.5110930000000 1.0
C      1  0.5769830000000  0.5445780000000  0.4801860000000 1.0
C      1  0.5405020000000  0.5064980000000  0.5708900000000 1.0
C      1  0.4579610000000  0.5063190000000  0.5213210000000 1.0
C      1  0.5071920000000  0.4683580000000  0.5795950000000 1.0
C      1  0.4898590000000  0.4392510000000  0.4429020000000 1.0
C      1  0.5033790000000  0.4465630000000  0.5609900000000 1.0
C      1  0.5765250000000  0.4614370000000  0.5568750000000 1.0
C      1  0.4142700000000  0.5562650000000  0.4816100000000 1.0
C      1  0.5391780000000  0.4610140000000  0.4420630000000 1.0
C      1  0.5432010000000  0.5038290000000  0.5005710000000 1.0
C      1  0.5308330000000  0.4345230000000  0.5217350000000 1.0
C      1  0.4820060000000  0.4323920000000  0.5172670000000 1.0
C      1  0.5702390000000  0.5593500000000  0.5317860000000 1.0
C      1  0.4095090000000  0.5569220000000  0.4534400000000 1.0
C      1  0.4924030000000  0.4890060000000  0.4850880000000 1.0
C      1  0.4674480000000  0.4388870000000  0.4921090000000 1.0
C      1  0.5209010000000  0.5314700000000  0.5335370000000 1.0
C      1  0.4799510000000  0.4808350000000  0.4077830000000 1.0
END
