TITL C-612605-9286-1373 6.41104491868214 125000 -367.723044992199 0 0 63 (C1) n - 1
REM
REM in /home/nfs/bkarasulu/CARBON/AIRSS/Generating-Clusters/TERSOFF/Only-C1/FIRE-HFTN
REM
REM
REM
REM
REM
REM ./C.cell (11c1c37f851c82e70ff6c80c92926a4b)
REM AIRSS Version 0.9.1 bugfix July 2018 build 013d7b7c2542+ Fri, 06 Jul 2018 19:26:36 +0100
REM compiler GCC version 9.2.1 20190827 (Red Hat 9.2.1-1)
REM options -cpp -mtune=generic -march=x86-64 -g -O0 -fpre-include=/usr/include/finclude/math-vector-fortran.h
REM seed 1745823501 -1723507600 -1220678484 -98906249 1509033450 747882841 -1346861695 638972426 659657625 -813862675 -999704259 1925959704 1794311304 1969781202 1410307701 -159663223 -1484307946 1363354785 1285986789 -611082514 -1001065145 -45758924 -97087077 883683974 1859560654 -762457467 1553160620 1541440928 1235902286 1537299582 135571920 -1190022451 -255054638
REM
CELL 1.54180   50.00000   50.00000   50.00000   90.00000   90.00000   90.00000
LATT -1
SFAC C  
C      1  0.5887910000000  0.4876790000000  0.6077410000000 1.0
C      1  0.3583270000000  0.4827360000000  0.4686900000000 1.0
C      1  0.4010870000000  0.4622460000000  0.4719230000000 1.0
C      1  0.4781480000000  0.5501600000000  0.5280980000000 1.0
C      1  0.4560530000000  0.4803640000000  0.4097920000000 1.0
C      1  0.5299950000000  0.4599430000000  0.5082680000000 1.0
C      1  0.6299170000000  0.5640320000000  0.6522020000000 1.0
C      1  0.3521970000000  0.5517040000000  0.4389700000000 1.0
C      1  0.3956230000000  0.5454830000000  0.4679460000000 1.0
C      1  0.4260920000000  0.4472880000000  0.4312320000000 1.0
C      1  0.4650830000000  0.5675860000000  0.5451580000000 1.0
C      1  0.4943280000000  0.5172190000000  0.4439660000000 1.0
C      1  0.5350890000000  0.5269900000000  0.3905910000000 1.0
C      1  0.4180030000000  0.5435650000000  0.4820040000000 1.0
C      1  0.5228030000000  0.5068560000000  0.4053570000000 1.0
C      1  0.6127600000000  0.5264690000000  0.3993170000000 1.0
C      1  0.6004570000000  0.5042460000000  0.6248000000000 1.0
C      1  0.5459820000000  0.5463080000000  0.3769030000000 1.0
C      1  0.5265330000000  0.4088230000000  0.5157030000000 1.0
C      1  0.5344670000000  0.5083730000000  0.5044690000000 1.0
C      1  0.4969870000000  0.5104610000000  0.4167670000000 1.0
C      1  0.5592980000000  0.3965450000000  0.5783410000000 1.0
C      1  0.5392110000000  0.4842320000000  0.5186260000000 1.0
C      1  0.3810630000000  0.4690850000000  0.4292430000000 1.0
C      1  0.6121220000000  0.5208160000000  0.6418600000000 1.0
C      1  0.5350870000000  0.4819650000000  0.4097390000000 1.0
C      1  0.4036670000000  0.4590160000000  0.4436060000000 1.0
C      1  0.3737350000000  0.5486670000000  0.4533410000000 1.0
C      1  0.3792650000000  0.4736770000000  0.4837460000000 1.0
C      1  0.4849830000000  0.5070790000000  0.4685160000000 1.0
C      1  0.4872870000000  0.5216290000000  0.4922290000000 1.0
C      1  0.5696170000000  0.4171870000000  0.5915210000000 1.0
C      1  0.4918420000000  0.4419870000000  0.4464470000000 1.0
C      1  0.5323860000000  0.4578160000000  0.4207720000000 1.0
C      1  0.5987300000000  0.5258250000000  0.4212800000000 1.0
C      1  0.5159050000000  0.4421580000000  0.4347860000000 1.0
C      1  0.6309060000000  0.5295590000000  0.6850110000000 1.0
C      1  0.3593930000000  0.4803710000000  0.4414790000000 1.0
C      1  0.4134900000000  0.6339490000000  0.6090120000000 1.0
C      1  0.4521880000000  0.5842410000000  0.5612150000000 1.0
C      1  0.5462630000000  0.3866670000000  0.5573650000000 1.0
C      1  0.5753650000000  0.4428560000000  0.5950790000000 1.0
C      1  0.4245550000000  0.4221750000000  0.4204900000000 1.0
C      1  0.5650570000000  0.4801710000000  0.5661440000000 1.0
C      1  0.4669810000000  0.5383820000000  0.5041570000000 1.0
C      1  0.5053010000000  0.5405840000000  0.5311170000000 1.0
C      1  0.4262490000000  0.6175610000000  0.5932550000000 1.0
C      1  0.4743000000000  0.4992320000000  0.4043900000000 1.0
C      1  0.4392210000000  0.6008990000000  0.5772330000000 1.0
C      1  0.6244490000000  0.5383260000000  0.6598870000000 1.0
C      1  0.5764540000000  0.4702950000000  0.5897250000000 1.0
C      1  0.5838850000000  0.5248020000000  0.4432130000000 1.0
C      1  0.5341090000000  0.3912050000000  0.5341350000000 1.0
C      1  0.4414000000000  0.5421250000000  0.4943350000000 1.0
C      1  0.4702070000000  0.4594360000000  0.4505690000000 1.0
C      1  0.5530210000000  0.4846560000000  0.5429490000000 1.0
C      1  0.5686010000000  0.5222190000000  0.4647040000000 1.0
C      1  0.5108260000000  0.5227610000000  0.5090270000000 1.0
C      1  0.4738300000000  0.4812320000000  0.4680170000000 1.0
C      1  0.5529030000000  0.5171570000000  0.4854280000000 1.0
C      1  0.5253410000000  0.4338520000000  0.5068500000000 1.0
C      1  0.5225000000000  0.5472250000000  0.5510540000000 1.0
C      1  0.4502880000000  0.4618470000000  0.4302110000000 1.0
END
