TITL C-612601-4209-640 -2.41489208331925 125000 -1011.95737673667 0 0 164 (C1) n - 1
REM
REM in /home/nfs/bkarasulu/CARBON/AIRSS/Generating-Clusters/TERSOFF/Only-C1/FIRE-HFTN
REM
REM
REM
REM
REM
REM ./C.cell (11c1c37f851c82e70ff6c80c92926a4b)
REM AIRSS Version 0.9.1 bugfix July 2018 build 013d7b7c2542+ Fri, 06 Jul 2018 19:26:36 +0100
REM compiler GCC version 9.2.1 20190827 (Red Hat 9.2.1-1)
REM options -cpp -mtune=generic -march=x86-64 -g -O0 -fpre-include=/usr/include/finclude/math-vector-fortran.h
REM seed -689479338 739247232 2004173093 -998360714 -1072237873 1743271108 -1264078286 64017422 675375098 756932696 -564218370 1549423529 484317782 -2087443097 991572430 -1901178355 -1020125171 -189817959 75127581 -699040251 1937590742 -1118652323 544428322 415501328 -180265876 724457298 -591850757 -2785240 -353541656 204712066 1602084994 728167234 -283883247
REM
CELL 1.54180   50.00000   50.00000   50.00000   90.00000   90.00000   90.00000
LATT -1
SFAC C  
C      1  0.4208450000000  0.4514360000000  0.5314910000000 1.0
C      1  0.5080830000000  0.6065790000000  0.4095060000000 1.0
C      1  0.4570060000000  0.5555820000000  0.6015890000000 1.0
C      1  0.4543760000000  0.4556290000000  0.4448760000000 1.0
C      1  0.4148960000000  0.4056440000000  0.5122680000000 1.0
C      1  0.4099760000000  0.5764330000000  0.5551150000000 1.0
C      1  0.5758400000000  0.4177050000000  0.4691240000000 1.0
C      1  0.4985530000000  0.4251900000000  0.4235780000000 1.0
C      1  0.5743440000000  0.5317040000000  0.5813150000000 1.0
C      1  0.4487800000000  0.5115170000000  0.4828360000000 1.0
C      1  0.6092700000000  0.4345730000000  0.5257240000000 1.0
C      1  0.4407390000000  0.5551780000000  0.4352020000000 1.0
C      1  0.5693360000000  0.4495820000000  0.4083800000000 1.0
C      1  0.4023040000000  0.5176400000000  0.6286380000000 1.0
C      1  0.4143070000000  0.4758300000000  0.4912560000000 1.0
C      1  0.5350140000000  0.5596910000000  0.4964430000000 1.0
C      1  0.4569980000000  0.4238890000000  0.5775550000000 1.0
C      1  0.5147310000000  0.5149450000000  0.5077570000000 1.0
C      1  0.3977640000000  0.5031980000000  0.4548960000000 1.0
C      1  0.5828550000000  0.5119680000000  0.6000310000000 1.0
C      1  0.5005370000000  0.5136710000000  0.5359420000000 1.0
C      1  0.5401730000000  0.4486550000000  0.6094840000000 1.0
C      1  0.4898600000000  0.5189340000000  0.4324370000000 1.0
C      1  0.5531940000000  0.5512760000000  0.4191810000000 1.0
C      1  0.5582170000000  0.5895240000000  0.5462360000000 1.0
C      1  0.4374390000000  0.4907860000000  0.4990530000000 1.0
C      1  0.5703810000000  0.3786340000000  0.5010860000000 1.0
C      1  0.4337130000000  0.4701200000000  0.5855580000000 1.0
C      1  0.5792250000000  0.5132280000000  0.4789560000000 1.0
C      1  0.5858750000000  0.5072510000000  0.5432930000000 1.0
C      1  0.4807150000000  0.4651320000000  0.5761190000000 1.0
C      1  0.4458610000000  0.5191660000000  0.5718260000000 1.0
C      1  0.5301230000000  0.3466500000000  0.5141230000000 1.0
C      1  0.4112660000000  0.5515060000000  0.5019440000000 1.0
C      1  0.4179890000000  0.5700230000000  0.4799510000000 1.0
C      1  0.5704220000000  0.4765780000000  0.5082320000000 1.0
C      1  0.4947200000000  0.5824320000000  0.4109950000000 1.0
C      1  0.4746680000000  0.5570250000000  0.5332910000000 1.0
C      1  0.5323320000000  0.6188040000000  0.5192330000000 1.0
C      1  0.4623730000000  0.5857530000000  0.4678290000000 1.0
C      1  0.5248750000000  0.6549910000000  0.3980910000000 1.0
C      1  0.5314400000000  0.4181090000000  0.4568220000000 1.0
C      1  0.5627540000000  0.4951470000000  0.5306260000000 1.0
C      1  0.4084450000000  0.4522980000000  0.5063410000000 1.0
C      1  0.4831730000000  0.6008280000000  0.5467650000000 1.0
C      1  0.4894900000000  0.5674910000000  0.4349230000000 1.0
C      1  0.5320210000000  0.5449600000000  0.4027110000000 1.0
C      1  0.4491070000000  0.4557010000000  0.5286340000000 1.0
C      1  0.4925520000000  0.6015980000000  0.5004080000000 1.0
C      1  0.4056510000000  0.4263260000000  0.4945700000000 1.0
C      1  0.5363390000000  0.4579230000000  0.4811960000000 1.0
C      1  0.5779540000000  0.6638780000000  0.4418270000000 1.0
C      1  0.5430630000000  0.5122330000000  0.5166670000000 1.0
C      1  0.4561890000000  0.4528400000000  0.5817590000000 1.0
C      1  0.5985400000000  0.3768590000000  0.5015870000000 1.0
C      1  0.5204760000000  0.6054460000000  0.4970340000000 1.0
C      1  0.5301240000000  0.4869730000000  0.4405400000000 1.0
C      1  0.5969130000000  0.4350700000000  0.4779460000000 1.0
C      1  0.4203240000000  0.5972960000000  0.4865100000000 1.0
C      1  0.5573330000000  0.5515740000000  0.5110940000000 1.0
C      1  0.3697010000000  0.5502640000000  0.5334260000000 1.0
C      1  0.5735690000000  0.4894380000000  0.6112530000000 1.0
C      1  0.5103490000000  0.4134110000000  0.5027980000000 1.0
C      1  0.4808310000000  0.3470430000000  0.4977980000000 1.0
C      1  0.5150020000000  0.5007440000000  0.3955490000000 1.0
C      1  0.5493630000000  0.4572720000000  0.5059020000000 1.0
C      1  0.5042670000000  0.3426600000000  0.5095100000000 1.0
C      1  0.5161530000000  0.4912370000000  0.5527270000000 1.0
C      1  0.4812070000000  0.4122530000000  0.5872550000000 1.0
C      1  0.4637180000000  0.5792110000000  0.5482960000000 1.0
C      1  0.5950730000000  0.5544280000000  0.5361070000000 1.0
C      1  0.4542050000000  0.4824930000000  0.5207840000000 1.0
C      1  0.5686660000000  0.5675110000000  0.5328940000000 1.0
C      1  0.5177720000000  0.4644060000000  0.4571930000000 1.0
C      1  0.4640560000000  0.3584750000000  0.4806670000000 1.0
C      1  0.5011160000000  0.4926520000000  0.4925350000000 1.0
C      1  0.5105040000000  0.5920020000000  0.5533280000000 1.0
C      1  0.4937740000000  0.4755560000000  0.4711430000000 1.0
C      1  0.4534190000000  0.6252820000000  0.5149910000000 1.0
C      1  0.4771650000000  0.5798720000000  0.4905460000000 1.0
C      1  0.5787880000000  0.5690030000000  0.4619120000000 1.0
C      1  0.5595680000000  0.4017320000000  0.4885770000000 1.0
C      1  0.5367210000000  0.5855180000000  0.4844400000000 1.0
C      1  0.4684000000000  0.4360590000000  0.5216300000000 1.0
C      1  0.4007960000000  0.4284230000000  0.4667280000000 1.0
C      1  0.4072260000000  0.4517510000000  0.4510660000000 1.0
C      1  0.5196030000000  0.5321550000000  0.4616510000000 1.0
C      1  0.4364540000000  0.5813380000000  0.5551990000000 1.0
C      1  0.4748200000000  0.4113480000000  0.4287900000000 1.0
C      1  0.4939590000000  0.5277280000000  0.5905750000000 1.0
C      1  0.5550900000000  0.4716080000000  0.4026030000000 1.0
C      1  0.3984110000000  0.5304790000000  0.4630570000000 1.0
C      1  0.5633320000000  0.6153300000000  0.4556140000000 1.0
C      1  0.5110560000000  0.4460920000000  0.5390190000000 1.0
C      1  0.5016160000000  0.5425390000000  0.4429080000000 1.0
C      1  0.4331150000000  0.4987300000000  0.5881670000000 1.0
C      1  0.4044350000000  0.4500710000000  0.5539770000000 1.0
C      1  0.5781000000000  0.5336370000000  0.4992420000000 1.0
C      1  0.5208350000000  0.5314670000000  0.5912910000000 1.0
C      1  0.5131350000000  0.5633990000000  0.5562720000000 1.0
C      1  0.5174920000000  0.6308650000000  0.4046540000000 1.0
C      1  0.5414470000000  0.4119200000000  0.4015630000000 1.0
C      1  0.3679750000000  0.5368280000000  0.5097570000000 1.0
C      1  0.5592800000000  0.5901710000000  0.4670540000000 1.0
C      1  0.4708730000000  0.5560540000000  0.5051080000000 1.0
C      1  0.4683100000000  0.4754030000000  0.4588120000000 1.0
C      1  0.4662500000000  0.5340470000000  0.5868580000000 1.0
C      1  0.5373050000000  0.4544210000000  0.5317530000000 1.0
C      1  0.5345070000000  0.6046600000000  0.5437560000000 1.0
C      1  0.4404480000000  0.4092730000000  0.5590850000000 1.0
C      1  0.5311350000000  0.4079120000000  0.4842110000000 1.0
C      1  0.3889390000000  0.5361250000000  0.4909130000000 1.0
C      1  0.4569310000000  0.3747450000000  0.4609180000000 1.0
C      1  0.5956030000000  0.4306060000000  0.5483290000000 1.0
C      1  0.4802860000000  0.5407050000000  0.3939040000000 1.0
C      1  0.6123010000000  0.4241300000000  0.4997560000000 1.0
C      1  0.5006190000000  0.4666170000000  0.5570830000000 1.0
C      1  0.5538290000000  0.4165960000000  0.5773360000000 1.0
C      1  0.4179740000000  0.5527320000000  0.4546270000000 1.0
C      1  0.4626600000000  0.5718610000000  0.4442080000000 1.0
C      1  0.5178920000000  0.5385840000000  0.4889280000000 1.0
C      1  0.4520610000000  0.5348610000000  0.4170420000000 1.0
C      1  0.4274440000000  0.4017960000000  0.5362920000000 1.0
C      1  0.4307460000000  0.5380390000000  0.5182770000000 1.0
C      1  0.4789550000000  0.6151660000000  0.5220430000000 1.0
C      1  0.5588850000000  0.4196160000000  0.4458500000000 1.0
C      1  0.5691760000000  0.5475490000000  0.4434520000000 1.0
C      1  0.4346220000000  0.5279710000000  0.5457250000000 1.0
C      1  0.5147880000000  0.4164800000000  0.4019990000000 1.0
C      1  0.5332740000000  0.4260030000000  0.5941260000000 1.0
C      1  0.4529490000000  0.5348850000000  0.4985080000000 1.0
C      1  0.5535000000000  0.3589170000000  0.5112060000000 1.0
C      1  0.4827100000000  0.5687480000000  0.3891660000000 1.0
C      1  0.5464110000000  0.5374870000000  0.5844410000000 1.0
C      1  0.4321000000000  0.6168100000000  0.5007930000000 1.0
C      1  0.5430580000000  0.4795780000000  0.5469820000000 1.0
C      1  0.4293460000000  0.4496280000000  0.4332760000000 1.0
C      1  0.4736220000000  0.4995420000000  0.5316820000000 1.0
C      1  0.5383260000000  0.5118380000000  0.4529680000000 1.0
C      1  0.5084930000000  0.5286080000000  0.3944130000000 1.0
C      1  0.6017500000000  0.5668810000000  0.4815140000000 1.0
C      1  0.6171910000000  0.3961800000000  0.4987350000000 1.0
C      1  0.5610790000000  0.4244120000000  0.4179790000000 1.0
C      1  0.5653900000000  0.5210370000000  0.4552680000000 1.0
C      1  0.5972820000000  0.4633150000000  0.4725010000000 1.0
C      1  0.6017630000000  0.5499810000000  0.5059880000000 1.0
C      1  0.4089850000000  0.4583940000000  0.5789570000000 1.0
C      1  0.4973080000000  0.5430160000000  0.5440990000000 1.0
C      1  0.3863890000000  0.5651580000000  0.5485840000000 1.0
C      1  0.5563970000000  0.4692570000000  0.6146520000000 1.0
C      1  0.4624020000000  0.5141150000000  0.4332810000000 1.0
C      1  0.4040850000000  0.4772540000000  0.4645080000000 1.0
C      1  0.5891870000000  0.5325950000000  0.5558050000000 1.0
C      1  0.4561740000000  0.5015040000000  0.4573860000000 1.0
C      1  0.5072460000000  0.4150970000000  0.5932880000000 1.0
C      1  0.4607660000000  0.3932340000000  0.4422400000000 1.0
C      1  0.4174230000000  0.5085090000000  0.6094770000000 1.0
C      1  0.5764700000000  0.4204760000000  0.5638370000000 1.0
C      1  0.5131660000000  0.4367940000000  0.4452960000000 1.0
C      1  0.4959640000000  0.4297710000000  0.5214180000000 1.0
C      1  0.4262960000000  0.4433550000000  0.4069310000000 1.0
C      1  0.5324810000000  0.4854090000000  0.4119220000000 1.0
C      1  0.5702380000000  0.6397920000000  0.4481490000000 1.0
C      1  0.5848150000000  0.4854690000000  0.4855040000000 1.0
END
