TITL C-612607-4507-871 0.039058722929038 125000 -1115.34736820264 0 0 180 (C1) n - 1
REM
REM in /home/nfs/bkarasulu/CARBON/AIRSS/Generating-Clusters/TERSOFF/Only-C1/FIRE-HFTN
REM
REM
REM
REM
REM
REM ./C.cell (11c1c37f851c82e70ff6c80c92926a4b)
REM AIRSS Version 0.9.1 bugfix July 2018 build 013d7b7c2542+ Fri, 06 Jul 2018 19:26:36 +0100
REM compiler GCC version 9.2.1 20190827 (Red Hat 9.2.1-1)
REM options -cpp -mtune=generic -march=x86-64 -g -O0 -fpre-include=/usr/include/finclude/math-vector-fortran.h
REM seed 876645565 2087431279 -2098642569 -1026320909 1592769575 -1036069550 -247235400 73896571 124697065 1628000699 -380305097 -1827888340 -1102080655 -1882361376 334984884 -1376650331 -1322487495 236145627 -225562767 1440440320 449702784 -1852945674 1938580259 38452592 -388793919 426148932 -387903061 587938144 705851426 -1503778974 1307006785 1505954303 -1067803454
REM
CELL 1.54180   50.00000   50.00000   50.00000   90.00000   90.00000   90.00000
LATT -1
SFAC C  
C      1  0.4278200000000  0.4292620000000  0.4964670000000 1.0
C      1  0.4761930000000  0.5313620000000  0.5533350000000 1.0
C      1  0.4638070000000  0.4504760000000  0.5578090000000 1.0
C      1  0.4002090000000  0.5543020000000  0.4916220000000 1.0
C      1  0.4249330000000  0.5688020000000  0.5565020000000 1.0
C      1  0.5176620000000  0.4061450000000  0.4318740000000 1.0
C      1  0.4275610000000  0.5929000000000  0.5449420000000 1.0
C      1  0.5153550000000  0.4997750000000  0.4571520000000 1.0
C      1  0.5313990000000  0.5327070000000  0.3982940000000 1.0
C      1  0.4222750000000  0.5730080000000  0.4982700000000 1.0
C      1  0.4792240000000  0.4311870000000  0.4176060000000 1.0
C      1  0.4723670000000  0.4135540000000  0.5888190000000 1.0
C      1  0.4605120000000  0.4803850000000  0.4330170000000 1.0
C      1  0.4955820000000  0.5149830000000  0.5656630000000 1.0
C      1  0.4046060000000  0.4917370000000  0.5680650000000 1.0
C      1  0.4753860000000  0.3953750000000  0.4575700000000 1.0
C      1  0.5858050000000  0.4393140000000  0.5550020000000 1.0
C      1  0.4296200000000  0.5025900000000  0.4623780000000 1.0
C      1  0.5983130000000  0.4299380000000  0.4948460000000 1.0
C      1  0.4830250000000  0.5761160000000  0.5811770000000 1.0
C      1  0.5389930000000  0.3590310000000  0.4659910000000 1.0
C      1  0.5135260000000  0.5243160000000  0.5013270000000 1.0
C      1  0.5412370000000  0.5377430000000  0.5464280000000 1.0
C      1  0.5410490000000  0.5224100000000  0.4921210000000 1.0
C      1  0.4429290000000  0.4829350000000  0.6047100000000 1.0
C      1  0.4993550000000  0.6348370000000  0.5119790000000 1.0
C      1  0.5104890000000  0.5152690000000  0.4062640000000 1.0
C      1  0.4073050000000  0.5307630000000  0.5096840000000 1.0
C      1  0.4451170000000  0.5535850000000  0.4984620000000 1.0
C      1  0.4563150000000  0.4944740000000  0.4585160000000 1.0
C      1  0.5217600000000  0.6092620000000  0.4055060000000 1.0
C      1  0.5432430000000  0.5846290000000  0.5405800000000 1.0
C      1  0.5263330000000  0.4690360000000  0.6139290000000 1.0
C      1  0.4899700000000  0.6424980000000  0.5587180000000 1.0
C      1  0.3725000000000  0.4859900000000  0.4888690000000 1.0
C      1  0.5809290000000  0.4638800000000  0.5413270000000 1.0
C      1  0.4262800000000  0.5411870000000  0.5519470000000 1.0
C      1  0.4692300000000  0.4754170000000  0.3502690000000 1.0
C      1  0.5809090000000  0.6154180000000  0.4642530000000 1.0
C      1  0.4193020000000  0.4547570000000  0.4568470000000 1.0
C      1  0.4447800000000  0.5194220000000  0.4184440000000 1.0
C      1  0.5533390000000  0.4679340000000  0.4045950000000 1.0
C      1  0.5232100000000  0.5179810000000  0.5588640000000 1.0
C      1  0.5422330000000  0.5083030000000  0.4668320000000 1.0
C      1  0.5577970000000  0.5198840000000  0.3980050000000 1.0
C      1  0.3888590000000  0.5128910000000  0.5562980000000 1.0
C      1  0.5642950000000  0.4920450000000  0.4600270000000 1.0
C      1  0.5661510000000  0.5290240000000  0.5039610000000 1.0
C      1  0.4609300000000  0.3947630000000  0.5101780000000 1.0
C      1  0.5243670000000  0.4951080000000  0.6203250000000 1.0
C      1  0.5967140000000  0.4877550000000  0.5429520000000 1.0
C      1  0.5329760000000  0.5606320000000  0.5866260000000 1.0
C      1  0.5885330000000  0.5290780000000  0.4847770000000 1.0
C      1  0.4733050000000  0.6023690000000  0.5370600000000 1.0
C      1  0.4889070000000  0.4707020000000  0.5218140000000 1.0
C      1  0.5049340000000  0.5161220000000  0.4339760000000 1.0
C      1  0.5711820000000  0.4169620000000  0.5456740000000 1.0
C      1  0.5002540000000  0.5464460000000  0.5144590000000 1.0
C      1  0.4216000000000  0.5645910000000  0.4508430000000 1.0
C      1  0.5812280000000  0.5105570000000  0.5497700000000 1.0
C      1  0.4604610000000  0.4366690000000  0.5322350000000 1.0
C      1  0.5887430000000  0.6648870000000  0.4815220000000 1.0
C      1  0.4569150000000  0.5063790000000  0.5025580000000 1.0
C      1  0.5351260000000  0.4058310000000  0.4546670000000 1.0
C      1  0.5855140000000  0.6401790000000  0.4724900000000 1.0
C      1  0.4367480000000  0.5266740000000  0.5035190000000 1.0
C      1  0.4656210000000  0.5007820000000  0.6015470000000 1.0
C      1  0.5047220000000  0.5619910000000  0.5941540000000 1.0
C      1  0.4055570000000  0.4716630000000  0.5236440000000 1.0
C      1  0.5750840000000  0.3891030000000  0.4782950000000 1.0
C      1  0.4028320000000  0.5302820000000  0.5383850000000 1.0
C      1  0.5380650000000  0.4388320000000  0.4927670000000 1.0
C      1  0.5386700000000  0.5544750000000  0.4551490000000 1.0
C      1  0.5619790000000  0.5632670000000  0.4173770000000 1.0
C      1  0.5384410000000  0.4318690000000  0.4655450000000 1.0
C      1  0.4980910000000  0.5377260000000  0.6109280000000 1.0
C      1  0.6181350000000  0.3596850000000  0.4625700000000 1.0
C      1  0.5657060000000  0.5642780000000  0.4482610000000 1.0
C      1  0.4030320000000  0.4503440000000  0.4807690000000 1.0
C      1  0.5679520000000  0.5231190000000  0.5962590000000 1.0
C      1  0.3633390000000  0.5018380000000  0.4694070000000 1.0
C      1  0.4856490000000  0.4684710000000  0.5664780000000 1.0
C      1  0.4958680000000  0.4031120000000  0.5448260000000 1.0
C      1  0.5528130000000  0.4616650000000  0.5011160000000 1.0
C      1  0.4911680000000  0.5404290000000  0.4420190000000 1.0
C      1  0.5255550000000  0.5983700000000  0.4915460000000 1.0
C      1  0.5851720000000  0.5417910000000  0.4581550000000 1.0
C      1  0.5110850000000  0.5598800000000  0.4558170000000 1.0
C      1  0.4647780000000  0.5870460000000  0.4462130000000 1.0
C      1  0.5882290000000  0.5254540000000  0.4339860000000 1.0
C      1  0.6239620000000  0.4881060000000  0.5426870000000 1.0
C      1  0.4812760000000  0.5861140000000  0.4195890000000 1.0
C      1  0.3663290000000  0.5203700000000  0.4503420000000 1.0
C      1  0.4708240000000  0.4461570000000  0.4733210000000 1.0
C      1  0.4477880000000  0.5630630000000  0.4422880000000 1.0
C      1  0.4864790000000  0.4419500000000  0.5184900000000 1.0
C      1  0.4456010000000  0.4949550000000  0.5438040000000 1.0
C      1  0.6388280000000  0.3457360000000  0.4550290000000 1.0
C      1  0.4483820000000  0.4553690000000  0.6099710000000 1.0
C      1  0.4168900000000  0.4715290000000  0.4320410000000 1.0
C      1  0.4488550000000  0.5230520000000  0.5526370000000 1.0
C      1  0.6140400000000  0.4808140000000  0.4887230000000 1.0
C      1  0.5000050000000  0.4309810000000  0.3971540000000 1.0
C      1  0.4619020000000  0.5397500000000  0.4335130000000 1.0
C      1  0.4346740000000  0.5726740000000  0.3946140000000 1.0
C      1  0.5145200000000  0.6243140000000  0.4924960000000 1.0
C      1  0.5768970000000  0.4986200000000  0.4353990000000 1.0
C      1  0.5916900000000  0.6891710000000  0.4905360000000 1.0
C      1  0.6105670000000  0.4539350000000  0.4913700000000 1.0
C      1  0.4835400000000  0.4876170000000  0.3683210000000 1.0
C      1  0.4961680000000  0.4112460000000  0.5730350000000 1.0
C      1  0.5971220000000  0.3738820000000  0.4702340000000 1.0
C      1  0.5680310000000  0.4733820000000  0.4804800000000 1.0
C      1  0.5403210000000  0.4957500000000  0.5652320000000 1.0
C      1  0.4602810000000  0.5813970000000  0.3989020000000 1.0
C      1  0.5404720000000  0.4475920000000  0.4189480000000 1.0
C      1  0.4709760000000  0.3340970000000  0.5513840000000 1.0
C      1  0.4463950000000  0.6026760000000  0.5258860000000 1.0
C      1  0.4380980000000  0.5994490000000  0.4972460000000 1.0
C      1  0.5658380000000  0.5283400000000  0.5326060000000 1.0
C      1  0.5442800000000  0.5377220000000  0.6024060000000 1.0
C      1  0.4881170000000  0.4081060000000  0.4356430000000 1.0
C      1  0.5180780000000  0.4252930000000  0.5848210000000 1.0
C      1  0.5630510000000  0.4936260000000  0.4098670000000 1.0
C      1  0.4106230000000  0.5612540000000  0.4006300000000 1.0
C      1  0.4175530000000  0.4894780000000  0.5931490000000 1.0
C      1  0.4589240000000  0.5925620000000  0.4759180000000 1.0
C      1  0.5768100000000  0.5388280000000  0.4101300000000 1.0
C      1  0.5659130000000  0.5056040000000  0.5739390000000 1.0
C      1  0.5328660000000  0.4202440000000  0.5138800000000 1.0
C      1  0.5495860000000  0.3842940000000  0.4659870000000 1.0
C      1  0.3912080000000  0.5493400000000  0.4157640000000 1.0
C      1  0.5596520000000  0.4104050000000  0.5207970000000 1.0
C      1  0.4768000000000  0.3847640000000  0.5326400000000 1.0
C      1  0.4654090000000  0.2853540000000  0.5702870000000 1.0
C      1  0.4707260000000  0.5277610000000  0.6113840000000 1.0
C      1  0.4670130000000  0.5670370000000  0.4879540000000 1.0
C      1  0.5548350000000  0.4668070000000  0.5291570000000 1.0
C      1  0.5735450000000  0.5908290000000  0.4577470000000 1.0
C      1  0.4521690000000  0.5492960000000  0.6087590000000 1.0
C      1  0.4585090000000  0.5724370000000  0.5955580000000 1.0
C      1  0.4876730000000  0.6269910000000  0.5363280000000 1.0
C      1  0.4827660000000  0.5787850000000  0.5518820000000 1.0
C      1  0.5908430000000  0.5256700000000  0.6108510000000 1.0
C      1  0.4438590000000  0.4412620000000  0.4685510000000 1.0
C      1  0.5059120000000  0.4711990000000  0.5451790000000 1.0
C      1  0.4678440000000  0.3897140000000  0.4829040000000 1.0
C      1  0.6029760000000  0.4374180000000  0.5761120000000 1.0
C      1  0.4719200000000  0.5030360000000  0.4795410000000 1.0
C      1  0.4895900000000  0.4568230000000  0.4556550000000 1.0
C      1  0.5225050000000  0.5228740000000  0.6154920000000 1.0
C      1  0.4681690000000  0.3095230000000  0.5609130000000 1.0
C      1  0.6073140000000  0.5071730000000  0.4874000000000 1.0
C      1  0.5324300000000  0.5616250000000  0.4073240000000 1.0
C      1  0.4927140000000  0.5654140000000  0.4957600000000 1.0
C      1  0.3922570000000  0.4686580000000  0.4987730000000 1.0
C      1  0.5786780000000  0.4090980000000  0.4984500000000 1.0
C      1  0.4576040000000  0.4308790000000  0.6034420000000 1.0
C      1  0.5259300000000  0.4455760000000  0.6007600000000 1.0
C      1  0.5410530000000  0.5915940000000  0.5146090000000 1.0
C      1  0.5338600000000  0.4746170000000  0.5472130000000 1.0
C      1  0.4371320000000  0.4901370000000  0.4192760000000 1.0
C      1  0.5110580000000  0.5839510000000  0.4111850000000 1.0
C      1  0.4987890000000  0.5083760000000  0.4814960000000 1.0
C      1  0.5351150000000  0.4529570000000  0.4466850000000 1.0
C      1  0.3984210000000  0.5537230000000  0.4627400000000 1.0
C      1  0.5102830000000  0.5780620000000  0.4785610000000 1.0
C      1  0.4644850000000  0.4881630000000  0.5230090000000 1.0
C      1  0.4737860000000  0.3586740000000  0.5419220000000 1.0
C      1  0.5405140000000  0.5633950000000  0.5589060000000 1.0
C      1  0.4967560000000  0.4996590000000  0.3878710000000 1.0
C      1  0.3824980000000  0.5417150000000  0.4422700000000 1.0
C      1  0.5139830000000  0.4703130000000  0.4537040000000 1.0
C      1  0.5254690000000  0.4249790000000  0.4096760000000 1.0
C      1  0.4870840000000  0.5529430000000  0.5391480000000 1.0
C      1  0.4202180000000  0.4817870000000  0.5456580000000 1.0
C      1  0.4752400000000  0.4565470000000  0.4304060000000 1.0
C      1  0.4838860000000  0.4930290000000  0.5806760000000 1.0
C      1  0.5067190000000  0.4217060000000  0.5252500000000 1.0
C      1  0.4451840000000  0.4188100000000  0.5159090000000 1.0
END
