TITL C-612602-9376-57 3.63231466454067 125000 -648.629167485345 0 0 106 (C1) n - 1
REM
REM in /home/nfs/bkarasulu/CARBON/AIRSS/Generating-Clusters/TERSOFF/Only-C1/FIRE-HFTN
REM
REM
REM
REM
REM
REM ./C.cell (11c1c37f851c82e70ff6c80c92926a4b)
REM AIRSS Version 0.9.1 bugfix July 2018 build 013d7b7c2542+ Fri, 06 Jul 2018 19:26:36 +0100
REM compiler GCC version 9.2.1 20190827 (Red Hat 9.2.1-1)
REM options -cpp -mtune=generic -march=x86-64 -g -O0 -fpre-include=/usr/include/finclude/math-vector-fortran.h
REM seed 910950955 -1658467566 2010210996 -317639405 459580333 -1980560390 -1713432127 -1035535100 -2680614 1696054742 -66558599 -1452043885 772143040 -1079217571 -216562925 -727871607 -1476778575 -770034749 634424715 1246350482 -1347286359 807360201 -627296642 1978735026 -49920536 -1051662003 -836295392 -365884650 -1916340893 950420992 -1149305882 1385020742 -821919664
REM
CELL 1.54180   50.00000   50.00000   50.00000   90.00000   90.00000   90.00000
LATT -1
SFAC C  
C      1  0.5124600000000  0.5349240000000  0.5194390000000 1.0
C      1  0.5501300000000  0.5207480000000  0.4909800000000 1.0
C      1  0.5518430000000  0.5826210000000  0.4958830000000 1.0
C      1  0.5778880000000  0.4790980000000  0.5296770000000 1.0
C      1  0.4947700000000  0.4935900000000  0.4187100000000 1.0
C      1  0.4288000000000  0.5082590000000  0.5006780000000 1.0
C      1  0.4641760000000  0.4945500000000  0.5762560000000 1.0
C      1  0.5505200000000  0.4924850000000  0.4903850000000 1.0
C      1  0.4535880000000  0.5140950000000  0.4301870000000 1.0
C      1  0.5613700000000  0.4241580000000  0.4672870000000 1.0
C      1  0.4738750000000  0.4162720000000  0.5080330000000 1.0
C      1  0.4686900000000  0.5156190000000  0.3832700000000 1.0
C      1  0.4468630000000  0.5277480000000  0.5041710000000 1.0
C      1  0.5206470000000  0.4150110000000  0.4482700000000 1.0
C      1  0.4546310000000  0.4374090000000  0.4577740000000 1.0
C      1  0.4155730000000  0.4702460000000  0.5423380000000 1.0
C      1  0.5690650000000  0.4874480000000  0.5928370000000 1.0
C      1  0.5221230000000  0.5516880000000  0.4100740000000 1.0
C      1  0.5405360000000  0.5322610000000  0.5158770000000 1.0
C      1  0.5370780000000  0.5299320000000  0.4042190000000 1.0
C      1  0.5030770000000  0.5342990000000  0.5921680000000 1.0
C      1  0.5077050000000  0.5034590000000  0.4429090000000 1.0
C      1  0.4511350000000  0.5408050000000  0.4403020000000 1.0
C      1  0.5830320000000  0.4526330000000  0.5392660000000 1.0
C      1  0.5748420000000  0.5686150000000  0.4983350000000 1.0
C      1  0.5015250000000  0.5154380000000  0.5397480000000 1.0
C      1  0.5461340000000  0.5047090000000  0.4077750000000 1.0
C      1  0.5516730000000  0.5306600000000  0.5417360000000 1.0
C      1  0.4795190000000  0.4447450000000  0.4162450000000 1.0
C      1  0.5270340000000  0.4542270000000  0.5485130000000 1.0
C      1  0.5590860000000  0.4422240000000  0.4454100000000 1.0
C      1  0.5259350000000  0.5902430000000  0.4956520000000 1.0
C      1  0.4135500000000  0.4962110000000  0.5503570000000 1.0
C      1  0.5182490000000  0.5786390000000  0.5545800000000 1.0
C      1  0.5888480000000  0.5431340000000  0.5646200000000 1.0
C      1  0.4793660000000  0.4740240000000  0.4673670000000 1.0
C      1  0.4824700000000  0.4381520000000  0.5525890000000 1.0
C      1  0.4990420000000  0.4652510000000  0.4122390000000 1.0
C      1  0.4206090000000  0.4604950000000  0.4927400000000 1.0
C      1  0.4086660000000  0.5466180000000  0.4726770000000 1.0
C      1  0.5440080000000  0.4922660000000  0.5809150000000 1.0
C      1  0.5032060000000  0.4906620000000  0.5241440000000 1.0
C      1  0.5390180000000  0.4284310000000  0.5437300000000 1.0
C      1  0.4534240000000  0.4694600000000  0.5718440000000 1.0
C      1  0.4532610000000  0.4269950000000  0.4914700000000 1.0
C      1  0.5345560000000  0.4333000000000  0.4295480000000 1.0
C      1  0.4909140000000  0.4194100000000  0.5314780000000 1.0
C      1  0.5461140000000  0.5303980000000  0.4647580000000 1.0
C      1  0.4256470000000  0.5651830000000  0.4830050000000 1.0
C      1  0.4663010000000  0.4784260000000  0.4921010000000 1.0
C      1  0.3710570000000  0.5213700000000  0.4563980000000 1.0
C      1  0.4563820000000  0.5474070000000  0.5820820000000 1.0
C      1  0.4210190000000  0.5214190000000  0.5570930000000 1.0
C      1  0.4722420000000  0.5079900000000  0.4097350000000 1.0
C      1  0.4845440000000  0.5523280000000  0.5782960000000 1.0
C      1  0.5352100000000  0.4134810000000  0.4740720000000 1.0
C      1  0.4698870000000  0.5725630000000  0.5326160000000 1.0
C      1  0.5070650000000  0.4581710000000  0.5674150000000 1.0
C      1  0.4962800000000  0.5384670000000  0.4958730000000 1.0
C      1  0.4811320000000  0.4951440000000  0.5072230000000 1.0
C      1  0.5199520000000  0.5267630000000  0.4546040000000 1.0
C      1  0.5634930000000  0.5529830000000  0.5552000000000 1.0
C      1  0.4728320000000  0.5800000000000  0.5037220000000 1.0
C      1  0.5673770000000  0.4305410000000  0.5432260000000 1.0
C      1  0.5935370000000  0.5038810000000  0.5344680000000 1.0
C      1  0.5029670000000  0.5444630000000  0.4687540000000 1.0
C      1  0.4782920000000  0.5102190000000  0.5563790000000 1.0
C      1  0.5447800000000  0.5740090000000  0.5585060000000 1.0
C      1  0.4398870000000  0.4917100000000  0.4430170000000 1.0
C      1  0.5198800000000  0.4145900000000  0.5260870000000 1.0
C      1  0.4748210000000  0.4983180000000  0.6021230000000 1.0
C      1  0.4910750000000  0.5693760000000  0.5546210000000 1.0
C      1  0.4633780000000  0.5625580000000  0.4546920000000 1.0
C      1  0.4373200000000  0.5444910000000  0.5609780000000 1.0
C      1  0.4322330000000  0.4392640000000  0.5073550000000 1.0
C      1  0.4556500000000  0.4672350000000  0.4513030000000 1.0
C      1  0.5526360000000  0.4806440000000  0.5156480000000 1.0
C      1  0.4739750000000  0.5224230000000  0.5015950000000 1.0
C      1  0.4989430000000  0.5907120000000  0.4973020000000 1.0
C      1  0.5175750000000  0.4842710000000  0.5873840000000 1.0
C      1  0.5019200000000  0.5059230000000  0.5996110000000 1.0
C      1  0.4560650000000  0.4482500000000  0.5535670000000 1.0
C      1  0.5051010000000  0.5654740000000  0.4260620000000 1.0
C      1  0.5545100000000  0.4708700000000  0.4463740000000 1.0
C      1  0.5264110000000  0.4569290000000  0.4137540000000 1.0
C      1  0.5453980000000  0.4791320000000  0.4196130000000 1.0
C      1  0.4374050000000  0.4828000000000  0.4929790000000 1.0
C      1  0.4336990000000  0.4479790000000  0.5354160000000 1.0
C      1  0.5924690000000  0.4978400000000  0.5838000000000 1.0
C      1  0.5977750000000  0.5234810000000  0.5138250000000 1.0
C      1  0.5075640000000  0.4818630000000  0.4625430000000 1.0
C      1  0.4535590000000  0.5719160000000  0.4809510000000 1.0
C      1  0.5252680000000  0.4702900000000  0.5234220000000 1.0
C      1  0.4143000000000  0.5006390000000  0.4522700000000 1.0
C      1  0.4934740000000  0.4090080000000  0.4448690000000 1.0
C      1  0.4725870000000  0.4264090000000  0.4376090000000 1.0
C      1  0.5374280000000  0.4793560000000  0.4683930000000 1.0
C      1  0.4666070000000  0.5235830000000  0.3585460000000 1.0
C      1  0.5913310000000  0.5477940000000  0.5036420000000 1.0
C      1  0.5245630000000  0.4225140000000  0.4984420000000 1.0
C      1  0.4912080000000  0.5629330000000  0.4508270000000 1.0
C      1  0.5964770000000  0.5150510000000  0.5615710000000 1.0
C      1  0.3981820000000  0.5229000000000  0.4604660000000 1.0
C      1  0.5453330000000  0.5093150000000  0.5586200000000 1.0
C      1  0.4437840000000  0.5628590000000  0.5402470000000 1.0
C      1  0.5195900000000  0.4508250000000  0.5002400000000 1.0
END
