TITL C-612606-7351-281 -3.29717670646664e-06 125000 -502.351187287434 0 0 82 (C1) n - 1
REM
REM in /home/nfs/bkarasulu/CARBON/AIRSS/Generating-Clusters/TERSOFF/Only-C1/FIRE-HFTN
REM
REM
REM
REM
REM
REM ./C.cell (11c1c37f851c82e70ff6c80c92926a4b)
REM AIRSS Version 0.9.1 bugfix July 2018 build 013d7b7c2542+ Fri, 06 Jul 2018 19:26:36 +0100
REM compiler GCC version 9.2.1 20190827 (Red Hat 9.2.1-1)
REM options -cpp -mtune=generic -march=x86-64 -g -O0 -fpre-include=/usr/include/finclude/math-vector-fortran.h
REM seed -2072008297 -759970926 238440526 -471924558 -1274235542 608871394 1914402184 -258655362 -612188899 1077921474 729030810 -1016099087 415195959 -1115806086 977867670 -461314764 -1676324380 -1269062969 -1581617697 -1672932925 179223642 -1902483077 73543834 -1484631476 -3576132 87438735 -533154911 -2102742269 -951324434 1057041129 -1332250550 -567983382 1601144040
REM
CELL 1.54180   50.00000   50.00000   50.00000   90.00000   90.00000   90.00000
LATT -1
SFAC C  
C      1  0.5348630000000  0.5716910000000  0.4164300000000 1.0
C      1  0.5532430000000  0.5284980000000  0.4214560000000 1.0
C      1  0.4532750000000  0.5085100000000  0.4378300000000 1.0
C      1  0.4168750000000  0.5019320000000  0.5734930000000 1.0
C      1  0.4770750000000  0.5771330000000  0.5493670000000 1.0
C      1  0.4123380000000  0.4944230000000  0.5145940000000 1.0
C      1  0.5512580000000  0.4374890000000  0.4848190000000 1.0
C      1  0.5242940000000  0.5097360000000  0.4637260000000 1.0
C      1  0.5771090000000  0.4303650000000  0.5834370000000 1.0
C      1  0.4671780000000  0.4318400000000  0.5043660000000 1.0
C      1  0.4933010000000  0.4774610000000  0.5804480000000 1.0
C      1  0.5805560000000  0.4623610000000  0.4486740000000 1.0
C      1  0.4629420000000  0.5507070000000  0.4165850000000 1.0
C      1  0.4457460000000  0.4298640000000  0.5240530000000 1.0
C      1  0.4866840000000  0.4716350000000  0.4415030000000 1.0
C      1  0.4534660000000  0.5340240000000  0.5636820000000 1.0
C      1  0.5567550000000  0.5563070000000  0.4257390000000 1.0
C      1  0.4933700000000  0.4271780000000  0.5145950000000 1.0
C      1  0.4671270000000  0.4509460000000  0.4828470000000 1.0
C      1  0.4997560000000  0.5679240000000  0.5636810000000 1.0
C      1  0.5303920000000  0.4265830000000  0.4717660000000 1.0
C      1  0.4311430000000  0.5180610000000  0.5544720000000 1.0
C      1  0.5583340000000  0.4447330000000  0.5724740000000 1.0
C      1  0.4965680000000  0.5641010000000  0.4828860000000 1.0
C      1  0.5255650000000  0.5181190000000  0.5332830000000 1.0
C      1  0.5566300000000  0.5418260000000  0.4850870000000 1.0
C      1  0.5010380000000  0.5267570000000  0.5219440000000 1.0
C      1  0.5130420000000  0.5099290000000  0.6058560000000 1.0
C      1  0.4131860000000  0.4743360000000  0.5690660000000 1.0
C      1  0.4940810000000  0.5157930000000  0.4646510000000 1.0
C      1  0.4780940000000  0.5252440000000  0.5767580000000 1.0
C      1  0.5403460000000  0.5190280000000  0.4877180000000 1.0
C      1  0.4064940000000  0.5136090000000  0.5960040000000 1.0
C      1  0.4139870000000  0.4523840000000  0.5536270000000 1.0
C      1  0.5978010000000  0.5238830000000  0.4715720000000 1.0
C      1  0.4887790000000  0.5480610000000  0.4050900000000 1.0
C      1  0.5256260000000  0.5236500000000  0.5615320000000 1.0
C      1  0.5120940000000  0.5035210000000  0.4150160000000 1.0
C      1  0.5027160000000  0.5405020000000  0.5690900000000 1.0
C      1  0.4755900000000  0.4631970000000  0.5642740000000 1.0
C      1  0.5617450000000  0.4665820000000  0.4277890000000 1.0
C      1  0.5384530000000  0.4601000000000  0.5604130000000 1.0
C      1  0.4610120000000  0.4766670000000  0.4924420000000 1.0
C      1  0.4925780000000  0.5833950000000  0.5009330000000 1.0
C      1  0.4541080000000  0.5615150000000  0.5552910000000 1.0
C      1  0.5223080000000  0.4773570000000  0.5753400000000 1.0
C      1  0.4673510000000  0.4763420000000  0.5408180000000 1.0
C      1  0.5309510000000  0.5045600000000  0.5824940000000 1.0
C      1  0.5796400000000  0.5454690000000  0.4691550000000 1.0
C      1  0.5690540000000  0.5108630000000  0.4063420000000 1.0
C      1  0.4843720000000  0.4490530000000  0.4596670000000 1.0
C      1  0.5962770000000  0.4976240000000  0.4775350000000 1.0
C      1  0.5822340000000  0.4732860000000  0.4750370000000 1.0
C      1  0.4680590000000  0.4362170000000  0.5673890000000 1.0
C      1  0.4762310000000  0.4969990000000  0.4500800000000 1.0
C      1  0.4142440000000  0.4679490000000  0.5097190000000 1.0
C      1  0.4558980000000  0.5462550000000  0.4647220000000 1.0
C      1  0.5756710000000  0.5616320000000  0.4461300000000 1.0
C      1  0.5477810000000  0.4762030000000  0.5139870000000 1.0
C      1  0.5339830000000  0.4586460000000  0.5324170000000 1.0
C      1  0.5629080000000  0.4623100000000  0.4934140000000 1.0
C      1  0.4272640000000  0.5394580000000  0.5087310000000 1.0
C      1  0.5344390000000  0.4677350000000  0.4361800000000 1.0
C      1  0.5094010000000  0.4756890000000  0.4232800000000 1.0
C      1  0.5094060000000  0.5673090000000  0.4083870000000 1.0
C      1  0.4970090000000  0.5212910000000  0.3992870000000 1.0
C      1  0.4551550000000  0.4204410000000  0.5495010000000 1.0
C      1  0.4779790000000  0.5153150000000  0.5157830000000 1.0
C      1  0.5154970000000  0.4392650000000  0.5235380000000 1.0
C      1  0.4672230000000  0.4898160000000  0.5163190000000 1.0
C      1  0.4837340000000  0.5420620000000  0.4714030000000 1.0
C      1  0.4224160000000  0.5181270000000  0.5266300000000 1.0
C      1  0.4225930000000  0.4470910000000  0.5268660000000 1.0
C      1  0.5059160000000  0.4305990000000  0.4613310000000 1.0
C      1  0.5701390000000  0.4839000000000  0.4070760000000 1.0
C      1  0.5309720000000  0.4800950000000  0.4623100000000 1.0
C      1  0.4817690000000  0.5893160000000  0.5246530000000 1.0
C      1  0.4507000000000  0.5369200000000  0.4382020000000 1.0
C      1  0.5408410000000  0.5043630000000  0.5130160000000 1.0
C      1  0.4372710000000  0.5484710000000  0.4855790000000 1.0
C      1  0.5303320000000  0.5172410000000  0.4336780000000 1.0
C      1  0.4863730000000  0.5031280000000  0.5936450000000 1.0
END
