TITL C-612605-9286-552 1.32360197304977 125000 -529.830692725957 0 0 88 (C1) n - 1
REM
REM in /home/nfs/bkarasulu/CARBON/AIRSS/Generating-Clusters/TERSOFF/Only-C1/FIRE-HFTN
REM
REM
REM
REM
REM
REM ./C.cell (11c1c37f851c82e70ff6c80c92926a4b)
REM AIRSS Version 0.9.1 bugfix July 2018 build 013d7b7c2542+ Fri, 06 Jul 2018 19:26:36 +0100
REM compiler GCC version 9.2.1 20190827 (Red Hat 9.2.1-1)
REM options -cpp -mtune=generic -march=x86-64 -g -O0 -fpre-include=/usr/include/finclude/math-vector-fortran.h
REM seed -181007645 171351427 -1688511266 678662392 -1878386223 1209917647 -1992852191 -2113282744 -1927180732 -585168435 1767429811 889872590 756373319 -1676117038 1204205710 -569094117 76185252 1548087160 58704225 185216624 -116435587 -233772721 990182081 -80860628 -1576053438 -447474440 -487677270 -1109090976 -1202180823 158634330 -1858762525 682919701 -1042737564
REM
CELL 1.54180   50.00000   50.00000   50.00000   90.00000   90.00000   90.00000
LATT -1
SFAC C  
C      1  0.4277920000000  0.4921010000000  0.4807400000000 1.0
C      1  0.5666320000000  0.5021600000000  0.6314640000000 1.0
C      1  0.5297590000000  0.4988790000000  0.4648040000000 1.0
C      1  0.5063220000000  0.4357460000000  0.5491180000000 1.0
C      1  0.5548630000000  0.4732150000000  0.5891860000000 1.0
C      1  0.4686260000000  0.4774110000000  0.4704500000000 1.0
C      1  0.5468320000000  0.5741300000000  0.6283640000000 1.0
C      1  0.5720040000000  0.4440340000000  0.5141300000000 1.0
C      1  0.4785010000000  0.4720900000000  0.4954280000000 1.0
C      1  0.5057540000000  0.4686210000000  0.4964250000000 1.0
C      1  0.5016980000000  0.5110860000000  0.3968150000000 1.0
C      1  0.5343450000000  0.4445020000000  0.5482730000000 1.0
C      1  0.4028090000000  0.5203900000000  0.5303980000000 1.0
C      1  0.4981020000000  0.4177150000000  0.4658290000000 1.0
C      1  0.4189760000000  0.5093330000000  0.4207010000000 1.0
C      1  0.4572830000000  0.4166540000000  0.5002300000000 1.0
C      1  0.4546440000000  0.5272220000000  0.5133140000000 1.0
C      1  0.4986190000000  0.4524080000000  0.4267370000000 1.0
C      1  0.5385140000000  0.5621200000000  0.6062630000000 1.0
C      1  0.4947880000000  0.5407930000000  0.4888290000000 1.0
C      1  0.4407290000000  0.4757100000000  0.4606620000000 1.0
C      1  0.4536380000000  0.4568850000000  0.5331400000000 1.0
C      1  0.5225810000000  0.5149440000000  0.5215480000000 1.0
C      1  0.5468290000000  0.4589290000000  0.5683840000000 1.0
C      1  0.5461530000000  0.5777530000000  0.3256660000000 1.0
C      1  0.5042400000000  0.4194800000000  0.5251670000000 1.0
C      1  0.5329250000000  0.5613420000000  0.5100850000000 1.0
C      1  0.5611260000000  0.5572220000000  0.5069220000000 1.0
C      1  0.4028170000000  0.5330970000000  0.5063880000000 1.0
C      1  0.4800580000000  0.5098730000000  0.5524910000000 1.0
C      1  0.5551720000000  0.5855260000000  0.6502760000000 1.0
C      1  0.4438290000000  0.5012080000000  0.5037470000000 1.0
C      1  0.5015140000000  0.5453960000000  0.5795050000000 1.0
C      1  0.4234420000000  0.5409840000000  0.4575610000000 1.0
C      1  0.5498590000000  0.5372180000000  0.5663790000000 1.0
C      1  0.4960450000000  0.4272560000000  0.4391910000000 1.0
C      1  0.5127990000000  0.5797970000000  0.5198920000000 1.0
C      1  0.5135600000000  0.5282680000000  0.3780080000000 1.0
C      1  0.4759310000000  0.4699280000000  0.4282760000000 1.0
C      1  0.4795300000000  0.5185900000000  0.4476270000000 1.0
C      1  0.5858920000000  0.4620340000000  0.4997730000000 1.0
C      1  0.4892230000000  0.5592770000000  0.5572420000000 1.0
C      1  0.5672750000000  0.4782600000000  0.4580210000000 1.0
C      1  0.5780610000000  0.4852750000000  0.4849810000000 1.0
C      1  0.4337670000000  0.4871570000000  0.4103530000000 1.0
C      1  0.5708080000000  0.5319190000000  0.5179090000000 1.0
C      1  0.4588060000000  0.5237070000000  0.5410810000000 1.0
C      1  0.5299730000000  0.5479680000000  0.5836370000000 1.0
C      1  0.5671930000000  0.5064360000000  0.5032840000000 1.0
C      1  0.5462060000000  0.4611680000000  0.4454130000000 1.0
C      1  0.4751490000000  0.4114840000000  0.4809080000000 1.0
C      1  0.4274080000000  0.4923240000000  0.5687600000000 1.0
C      1  0.4739900000000  0.5486700000000  0.5071720000000 1.0
C      1  0.4630460000000  0.4591010000000  0.5601730000000 1.0
C      1  0.4588240000000  0.4781030000000  0.5150040000000 1.0
C      1  0.5609800000000  0.4875780000000  0.6106070000000 1.0
C      1  0.5245100000000  0.5448270000000  0.3604750000000 1.0
C      1  0.4868420000000  0.5243440000000  0.5936650000000 1.0
C      1  0.4108010000000  0.5407520000000  0.4815720000000 1.0
C      1  0.5404500000000  0.4971560000000  0.5095800000000 1.0
C      1  0.4344450000000  0.5298910000000  0.4336420000000 1.0
C      1  0.5243030000000  0.5238340000000  0.4563100000000 1.0
C      1  0.5050920000000  0.5070130000000  0.5413090000000 1.0
C      1  0.5416230000000  0.4371230000000  0.4609210000000 1.0
C      1  0.4880940000000  0.5657050000000  0.5289500000000 1.0
C      1  0.5275870000000  0.4837970000000  0.4885450000000 1.0
C      1  0.4857390000000  0.4428570000000  0.5675700000000 1.0
C      1  0.4533870000000  0.4964270000000  0.3911260000000 1.0
C      1  0.5180790000000  0.5375260000000  0.5053580000000 1.0
C      1  0.4630490000000  0.5276380000000  0.4265180000000 1.0
C      1  0.4817350000000  0.4901410000000  0.4489700000000 1.0
C      1  0.4729120000000  0.5148740000000  0.4014930000000 1.0
C      1  0.5265630000000  0.4225520000000  0.5065250000000 1.0
C      1  0.4742790000000  0.5026120000000  0.5797040000000 1.0
C      1  0.5157730000000  0.6068830000000  0.5207280000000 1.0
C      1  0.5670920000000  0.5312030000000  0.5464700000000 1.0
C      1  0.5467170000000  0.4361730000000  0.5231070000000 1.0
C      1  0.4487860000000  0.4318830000000  0.5206920000000 1.0
C      1  0.5354210000000  0.5614260000000  0.3429260000000 1.0
C      1  0.4536610000000  0.4823080000000  0.5755480000000 1.0
C      1  0.4873050000000  0.4335080000000  0.5933490000000 1.0
C      1  0.4982420000000  0.5333600000000  0.4620480000000 1.0
C      1  0.5236300000000  0.4232640000000  0.4782010000000 1.0
C      1  0.5193290000000  0.4916920000000  0.4095730000000 1.0
C      1  0.5776240000000  0.5751260000000  0.4946260000000 1.0
C      1  0.5240980000000  0.4676390000000  0.4253300000000 1.0
C      1  0.4455340000000  0.4701840000000  0.4306810000000 1.0
C      1  0.4110570000000  0.5058080000000  0.5517540000000 1.0
END
