TITL C-612600-6631-121 4.82317612310453 125000 -383.477585660241 0 0 64 (C1) n - 1
REM
REM in /home/nfs/bkarasulu/CARBON/AIRSS/Generating-Clusters/TERSOFF/Only-C1/FIRE-HFTN
REM
REM
REM
REM
REM
REM ./C.cell (11c1c37f851c82e70ff6c80c92926a4b)
REM AIRSS Version 0.9.1 bugfix July 2018 build 013d7b7c2542+ Fri, 06 Jul 2018 19:26:36 +0100
REM compiler GCC version 9.2.1 20190827 (Red Hat 9.2.1-1)
REM options -cpp -mtune=generic -march=x86-64 -g -O0 -fpre-include=/usr/include/finclude/math-vector-fortran.h
REM seed 9231694 -792905644 -1087748637 1098948395 1633814944 -1695410091 529199376 938141479 681972008 208384191 1858733917 -2052795288 -1462750225 -268932761 295749219 976870547 1768432821 1045264937 -2111876731 -1443536046 -192628360 1470808789 1182682181 -1474043143 -564831932 1571514942 792559173 -1633204172 -673032166 1813713554 1759985819 -12491804 236828004
REM
CELL 1.54180   50.00000   50.00000   50.00000   90.00000   90.00000   90.00000
LATT -1
SFAC C  
C      1  0.5777340000000  0.4943170000000  0.4267120000000 1.0
C      1  0.4714370000000  0.4766810000000  0.5426310000000 1.0
C      1  0.4685200000000  0.5543880000000  0.5807490000000 1.0
C      1  0.5401020000000  0.4506880000000  0.5030410000000 1.0
C      1  0.6178110000000  0.5681910000000  0.5392950000000 1.0
C      1  0.4201840000000  0.5345820000000  0.4701560000000 1.0
C      1  0.4272290000000  0.4881240000000  0.5227050000000 1.0
C      1  0.5672060000000  0.5178670000000  0.5230340000000 1.0
C      1  0.6128880000000  0.5261190000000  0.4809440000000 1.0
C      1  0.5421530000000  0.4761570000000  0.5165650000000 1.0
C      1  0.5931500000000  0.5122140000000  0.4419140000000 1.0
C      1  0.6184900000000  0.5468890000000  0.4613810000000 1.0
C      1  0.4536950000000  0.4680890000000  0.4543640000000 1.0
C      1  0.5341900000000  0.4067640000000  0.5253920000000 1.0
C      1  0.4906350000000  0.4224150000000  0.4769500000000 1.0
C      1  0.3692660000000  0.5435320000000  0.4631380000000 1.0
C      1  0.3373740000000  0.5771960000000  0.4356990000000 1.0
C      1  0.3635870000000  0.5031980000000  0.4963170000000 1.0
C      1  0.5245260000000  0.4312720000000  0.5167440000000 1.0
C      1  0.4975350000000  0.4402500000000  0.5210220000000 1.0
C      1  0.5195060000000  0.4814150000000  0.5327930000000 1.0
C      1  0.5667540000000  0.5649780000000  0.5099110000000 1.0
C      1  0.4469240000000  0.4680250000000  0.4822640000000 1.0
C      1  0.5750990000000  0.5442520000000  0.5274440000000 1.0
C      1  0.4656000000000  0.5423940000000  0.6046780000000 1.0
C      1  0.5261190000000  0.4456840000000  0.4527940000000 1.0
C      1  0.3528010000000  0.5609140000000  0.4489700000000 1.0
C      1  0.4783690000000  0.4566270000000  0.4466250000000 1.0
C      1  0.5942370000000  0.5068790000000  0.4710460000000 1.0
C      1  0.5440320000000  0.4515190000000  0.4752730000000 1.0
C      1  0.4466860000000  0.4933390000000  0.5458080000000 1.0
C      1  0.3972340000000  0.5454690000000  0.4622190000000 1.0
C      1  0.4451900000000  0.4975440000000  0.5968540000000 1.0
C      1  0.6093620000000  0.5850720000000  0.4933390000000 1.0
C      1  0.5619980000000  0.4736620000000  0.4371050000000 1.0
C      1  0.5752430000000  0.4899470000000  0.4830500000000 1.0
C      1  0.5430570000000  0.3834930000000  0.5330660000000 1.0
C      1  0.3964110000000  0.4672350000000  0.5526310000000 1.0
C      1  0.4335140000000  0.5152260000000  0.4825440000000 1.0
C      1  0.4558000000000  0.5180270000000  0.6103230000000 1.0
C      1  0.3589060000000  0.5230080000000  0.4792050000000 1.0
C      1  0.4955680000000  0.4659270000000  0.5339830000000 1.0
C      1  0.4546130000000  0.4455960000000  0.4975920000000 1.0
C      1  0.6156920000000  0.5580660000000  0.3877830000000 1.0
C      1  0.4789910000000  0.4321090000000  0.5010500000000 1.0
C      1  0.6207170000000  0.5732160000000  0.4704130000000 1.0
C      1  0.5810700000000  0.5832040000000  0.4959580000000 1.0
C      1  0.4363240000000  0.4776780000000  0.4355450000000 1.0
C      1  0.4001900000000  0.4806260000000  0.5282890000000 1.0
C      1  0.4988720000000  0.4395630000000  0.4559060000000 1.0
C      1  0.6120860000000  0.5474650000000  0.4113140000000 1.0
C      1  0.6233740000000  0.5839720000000  0.5180150000000 1.0
C      1  0.4134990000000  0.4670870000000  0.5748770000000 1.0
C      1  0.5623090000000  0.4945530000000  0.5083550000000 1.0
C      1  0.4629630000000  0.5450140000000  0.5562060000000 1.0
C      1  0.5392550000000  0.4576420000000  0.4297720000000 1.0
C      1  0.4100840000000  0.4501340000000  0.5959440000000 1.0
C      1  0.3787990000000  0.4883270000000  0.5122030000000 1.0
C      1  0.4540370000000  0.5224730000000  0.5450420000000 1.0
C      1  0.4350250000000  0.4858230000000  0.5733870000000 1.0
C      1  0.6081080000000  0.5362800000000  0.4363100000000 1.0
C      1  0.5974760000000  0.5508960000000  0.5435570000000 1.0
C      1  0.4362610000000  0.4906840000000  0.4956770000000 1.0
C      1  0.5641350000000  0.4700220000000  0.4661280000000 1.0
END
