TITL C-612605-9286-1476 2.36963111416359e-05 125000 -335.826762858934 0 0 55 (C1) n - 1
REM
REM in /home/nfs/bkarasulu/CARBON/AIRSS/Generating-Clusters/TERSOFF/Only-C1/FIRE-HFTN
REM
REM
REM
REM
REM
REM ./C.cell (11c1c37f851c82e70ff6c80c92926a4b)
REM AIRSS Version 0.9.1 bugfix July 2018 build 013d7b7c2542+ Fri, 06 Jul 2018 19:26:36 +0100
REM compiler GCC version 9.2.1 20190827 (Red Hat 9.2.1-1)
REM options -cpp -mtune=generic -march=x86-64 -g -O0 -fpre-include=/usr/include/finclude/math-vector-fortran.h
REM seed -480163541 1255336034 169918050 -1245139372 -346368595 242330121 -1727953735 -1662716365 -1153696858 -7452172 506126870 -1175117163 1505892129 1582180704 -1016491471 -1461878872 -967989725 -1235351189 -2049405264 -15394438 1821581175 -1532599927 1401883344 -749900762 -1549406766 1779006802 -1645653257 239411564 773361646 -1667072082 -1928422451 -1924420592 -1046382756
REM
CELL 1.54180   50.00000   50.00000   50.00000   90.00000   90.00000   90.00000
LATT -1
SFAC C  
C      1  0.5264180000000  0.4609120000000  0.5301050000000 1.0
C      1  0.4374740000000  0.4688600000000  0.4476610000000 1.0
C      1  0.4405630000000  0.5154640000000  0.5338960000000 1.0
C      1  0.4534170000000  0.4670750000000  0.5182950000000 1.0
C      1  0.5601180000000  0.5281140000000  0.5362090000000 1.0
C      1  0.5934590000000  0.4918010000000  0.4754030000000 1.0
C      1  0.5835970000000  0.5175450000000  0.4696150000000 1.0
C      1  0.5655770000000  0.5532060000000  0.4958860000000 1.0
C      1  0.4275350000000  0.5198000000000  0.4845870000000 1.0
C      1  0.4393380000000  0.4861510000000  0.5359910000000 1.0
C      1  0.4622250000000  0.5348280000000  0.5403420000000 1.0
C      1  0.5251280000000  0.4901250000000  0.4327150000000 1.0
C      1  0.5818790000000  0.4831940000000  0.5282530000000 1.0
C      1  0.4780640000000  0.4550020000000  0.5246210000000 1.0
C      1  0.5498070000000  0.5494500000000  0.4718980000000 1.0
C      1  0.5858230000000  0.4595590000000  0.5432680000000 1.0
C      1  0.5595730000000  0.4997800000000  0.5352930000000 1.0
C      1  0.4909220000000  0.5004440000000  0.4897120000000 1.0
C      1  0.5932310000000  0.4848030000000  0.5026610000000 1.0
C      1  0.5334380000000  0.4881980000000  0.5357070000000 1.0
C      1  0.4771930000000  0.4988000000000  0.4310500000000 1.0
C      1  0.6025320000000  0.4748860000000  0.4560610000000 1.0
C      1  0.3952130000000  0.4851150000000  0.5948430000000 1.0
C      1  0.5680130000000  0.4397370000000  0.5474870000000 1.0
C      1  0.4468770000000  0.5113980000000  0.4663760000000 1.0
C      1  0.5514250000000  0.5502290000000  0.5206370000000 1.0
C      1  0.5064400000000  0.5587280000000  0.5459660000000 1.0
C      1  0.4249400000000  0.5239180000000  0.5111470000000 1.0
C      1  0.4388640000000  0.4556670000000  0.4954240000000 1.0
C      1  0.5119010000000  0.5060850000000  0.5332770000000 1.0
C      1  0.5027040000000  0.4748290000000  0.4898620000000 1.0
C      1  0.5894410000000  0.5383300000000  0.4892810000000 1.0
C      1  0.5099260000000  0.5622130000000  0.4957560000000 1.0
C      1  0.5036010000000  0.4585260000000  0.5133360000000 1.0
C      1  0.4747040000000  0.5153030000000  0.4719630000000 1.0
C      1  0.4010730000000  0.4589770000000  0.5261400000000 1.0
C      1  0.4487100000000  0.4525200000000  0.4684370000000 1.0
C      1  0.4489090000000  0.4942330000000  0.4423850000000 1.0
C      1  0.5240820000000  0.5600850000000  0.5219950000000 1.0
C      1  0.5127660000000  0.5334080000000  0.4504030000000 1.0
C      1  0.4760770000000  0.5358640000000  0.5152730000000 1.0
C      1  0.4118140000000  0.4504080000000  0.5026560000000 1.0
C      1  0.4740910000000  0.4426580000000  0.4599480000000 1.0
C      1  0.4985060000000  0.4786580000000  0.4309660000000 1.0
C      1  0.5214580000000  0.5527970000000  0.4710440000000 1.0
C      1  0.4042120000000  0.4800380000000  0.5709180000000 1.0
C      1  0.4821050000000  0.5582830000000  0.4995160000000 1.0
C      1  0.4918040000000  0.4534010000000  0.4422620000000 1.0
C      1  0.4940910000000  0.5142770000000  0.5135890000000 1.0
C      1  0.5419750000000  0.4401000000000  0.5405620000000 1.0
C      1  0.5348780000000  0.5147970000000  0.4434990000000 1.0
C      1  0.4873840000000  0.5218630000000  0.4471820000000 1.0
C      1  0.5585840000000  0.5248710000000  0.4566470000000 1.0
C      1  0.4141860000000  0.4752550000000  0.5454670000000 1.0
C      1  0.4819340000000  0.5494350000000  0.5565260000000 1.0
END
