TITL C-612604-1799-671 -1.90138917125511e-05 125000 -203.453967650836 0 0 35 (C1) n - 1
REM
REM in /home/nfs/bkarasulu/CARBON/AIRSS/Generating-Clusters/TERSOFF/Only-C1/FIRE-HFTN
REM
REM
REM
REM
REM
REM ./C.cell (11c1c37f851c82e70ff6c80c92926a4b)
REM AIRSS Version 0.9.1 bugfix July 2018 build 013d7b7c2542+ Fri, 06 Jul 2018 19:26:36 +0100
REM compiler GCC version 9.2.1 20190827 (Red Hat 9.2.1-1)
REM options -cpp -mtune=generic -march=x86-64 -g -O0 -fpre-include=/usr/include/finclude/math-vector-fortran.h
REM seed 526682473 1495139712 -572091629 1196177272 822461191 2041115663 -1668219552 -879562539 485479739 -612970193 23393770 -1051795986 1323547345 1874477226 1199804793 -1627279188 1530611544 -1305341540 -2021268049 -1559741609 -244377197 -538759578 -1957004371 -150996323 1832165755 -1896956488 601255231 -1417997498 228663131 -1436017541 -745191012 -327777355 1865541273
REM
CELL 1.54180   50.00000   50.00000   50.00000   90.00000   90.00000   90.00000
LATT -1
SFAC C  
C      1  0.4401230000000  0.4916650000000  0.5781880000000 1.0
C      1  0.5465040000000  0.4805540000000  0.5272150000000 1.0
C      1  0.5349380000000  0.5347750000000  0.4160770000000 1.0
C      1  0.5101450000000  0.5497430000000  0.5271020000000 1.0
C      1  0.4430440000000  0.4876890000000  0.5506100000000 1.0
C      1  0.4844020000000  0.5507430000000  0.5721320000000 1.0
C      1  0.5191080000000  0.5355450000000  0.5065930000000 1.0
C      1  0.5672830000000  0.4712540000000  0.4806960000000 1.0
C      1  0.4928000000000  0.5044710000000  0.4642760000000 1.0
C      1  0.5020630000000  0.5054960000000  0.4363420000000 1.0
C      1  0.4521510000000  0.5144890000000  0.5891010000000 1.0
C      1  0.5513620000000  0.4642050000000  0.5039020000000 1.0
C      1  0.4989600000000  0.5555180000000  0.5504530000000 1.0
C      1  0.5502070000000  0.4917210000000  0.4330380000000 1.0
C      1  0.4716020000000  0.5019410000000  0.4829570000000 1.0
C      1  0.4966810000000  0.4774200000000  0.5241680000000 1.0
C      1  0.4486270000000  0.4935520000000  0.5240810000000 1.0
C      1  0.4295140000000  0.5045530000000  0.5052920000000 1.0
C      1  0.5043480000000  0.4509800000000  0.5148380000000 1.0
C      1  0.5211860000000  0.4882430000000  0.5355220000000 1.0
C      1  0.5164230000000  0.4603990000000  0.4462350000000 1.0
C      1  0.5550850000000  0.5169430000000  0.4207730000000 1.0
C      1  0.4032010000000  0.5093780000000  0.5096980000000 1.0
C      1  0.5218360000000  0.4836160000000  0.4308200000000 1.0
C      1  0.5170120000000  0.4958250000000  0.4783080000000 1.0
C      1  0.5258330000000  0.4515800000000  0.4961440000000 1.0
C      1  0.4677830000000  0.5358070000000  0.5864920000000 1.0
C      1  0.5184520000000  0.4666410000000  0.4735020000000 1.0
C      1  0.5090050000000  0.5296860000000  0.4230060000000 1.0
C      1  0.4261780000000  0.4740810000000  0.5937180000000 1.0
C      1  0.4439180000000  0.5093900000000  0.4809650000000 1.0
C      1  0.5577530000000  0.5235730000000  0.4823340000000 1.0
C      1  0.4748430000000  0.4909130000000  0.5112100000000 1.0
C      1  0.5320540000000  0.5173940000000  0.4894580000000 1.0
C      1  0.5655780000000  0.4802180000000  0.4547560000000 1.0
END
