TITL C-612600-6631-330 425.661347692543 125000 -1063.97323814248 0 0 173 (C1) n - 1
REM
REM in /home/nfs/bkarasulu/CARBON/AIRSS/Generating-Clusters/TERSOFF/Only-C1/FIRE-HFTN
REM
REM
REM
REM
REM
REM ./C.cell (11c1c37f851c82e70ff6c80c92926a4b)
REM AIRSS Version 0.9.1 bugfix July 2018 build 013d7b7c2542+ Fri, 06 Jul 2018 19:26:36 +0100
REM compiler GCC version 9.2.1 20190827 (Red Hat 9.2.1-1)
REM options -cpp -mtune=generic -march=x86-64 -g -O0 -fpre-include=/usr/include/finclude/math-vector-fortran.h
REM seed -1417282541 -1574294581 1482128654 -1489348198 -1738398537 -384858057 808517919 427588178 345802032 82659751 -1082045130 -1512852358 1677091329 -1561737560 -1266321036 -1987716192 916923102 1663080928 -1604332986 693362772 -918227913 1210275220 -1851108398 -943211509 -518187508 898731189 1832553403 -686280052 1801399296 -1964102324 2065022048 1400903439 315249915
REM
CELL 1.54180   50.00000   50.00000   50.00000   90.00000   90.00000   90.00000
LATT -1
SFAC C  
C      1  0.5767590000000  0.5840650000000  0.4192240000000 1.0
C      1  0.4686120000000  0.5922930000000  0.4654220000000 1.0
C      1  0.4816670000000  0.4668540000000  0.6169750000000 1.0
C      1  0.5312590000000  0.5312990000000  0.5836250000000 1.0
C      1  0.5075860000000  0.4570180000000  0.5674120000000 1.0
C      1  0.5706100000000  0.4807770000000  0.4094110000000 1.0
C      1  0.5400580000000  0.4777430000000  0.4993510000000 1.0
C      1  0.3916270000000  0.5436480000000  0.5007230000000 1.0
C      1  0.4459310000000  0.5432330000000  0.4583920000000 1.0
C      1  0.4401240000000  0.4804560000000  0.5306760000000 1.0
C      1  0.4270910000000  0.4281580000000  0.5035010000000 1.0
C      1  0.5430910000000  0.4711410000000  0.5265540000000 1.0
C      1  0.5367900000000  0.5618740000000  0.5400970000000 1.0
C      1  0.5202240000000  0.5301870000000  0.5121500000000 1.0
C      1  0.4600140000000  0.4099240000000  0.5746690000000 1.0
C      1  0.5537450000000  0.5010270000000  0.4917380000000 1.0
C      1  0.4935930000000  0.4768890000000  0.5505340000000 1.0
C      1  0.5240220000000  0.5155660000000  0.5365240000000 1.0
C      1  0.4975620000000  0.4560450000000  0.4249460000000 1.0
C      1  0.5741190000000  0.4832820000000  0.4382180000000 1.0
C      1  0.4275280000000  0.4992150000000  0.4749220000000 1.0
C      1  0.4379130000000  0.4500220000000  0.5661270000000 1.0
C      1  0.4511030000000  0.5046030000000  0.5228140000000 1.0
C      1  0.4808010000000  0.4325000000000  0.5005340000000 1.0
C      1  0.4305920000000  0.5765260000000  0.4967610000000 1.0
C      1  0.6372010000000  0.5160940000000  0.5005620000000 1.0
C      1  0.5483340000000  0.5744750000000  0.5640510000000 1.0
C      1  0.4648930000000  0.5463870000000  0.4840970000000 1.0
C      1  0.5571000000000  0.5030590000000  0.3971800000000 1.0
C      1  0.4296430000000  0.4045040000000  0.4867790000000 1.0
C      1  0.4811740000000  0.5718730000000  0.4812250000000 1.0
C      1  0.6136690000000  0.4550600000000  0.4744320000000 1.0
C      1  0.4509360000000  0.4567020000000  0.4102610000000 1.0
C      1  0.5509000000000  0.4229180000000  0.5717290000000 1.0
C      1  0.4038950000000  0.4843190000000  0.4744710000000 1.0
C      1  0.4365280000000  0.4940380000000  0.5881600000000 1.0
C      1  0.4175970000000  0.5497870000000  0.4599580000000 1.0
C      1  0.4696550000000  0.4741970000000  0.4585880000000 1.0
C      1  0.5649270000000  0.5433150000000  0.4737620000000 1.0
C      1  0.5611490000000  0.5617770000000  0.4953220000000 1.0
C      1  0.4569340000000  0.3567910000000  0.4544600000000 1.0
C      1  0.4128000000000  0.4884450000000  0.4049850000000 1.0
C      1  0.4392010000000  0.5300430000000  0.5247930000000 1.0
C      1  0.4053040000000  0.4475440000000  0.5047630000000 1.0
C      1  0.4512890000000  0.4343180000000  0.5855050000000 1.0
C      1  0.5415630000000  0.5089100000000  0.5993750000000 1.0
C      1  0.5602050000000  0.4477110000000  0.5321630000000 1.0
C      1  0.5584300000000  0.5543520000000  0.5225380000000 1.0
C      1  0.5250520000000  0.4865010000000  0.6030660000000 1.0
C      1  0.4821900000000  0.6187590000000  0.5136380000000 1.0
C      1  0.3986870000000  0.4736120000000  0.4484540000000 1.0
C      1  0.4187430000000  0.5464320000000  0.5654490000000 1.0
C      1  0.5560420000000  0.4515370000000  0.5783490000000 1.0
C      1  0.4866360000000  0.4656820000000  0.3786410000000 1.0
C      1  0.4523830000000  0.4934340000000  0.4679240000000 1.0
C      1  0.5330720000000  0.5042910000000  0.4507430000000 1.0
C      1  0.5049250000000  0.6013860000000  0.5160790000000 1.0
C      1  0.4855900000000  0.5014630000000  0.5637650000000 1.0
C      1  0.4452100000000  0.3342660000000  0.4485980000000 1.0
C      1  0.5667220000000  0.4405840000000  0.5052570000000 1.0
C      1  0.4128760000000  0.4497880000000  0.4412970000000 1.0
C      1  0.5291480000000  0.4054560000000  0.5027110000000 1.0
C      1  0.4793450000000  0.4530020000000  0.4032650000000 1.0
C      1  0.4570850000000  0.6188600000000  0.5031540000000 1.0
C      1  0.6097570000000  0.4383680000000  0.4976800000000 1.0
C      1  0.5164800000000  0.5372490000000  0.4079040000000 1.0
C      1  0.4914910000000  0.4789290000000  0.4418860000000 1.0
C      1  0.5215240000000  0.3921320000000  0.5485730000000 1.0
C      1  0.4121740000000  0.5309310000000  0.6098400000000 1.0
C      1  0.5027630000000  0.5766810000000  0.5000450000000 1.0
C      1  0.5158800000000  0.5987550000000  0.4477660000000 1.0
C      1  0.4809750000000  0.5886910000000  0.5727720000000 1.0
C      1  0.5915100000000  0.5409750000000  0.4653170000000 1.0
C      1  0.6166350000000  0.4980780000000  0.5025320000000 1.0
C      1  0.4206820000000  0.5052390000000  0.6090900000000 1.0
C      1  0.5702280000000  0.5098260000000  0.5959430000000 1.0
C      1  0.4542940000000  0.5495090000000  0.6040050000000 1.0
C      1  0.4697090000000  0.5201390000000  0.4136280000000 1.0
C      1  0.5720800000000  0.4310290000000  0.4183450000000 1.0
C      1  0.5417950000000  0.4030570000000  0.4760060000000 1.0
C      1  0.4659330000000  0.5574500000000  0.6296760000000 1.0
C      1  0.3898610000000  0.5671520000000  0.4243910000000 1.0
C      1  0.3988560000000  0.5458240000000  0.4389790000000 1.0
C      1  0.5381410000000  0.6154510000000  0.4420890000000 1.0
C      1  0.5746280000000  0.5315460000000  0.5285660000000 1.0
C      1  0.4781250000000  0.6086010000000  0.5893530000000 1.0
C      1  0.4625410000000  0.5054170000000  0.5804110000000 1.0
C      1  0.4948070000000  0.3977770000000  0.5366010000000 1.0
C      1  0.3665920000000  0.4870380000000  0.5368230000000 1.0
C      1  0.5480400000000  0.4790120000000  0.4492750000000 1.0
C      1  0.3943720000000  0.5238850000000  0.5215560000000 1.0
C      1  0.5403110000000  0.6016150000000  0.5586570000000 1.0
C      1  0.4776860000000  0.4912340000000  0.3744330000000 1.0
C      1  0.3964730000000  0.4932280000000  0.4274690000000 1.0
C      1  0.6130280000000  0.4485160000000  0.5245500000000 1.0
C      1  0.4804890000000  0.5213700000000  0.4906510000000 1.0
C      1  0.4973310000000  0.3841370000000  0.4550880000000 1.0
C      1  0.6006710000000  0.5236050000000  0.4452850000000 1.0
C      1  0.5183860000000  0.5529240000000  0.4949920000000 1.0
C      1  0.4595690000000  0.5018810000000  0.3939520000000 1.0
C      1  0.4695090000000  0.3809010000000  0.4607150000000 1.0
C      1  0.5026520000000  0.4290050000000  0.5693730000000 1.0
C      1  0.5361690000000  0.6925270000000  0.4645630000000 1.0
C      1  0.6011660000000  0.5373830000000  0.4204610000000 1.0
C      1  0.6011120000000  0.4678710000000  0.5431750000000 1.0
C      1  0.5698070000000  0.4133400000000  0.4686510000000 1.0
C      1  0.5401260000000  0.5244600000000  0.3976850000000 1.0
C      1  0.4698640000000  0.5252270000000  0.5988640000000 1.0
C      1  0.6060200000000  0.4408070000000  0.4507320000000 1.0
C      1  0.4992720000000  0.4897010000000  0.6166490000000 1.0
C      1  0.5760630000000  0.4595200000000  0.5563280000000 1.0
C      1  0.5705340000000  0.4531240000000  0.4023170000000 1.0
C      1  0.4994960000000  0.4094120000000  0.5100090000000 1.0
C      1  0.4272070000000  0.5485530000000  0.5930860000000 1.0
C      1  0.5845350000000  0.4242540000000  0.4916230000000 1.0
C      1  0.5551560000000  0.5502730000000  0.5786860000000 1.0
C      1  0.5482170000000  0.5191220000000  0.4702830000000 1.0
C      1  0.4489900000000  0.5548570000000  0.5103370000000 1.0
C      1  0.4907390000000  0.4781330000000  0.5206350000000 1.0
C      1  0.4464280000000  0.5996330000000  0.4845240000000 1.0
C      1  0.5231880000000  0.5537790000000  0.4666500000000 1.0
C      1  0.5320340000000  0.4566900000000  0.4584410000000 1.0
C      1  0.4844780000000  0.5385320000000  0.6391220000000 1.0
C      1  0.5570750000000  0.4199030000000  0.5431810000000 1.0
C      1  0.5894080000000  0.5218410000000  0.5505720000000 1.0
C      1  0.5108220000000  0.5630710000000  0.4180820000000 1.0
C      1  0.4091200000000  0.5602520000000  0.4851060000000 1.0
C      1  0.4878440000000  0.5163630000000  0.6205780000000 1.0
C      1  0.4858260000000  0.5979990000000  0.4422810000000 1.0
C      1  0.4451210000000  0.4538530000000  0.5389270000000 1.0
C      1  0.4765750000000  0.5016710000000  0.5106610000000 1.0
C      1  0.4652660000000  0.5678120000000  0.5320030000000 1.0
C      1  0.5373100000000  0.6677370000000  0.4565760000000 1.0
C      1  0.4096870000000  0.3859860000000  0.4847320000000 1.0
C      1  0.5905860000000  0.5615520000000  0.4139700000000 1.0
C      1  0.3861900000000  0.4954260000000  0.5191050000000 1.0
C      1  0.4977570000000  0.5190670000000  0.4186060000000 1.0
C      1  0.5304470000000  0.4653660000000  0.5842990000000 1.0
C      1  0.4245420000000  0.4718570000000  0.5766430000000 1.0
C      1  0.5244300000000  0.6079180000000  0.5366950000000 1.0
C      1  0.4652170000000  0.4479190000000  0.6066380000000 1.0
C      1  0.3898580000000  0.5198400000000  0.4331980000000 1.0
C      1  0.4819920000000  0.4120340000000  0.5578180000000 1.0
C      1  0.5232590000000  0.3912750000000  0.4576460000000 1.0
C      1  0.5964490000000  0.4958160000000  0.4522210000000 1.0
C      1  0.5821740000000  0.4251940000000  0.4443040000000 1.0
C      1  0.4591780000000  0.4477960000000  0.4565600000000 1.0
C      1  0.4509060000000  0.4359510000000  0.5180950000000 1.0
C      1  0.5382980000000  0.6424450000000  0.4487520000000 1.0
C      1  0.5070870000000  0.5022700000000  0.4391580000000 1.0
C      1  0.4398040000000  0.4822280000000  0.4013930000000 1.0
C      1  0.4152700000000  0.5326380000000  0.5405170000000 1.0
C      1  0.5784220000000  0.5299480000000  0.5762390000000 1.0
C      1  0.4864740000000  0.5803170000000  0.4181870000000 1.0
C      1  0.5102930000000  0.5269760000000  0.5604210000000 1.0
C      1  0.5388040000000  0.4929310000000  0.5426540000000 1.0
C      1  0.3961210000000  0.4748640000000  0.5001640000000 1.0
C      1  0.5225030000000  0.5701180000000  0.4440230000000 1.0
C      1  0.4403660000000  0.4459390000000  0.4349080000000 1.0
C      1  0.5418140000000  0.4003820000000  0.5287670000000 1.0
C      1  0.4975520000000  0.4577020000000  0.5011100000000 1.0
C      1  0.4550590000000  0.5341010000000  0.4332000000000 1.0
C      1  0.5721660000000  0.5114600000000  0.5093070000000 1.0
C      1  0.4846900000000  0.5705140000000  0.5519060000000 1.0
C      1  0.5084390000000  0.5554720000000  0.5498010000000 1.0
C      1  0.4547310000000  0.4023460000000  0.4725100000000 1.0
C      1  0.5252450000000  0.4103780000000  0.5725660000000 1.0
C      1  0.5605590000000  0.6029540000000  0.4294760000000 1.0
C      1  0.5217110000000  0.4615370000000  0.4851390000000 1.0
C      1  0.6089670000000  0.4837440000000  0.4768100000000 1.0
C      1  0.5186750000000  0.4424500000000  0.4377270000000 1.0
C      1  0.4685810000000  0.4272730000000  0.4733520000000 1.0
C      1  0.6052900000000  0.4951400000000  0.5355330000000 1.0
END
