TITL C-612600-6631-1219 -72611.423542973 125000 -1181.16136887445 0 0 191 (C1) n - 1
REM
REM in /home/nfs/bkarasulu/CARBON/AIRSS/Generating-Clusters/TERSOFF/Only-C1/FIRE-HFTN
REM
REM
REM
REM
REM
REM ./C.cell (11c1c37f851c82e70ff6c80c92926a4b)
REM AIRSS Version 0.9.1 bugfix July 2018 build 013d7b7c2542+ Fri, 06 Jul 2018 19:26:36 +0100
REM compiler GCC version 9.2.1 20190827 (Red Hat 9.2.1-1)
REM options -cpp -mtune=generic -march=x86-64 -g -O0 -fpre-include=/usr/include/finclude/math-vector-fortran.h
REM seed 2096748762 1064249343 2103796149 2076915484 1915084032 937333733 -1359702854 -1820714200 -1486074854 -2072158718 -520286292 -1157699781 695377054 -1868660424 -589031330 1664094479 -1297486471 -938229648 -330732531 1179024856 -1088136270 1453156334 889052971 1533941498 -1047259495 1644428166 956199231 -1031427341 -1198421042 1632438999 1420344783 1333845015 1379654080
REM
CELL 1.54180   50.00000   50.00000   50.00000   90.00000   90.00000   90.00000
LATT -1
SFAC C  
C      1  0.5077310000000  0.4995070000000  0.4472110000000 1.0
C      1  0.5273810000000  0.5939270000000  0.4473610000000 1.0
C      1  0.4838480000000  0.4527200000000  0.6006830000000 1.0
C      1  0.5886040000000  0.4583260000000  0.4436090000000 1.0
C      1  0.4666210000000  0.5704870000000  0.5267520000000 1.0
C      1  0.4513820000000  0.5012230000000  0.5415540000000 1.0
C      1  0.4828900000000  0.3981650000000  0.5360670000000 1.0
C      1  0.4458960000000  0.4949830000000  0.3867650000000 1.0
C      1  0.4403690000000  0.4664740000000  0.3869190000000 1.0
C      1  0.4127810000000  0.5598510000000  0.5521890000000 1.0
C      1  0.5293490000000  0.4684790000000  0.5827680000000 1.0
C      1  0.4185410000000  0.4293310000000  0.4879580000000 1.0
C      1  0.4279860000000  0.5123110000000  0.5584010000000 1.0
C      1  0.5074440000000  0.3807220000000  0.4636240000000 1.0
C      1  0.4820000000000  0.4335320000000  0.5800830000000 1.0
C      1  0.5531580000000  0.3753860000000  0.4789510000000 1.0
C      1  0.4448910000000  0.5418020000000  0.3995570000000 1.0
C      1  0.4860420000000  0.4289280000000  0.4048080000000 1.0
C      1  0.6238700000000  0.4847450000000  0.4652820000000 1.0
C      1  0.5931820000000  0.4390440000000  0.5135870000000 1.0
C      1  0.4104530000000  0.5954700000000  0.5134410000000 1.0
C      1  0.5655070000000  0.4329990000000  0.5154010000000 1.0
C      1  0.4986150000000  0.5212950000000  0.4839070000000 1.0
C      1  0.5216740000000  0.5677510000000  0.5121650000000 1.0
C      1  0.5963650000000  0.5317260000000  0.5474050000000 1.0
C      1  0.5823570000000  0.3748420000000  0.5237920000000 1.0
C      1  0.5288820000000  0.4485690000000  0.4887420000000 1.0
C      1  0.6110850000000  0.5236900000000  0.5221890000000 1.0
C      1  0.4381060000000  0.3862400000000  0.4998020000000 1.0
C      1  0.6012450000000  0.4504520000000  0.4889160000000 1.0
C      1  0.4795230000000  0.6045200000000  0.4471420000000 1.0
C      1  0.3813510000000  0.5266650000000  0.4797220000000 1.0
C      1  0.4443190000000  0.4794050000000  0.5199170000000 1.0
C      1  0.3971400000000  0.4792340000000  0.4896750000000 1.0
C      1  0.5706830000000  0.6006700000000  0.5105700000000 1.0
C      1  0.4295690000000  0.5417680000000  0.5674570000000 1.0
C      1  0.5689060000000  0.3721700000000  0.5005830000000 1.0
C      1  0.4203530000000  0.4477760000000  0.5729890000000 1.0
C      1  0.4932560000000  0.5818180000000  0.3924830000000 1.0
C      1  0.4444460000000  0.4528670000000  0.4122730000000 1.0
C      1  0.5528630000000  0.5786670000000  0.5744270000000 1.0
C      1  0.4282700000000  0.5175120000000  0.3960840000000 1.0
C      1  0.4909120000000  0.5471030000000  0.5650090000000 1.0
C      1  0.3785610000000  0.5235770000000  0.4516190000000 1.0
C      1  0.5768100000000  0.5739120000000  0.4380490000000 1.0
C      1  0.4637820000000  0.3950010000000  0.4507460000000 1.0
C      1  0.4706440000000  0.5317820000000  0.4074850000000 1.0
C      1  0.5926400000000  0.5533520000000  0.5673300000000 1.0
C      1  0.4357710000000  0.4580110000000  0.5944510000000 1.0
C      1  0.4224940000000  0.5623040000000  0.4805950000000 1.0
C      1  0.4790700000000  0.3802920000000  0.4693220000000 1.0
C      1  0.5381900000000  0.5589080000000  0.4128600000000 1.0
C      1  0.4000440000000  0.4474070000000  0.5291330000000 1.0
C      1  0.3800210000000  0.5043480000000  0.5661020000000 1.0
C      1  0.4056120000000  0.4842130000000  0.4593550000000 1.0
C      1  0.4951410000000  0.6024430000000  0.5410860000000 1.0
C      1  0.5581480000000  0.5378340000000  0.4076140000000 1.0
C      1  0.5870710000000  0.5486360000000  0.5964440000000 1.0
C      1  0.5103690000000  0.4626390000000  0.6032750000000 1.0
C      1  0.5176820000000  0.5706040000000  0.3966970000000 1.0
C      1  0.5756790000000  0.4038460000000  0.5656370000000 1.0
C      1  0.5458730000000  0.5718100000000  0.4400670000000 1.0
C      1  0.4997390000000  0.5475590000000  0.4728560000000 1.0
C      1  0.5638590000000  0.4955210000000  0.4575310000000 1.0
C      1  0.4667270000000  0.5919510000000  0.5455140000000 1.0
C      1  0.4638160000000  0.4248660000000  0.4519800000000 1.0
C      1  0.4806550000000  0.5456900000000  0.5361080000000 1.0
C      1  0.4489460000000  0.5572020000000  0.5854790000000 1.0
C      1  0.5161460000000  0.4487080000000  0.4625230000000 1.0
C      1  0.4807330000000  0.3775380000000  0.5176080000000 1.0
C      1  0.5858120000000  0.5112920000000  0.4501360000000 1.0
C      1  0.4640380000000  0.5738760000000  0.4993880000000 1.0
C      1  0.4628670000000  0.5466790000000  0.6104890000000 1.0
C      1  0.4813890000000  0.5037560000000  0.5817390000000 1.0
C      1  0.5342880000000  0.6066380000000  0.4732070000000 1.0
C      1  0.4640040000000  0.6063320000000  0.4235310000000 1.0
C      1  0.4542400000000  0.5988930000000  0.4884660000000 1.0
C      1  0.5344070000000  0.5995200000000  0.5731160000000 1.0
C      1  0.4074830000000  0.5105750000000  0.4145560000000 1.0
C      1  0.5682510000000  0.5508780000000  0.6169610000000 1.0
C      1  0.4245770000000  0.5915490000000  0.4887510000000 1.0
C      1  0.5523000000000  0.5089070000000  0.4016260000000 1.0
C      1  0.4856740000000  0.4059500000000  0.5827750000000 1.0
C      1  0.4650900000000  0.3773660000000  0.4945100000000 1.0
C      1  0.6126300000000  0.4740220000000  0.4424550000000 1.0
C      1  0.5842810000000  0.5823180000000  0.4662620000000 1.0
C      1  0.5655740000000  0.4239960000000  0.4671950000000 1.0
C      1  0.5827150000000  0.4553940000000  0.5796770000000 1.0
C      1  0.5240820000000  0.5225150000000  0.5311530000000 1.0
C      1  0.4422510000000  0.4357350000000  0.4722720000000 1.0
C      1  0.4977210000000  0.3938460000000  0.5602910000000 1.0
C      1  0.5043110000000  0.4963490000000  0.3956630000000 1.0
C      1  0.6000840000000  0.4748030000000  0.5674920000000 1.0
C      1  0.4071160000000  0.5803230000000  0.5356580000000 1.0
C      1  0.5880580000000  0.3849290000000  0.5483240000000 1.0
C      1  0.5872610000000  0.4269060000000  0.5782250000000 1.0
C      1  0.4873100000000  0.4319440000000  0.4991450000000 1.0
C      1  0.5062380000000  0.4409360000000  0.3889250000000 1.0
C      1  0.5433890000000  0.5545460000000  0.6289510000000 1.0
C      1  0.4453740000000  0.5697040000000  0.3958370000000 1.0
C      1  0.4936130000000  0.5572270000000  0.4464290000000 1.0
C      1  0.4431650000000  0.4741580000000  0.4308770000000 1.0
C      1  0.4916230000000  0.5734840000000  0.5770450000000 1.0
C      1  0.5310830000000  0.4487710000000  0.4011150000000 1.0
C      1  0.4050340000000  0.4937860000000  0.5590740000000 1.0
C      1  0.4656330000000  0.4970480000000  0.6044630000000 1.0
C      1  0.4728970000000  0.4280610000000  0.5287860000000 1.0
C      1  0.4886650000000  0.5556610000000  0.6225360000000 1.0
C      1  0.4488390000000  0.4640380000000  0.4753660000000 1.0
C      1  0.5258410000000  0.3928950000000  0.5605120000000 1.0
C      1  0.4479350000000  0.4484580000000  0.5259700000000 1.0
C      1  0.4558490000000  0.5197400000000  0.6177510000000 1.0
C      1  0.5188200000000  0.4794470000000  0.5584050000000 1.0
C      1  0.4724240000000  0.5064640000000  0.4811930000000 1.0
C      1  0.5351850000000  0.3879770000000  0.4600000000000 1.0
C      1  0.5450130000000  0.5564850000000  0.4669470000000 1.0
C      1  0.5475830000000  0.4116270000000  0.4457210000000 1.0
C      1  0.6114870000000  0.4746150000000  0.5412880000000 1.0
C      1  0.3367390000000  0.5305610000000  0.5802450000000 1.0
C      1  0.4202010000000  0.4919110000000  0.5055210000000 1.0
C      1  0.4244770000000  0.5186710000000  0.4978030000000 1.0
C      1  0.5977040000000  0.5293850000000  0.4344250000000 1.0
C      1  0.4990030000000  0.4572330000000  0.3667740000000 1.0
C      1  0.4601460000000  0.4688100000000  0.6049690000000 1.0
C      1  0.5566910000000  0.4638790000000  0.5863690000000 1.0
C      1  0.4999380000000  0.4857520000000  0.3669980000000 1.0
C      1  0.4773340000000  0.6112330000000  0.4750420000000 1.0
C      1  0.4204820000000  0.4209090000000  0.5615650000000 1.0
C      1  0.4534120000000  0.5259020000000  0.4957070000000 1.0
C      1  0.4664350000000  0.4805540000000  0.4971010000000 1.0
C      1  0.5077860000000  0.4518850000000  0.5062110000000 1.0
C      1  0.4317550000000  0.4754470000000  0.4555570000000 1.0
C      1  0.4664420000000  0.5883670000000  0.4011750000000 1.0
C      1  0.5094640000000  0.5156200000000  0.4242850000000 1.0
C      1  0.4000690000000  0.4506910000000  0.4995040000000 1.0
C      1  0.3956480000000  0.5040410000000  0.4397860000000 1.0
C      1  0.6096680000000  0.5438830000000  0.5005250000000 1.0
C      1  0.5518280000000  0.4330010000000  0.4909000000000 1.0
C      1  0.4921440000000  0.5387950000000  0.4249000000000 1.0
C      1  0.5686210000000  0.5798650000000  0.5300060000000 1.0
C      1  0.5079220000000  0.5949390000000  0.5662230000000 1.0
C      1  0.6108150000000  0.4468000000000  0.5337140000000 1.0
C      1  0.5664130000000  0.5438410000000  0.4805200000000 1.0
C      1  0.5641200000000  0.6007700000000  0.4819070000000 1.0
C      1  0.4064380000000  0.4651460000000  0.5531870000000 1.0
C      1  0.4723630000000  0.5015370000000  0.4021230000000 1.0
C      1  0.5422110000000  0.5542360000000  0.5836870000000 1.0
C      1  0.6137400000000  0.4930820000000  0.5177810000000 1.0
C      1  0.5344180000000  0.4833070000000  0.3994560000000 1.0
C      1  0.5518660000000  0.5290200000000  0.5237180000000 1.0
C      1  0.6140670000000  0.4775090000000  0.4912840000000 1.0
C      1  0.4791370000000  0.4953820000000  0.4525860000000 1.0
C      1  0.4923000000000  0.4710100000000  0.5462100000000 1.0
C      1  0.5491710000000  0.4285820000000  0.5375400000000 1.0
C      1  0.4118150000000  0.4191300000000  0.5337360000000 1.0
C      1  0.5494830000000  0.5603530000000  0.5224120000000 1.0
C      1  0.4634680000000  0.4333360000000  0.4216200000000 1.0
C      1  0.4653010000000  0.4906350000000  0.4292050000000 1.0
C      1  0.5002070000000  0.5854830000000  0.4436810000000 1.0
C      1  0.5825190000000  0.5493430000000  0.4216930000000 1.0
C      1  0.5191830000000  0.5075800000000  0.5541190000000 1.0
C      1  0.4214440000000  0.4078800000000  0.5080270000000 1.0
C      1  0.5759280000000  0.5758160000000  0.5574740000000 1.0
C      1  0.4063710000000  0.5387590000000  0.4874060000000 1.0
C      1  0.5040820000000  0.5225260000000  0.5758450000000 1.0
C      1  0.5067980000000  0.5437110000000  0.5231950000000 1.0
C      1  0.5395350000000  0.4338450000000  0.4254450000000 1.0
C      1  0.5268480000000  0.5334470000000  0.5905960000000 1.0
C      1  0.4508010000000  0.5532650000000  0.4852220000000 1.0
C      1  0.3756920000000  0.5011400000000  0.4932070000000 1.0
C      1  0.5899340000000  0.4389220000000  0.4644640000000 1.0
C      1  0.4980650000000  0.5020340000000  0.3453470000000 1.0
C      1  0.4923870000000  0.4733840000000  0.5158270000000 1.0
C      1  0.3578810000000  0.5169490000000  0.5733680000000 1.0
C      1  0.5621110000000  0.4705840000000  0.4453690000000 1.0
C      1  0.4729590000000  0.4902480000000  0.5582260000000 1.0
C      1  0.4852990000000  0.4429270000000  0.5531500000000 1.0
C      1  0.5084210000000  0.6100750000000  0.4903560000000 1.0
C      1  0.5913460000000  0.5578750000000  0.4827780000000 1.0
C      1  0.4623720000000  0.5244960000000  0.5255240000000 1.0
C      1  0.5486740000000  0.4086180000000  0.5571770000000 1.0
C      1  0.5708920000000  0.5191030000000  0.5434170000000 1.0
C      1  0.5221860000000  0.5607990000000  0.4830460000000 1.0
C      1  0.4897600000000  0.4338980000000  0.4679960000000 1.0
C      1  0.5373190000000  0.4558510000000  0.4444000000000 1.0
C      1  0.5155390000000  0.5565990000000  0.6296440000000 1.0
C      1  0.5196170000000  0.5049150000000  0.4725170000000 1.0
C      1  0.5581650000000  0.5217290000000  0.4957290000000 1.0
C      1  0.5092730000000  0.5959240000000  0.5160240000000 1.0
C      1  0.5466510000000  0.5027760000000  0.4785940000000 1.0
C      1  0.4631440000000  0.5809590000000  0.5729230000000 1.0
END
