TITL C-612602-9376-1050 1.23563694638279 125000 -360.855996375175 0 0 60 (C1) n - 1
REM
REM in /home/nfs/bkarasulu/CARBON/AIRSS/Generating-Clusters/TERSOFF/Only-C1/FIRE-HFTN
REM
REM
REM
REM
REM
REM ./C.cell (11c1c37f851c82e70ff6c80c92926a4b)
REM AIRSS Version 0.9.1 bugfix July 2018 build 013d7b7c2542+ Fri, 06 Jul 2018 19:26:36 +0100
REM compiler GCC version 9.2.1 20190827 (Red Hat 9.2.1-1)
REM options -cpp -mtune=generic -march=x86-64 -g -O0 -fpre-include=/usr/include/finclude/math-vector-fortran.h
REM seed 330338415 1459880223 1372126950 -1398393219 1546920683 1016320605 -1396836498 -892944488 1520366898 1754383236 427357376 689207538 1008621216 909701680 90928524 1138810965 297277331 1987110095 -793184435 -2088509959 -922813422 2100266852 -764794904 -1393694567 -602484278 -1307898785 1077843593 -529153385 1799085077 -1262190397 502612062 -672165216 429803732
REM
CELL 1.54180   50.00000   50.00000   50.00000   90.00000   90.00000   90.00000
LATT -1
SFAC C  
C      1  0.5536160000000  0.4960810000000  0.5722690000000 1.0
C      1  0.4346450000000  0.4810620000000  0.4716990000000 1.0
C      1  0.5495360000000  0.5402970000000  0.5316290000000 1.0
C      1  0.4339820000000  0.4697650000000  0.5238250000000 1.0
C      1  0.4845850000000  0.4677560000000  0.4965220000000 1.0
C      1  0.4776870000000  0.4844770000000  0.5399970000000 1.0
C      1  0.5516460000000  0.5213470000000  0.5108690000000 1.0
C      1  0.4667700000000  0.5155880000000  0.5070860000000 1.0
C      1  0.4276650000000  0.5347050000000  0.4888630000000 1.0
C      1  0.5265050000000  0.4862000000000  0.5350120000000 1.0
C      1  0.5432070000000  0.4281820000000  0.5429860000000 1.0
C      1  0.4307270000000  0.5590500000000  0.5039960000000 1.0
C      1  0.4302930000000  0.4854080000000  0.5001740000000 1.0
C      1  0.4602250000000  0.5672330000000  0.4356490000000 1.0
C      1  0.4790700000000  0.4977890000000  0.4549620000000 1.0
C      1  0.5359250000000  0.5187940000000  0.5736090000000 1.0
C      1  0.4376580000000  0.5126430000000  0.5044620000000 1.0
C      1  0.5451490000000  0.3902080000000  0.5134830000000 1.0
C      1  0.5446370000000  0.5011670000000  0.3970360000000 1.0
C      1  0.5774000000000  0.4746620000000  0.3296270000000 1.0
C      1  0.4970140000000  0.4441820000000  0.4954810000000 1.0
C      1  0.5080440000000  0.5584400000000  0.4697380000000 1.0
C      1  0.4555070000000  0.5603540000000  0.5192030000000 1.0
C      1  0.5144940000000  0.4261450000000  0.5042120000000 1.0
C      1  0.4639010000000  0.5256920000000  0.5860380000000 1.0
C      1  0.5990680000000  0.4571310000000  0.2850460000000 1.0
C      1  0.4745570000000  0.5433960000000  0.5045200000000 1.0
C      1  0.5206350000000  0.4548810000000  0.6089900000000 1.0
C      1  0.5344500000000  0.4144660000000  0.5201260000000 1.0
C      1  0.5024330000000  0.4930130000000  0.5506240000000 1.0
C      1  0.5328380000000  0.4994930000000  0.5100260000000 1.0
C      1  0.5664790000000  0.4834970000000  0.3520960000000 1.0
C      1  0.5463320000000  0.4757150000000  0.5534350000000 1.0
C      1  0.5057780000000  0.4744210000000  0.6196120000000 1.0
C      1  0.4396530000000  0.4845870000000  0.5707590000000 1.0
C      1  0.5237730000000  0.5453140000000  0.4523240000000 1.0
C      1  0.4935080000000  0.4979060000000  0.6153110000000 1.0
C      1  0.5344030000000  0.4449000000000  0.5883510000000 1.0
C      1  0.5434930000000  0.4486910000000  0.5619280000000 1.0
C      1  0.5718080000000  0.5230490000000  0.4924430000000 1.0
C      1  0.5438780000000  0.5408470000000  0.5579290000000 1.0
C      1  0.4893200000000  0.5146960000000  0.5930290000000 1.0
C      1  0.4428770000000  0.5067970000000  0.5855350000000 1.0
C      1  0.4613340000000  0.5491600000000  0.5705920000000 1.0
C      1  0.5220030000000  0.5187470000000  0.4430920000000 1.0
C      1  0.4509560000000  0.4755970000000  0.5467000000000 1.0
C      1  0.5081250000000  0.5110830000000  0.5722470000000 1.0
C      1  0.4245980000000  0.4597650000000  0.4579210000000 1.0
C      1  0.4614090000000  0.5508520000000  0.4580510000000 1.0
C      1  0.4600950000000  0.5823450000000  0.4144200000000 1.0
C      1  0.5336960000000  0.5099480000000  0.4195020000000 1.0
C      1  0.4577650000000  0.5616870000000  0.5471510000000 1.0
C      1  0.4819350000000  0.5531840000000  0.4784340000000 1.0
C      1  0.5202930000000  0.4949740000000  0.4848490000000 1.0
C      1  0.5555580000000  0.4923330000000  0.3745660000000 1.0
C      1  0.5883240000000  0.4658230000000  0.3071510000000 1.0
C      1  0.5070180000000  0.5014010000000  0.4603590000000 1.0
C      1  0.4787500000000  0.4905330000000  0.5119810000000 1.0
C      1  0.4420810000000  0.5303430000000  0.4633400000000 1.0
C      1  0.4508900000000  0.5021980000000  0.4591330000000 1.0
END
