TITL C-612603-7354-1244 32345.4318938753 125000 -556.948070657101 0 0 93 (C1) n - 1
REM
REM in /home/nfs/bkarasulu/CARBON/AIRSS/Generating-Clusters/TERSOFF/Only-C1/FIRE-HFTN
REM
REM
REM
REM
REM
REM ./C.cell (11c1c37f851c82e70ff6c80c92926a4b)
REM AIRSS Version 0.9.1 bugfix July 2018 build 013d7b7c2542+ Fri, 06 Jul 2018 19:26:36 +0100
REM compiler GCC version 9.2.1 20190827 (Red Hat 9.2.1-1)
REM options -cpp -mtune=generic -march=x86-64 -g -O0 -fpre-include=/usr/include/finclude/math-vector-fortran.h
REM seed -651715010 -891269092 253888496 896864772 -2091963564 1694141155 1356213056 707578054 -552163372 1404938067 -1169317407 1482601822 1703433108 1903265230 1695066248 159339006 -2095574276 -1609100614 238700147 -1140896626 -1884498695 1173450881 1059190300 1722074217 980851309 -1757920773 -419316715 1578967300 -1386087663 -1835622598 -1831036213 -802252049 -1887217509
REM
CELL 1.54180   50.00000   50.00000   50.00000   90.00000   90.00000   90.00000
LATT -1
SFAC C  
C      1  0.5394930000000  0.4059960000000  0.5034650000000 1.0
C      1  0.5738870000000  0.6539000000000  0.5691920000000 1.0
C      1  0.4164420000000  0.4078010000000  0.4659680000000 1.0
C      1  0.5007760000000  0.5274090000000  0.5073690000000 1.0
C      1  0.5260840000000  0.5900090000000  0.5899930000000 1.0
C      1  0.4322750000000  0.3941580000000  0.4822380000000 1.0
C      1  0.4635850000000  0.6172160000000  0.5457760000000 1.0
C      1  0.4114070000000  0.5127610000000  0.5492750000000 1.0
C      1  0.5949630000000  0.6568940000000  0.5849650000000 1.0
C      1  0.5063560000000  0.4672850000000  0.5265560000000 1.0
C      1  0.5869500000000  0.4296080000000  0.4862750000000 1.0
C      1  0.5184680000000  0.5074440000000  0.5520200000000 1.0
C      1  0.4761130000000  0.3774030000000  0.4948820000000 1.0
C      1  0.5756380000000  0.4831380000000  0.4857310000000 1.0
C      1  0.5241300000000  0.5374300000000  0.5899150000000 1.0
C      1  0.5204290000000  0.5115610000000  0.5799300000000 1.0
C      1  0.4254020000000  0.3789700000000  0.5425960000000 1.0
C      1  0.6102620000000  0.4149820000000  0.4811690000000 1.0
C      1  0.4434500000000  0.6049500000000  0.5579270000000 1.0
C      1  0.4296980000000  0.4626100000000  0.3964450000000 1.0
C      1  0.4507870000000  0.3870210000000  0.5018640000000 1.0
C      1  0.5182670000000  0.4899310000000  0.5974600000000 1.0
C      1  0.4836480000000  0.6273240000000  0.5295840000000 1.0
C      1  0.4818170000000  0.4281020000000  0.5421200000000 1.0
C      1  0.5124850000000  0.5417260000000  0.4596660000000 1.0
C      1  0.5268170000000  0.6142150000000  0.5791630000000 1.0
C      1  0.5045620000000  0.4393770000000  0.5304460000000 1.0
C      1  0.5332960000000  0.5312710000000  0.4446220000000 1.0
C      1  0.5622870000000  0.5224930000000  0.5095350000000 1.0
C      1  0.5541960000000  0.5212230000000  0.4619140000000 1.0
C      1  0.5179010000000  0.5387370000000  0.4880400000000 1.0
C      1  0.5465550000000  0.5319410000000  0.4884480000000 1.0
C      1  0.4352700000000  0.5157060000000  0.5077400000000 1.0
C      1  0.5244120000000  0.4225690000000  0.5202080000000 1.0
C      1  0.5036700000000  0.6501500000000  0.4945650000000 1.0
C      1  0.4235730000000  0.4682840000000  0.4225180000000 1.0
C      1  0.5162870000000  0.4759130000000  0.4011560000000 1.0
C      1  0.5155900000000  0.4675520000000  0.6113880000000 1.0
C      1  0.5866160000000  0.4574800000000  0.4851260000000 1.0
C      1  0.5626730000000  0.4742600000000  0.4137640000000 1.0
C      1  0.6156580000000  0.6597440000000  0.6005600000000 1.0
C      1  0.4566480000000  0.5127820000000  0.4896400000000 1.0
C      1  0.4892440000000  0.4807800000000  0.5086590000000 1.0
C      1  0.5213620000000  0.6536990000000  0.5166750000000 1.0
C      1  0.4263560000000  0.4948210000000  0.4324070000000 1.0
C      1  0.3477610000000  0.4212400000000  0.4482130000000 1.0
C      1  0.4250190000000  0.4982470000000  0.5282560000000 1.0
C      1  0.4013750000000  0.4265790000000  0.4518030000000 1.0
C      1  0.4139960000000  0.4482140000000  0.4394450000000 1.0
C      1  0.5478550000000  0.3584500000000  0.4949820000000 1.0
C      1  0.4248420000000  0.5420790000000  0.5150350000000 1.0
C      1  0.5676050000000  0.4946730000000  0.5107340000000 1.0
C      1  0.6218510000000  0.3910860000000  0.4790610000000 1.0
C      1  0.4280080000000  0.5640810000000  0.4983960000000 1.0
C      1  0.5721200000000  0.4841560000000  0.4365040000000 1.0
C      1  0.4518980000000  0.5040920000000  0.4409420000000 1.0
C      1  0.4530630000000  0.5973150000000  0.4735930000000 1.0
C      1  0.5281990000000  0.6338260000000  0.5596400000000 1.0
C      1  0.5299490000000  0.3798330000000  0.4972300000000 1.0
C      1  0.4609580000000  0.4116910000000  0.5419010000000 1.0
C      1  0.5599380000000  0.4307610000000  0.3262520000000 1.0
C      1  0.4451380000000  0.3923400000000  0.5292820000000 1.0
C      1  0.5532570000000  0.4806610000000  0.5304430000000 1.0
C      1  0.3993280000000  0.5024190000000  0.5712060000000 1.0
C      1  0.5425820000000  0.4683940000000  0.3952070000000 1.0
C      1  0.6170620000000  0.3648850000000  0.4806450000000 1.0
C      1  0.4429790000000  0.5714520000000  0.4757540000000 1.0
C      1  0.4945040000000  0.4855020000000  0.4128480000000 1.0
C      1  0.5265580000000  0.4830070000000  0.5392780000000 1.0
C      1  0.5082220000000  0.5272890000000  0.5346480000000 1.0
C      1  0.4654710000000  0.6187370000000  0.4832180000000 1.0
C      1  0.5127360000000  0.4450100000000  0.6241660000000 1.0
C      1  0.5486110000000  0.4553490000000  0.3713100000000 1.0
C      1  0.3736420000000  0.4237320000000  0.4500000000000 1.0
C      1  0.5688160000000  0.4968660000000  0.4612010000000 1.0
C      1  0.4250930000000  0.5864290000000  0.5630000000000 1.0
C      1  0.4132280000000  0.5631830000000  0.5578130000000 1.0
C      1  0.4749770000000  0.4957960000000  0.4275300000000 1.0
C      1  0.5543210000000  0.4429560000000  0.3485990000000 1.0
C      1  0.5971210000000  0.3477710000000  0.4852660000000 1.0
C      1  0.4508480000000  0.5499210000000  0.4594150000000 1.0
C      1  0.5710890000000  0.3462820000000  0.4907030000000 1.0
C      1  0.4045230000000  0.5113510000000  0.4332660000000 1.0
C      1  0.4822100000000  0.5066780000000  0.5001060000000 1.0
C      1  0.5515910000000  0.6500130000000  0.5533680000000 1.0
C      1  0.4537290000000  0.5220340000000  0.4627700000000 1.0
C      1  0.5634330000000  0.4157490000000  0.4927540000000 1.0
C      1  0.4815560000000  0.6326550000000  0.5009320000000 1.0
C      1  0.4134810000000  0.5406750000000  0.5415590000000 1.0
C      1  0.5254900000000  0.5636940000000  0.5933370000000 1.0
C      1  0.5467450000000  0.6613140000000  0.5272100000000 1.0
C      1  0.5025400000000  0.3756030000000  0.4935100000000 1.0
C      1  0.5088990000000  0.6373010000000  0.5387150000000 1.0
END
