TITL C-612603-7354-82 216.108722611139 125000 -922.992942265932 0 0 151 (C1) n - 1
REM
REM in /home/nfs/bkarasulu/CARBON/AIRSS/Generating-Clusters/TERSOFF/Only-C1/FIRE-HFTN
REM
REM
REM
REM
REM
REM ./C.cell (11c1c37f851c82e70ff6c80c92926a4b)
REM AIRSS Version 0.9.1 bugfix July 2018 build 013d7b7c2542+ Fri, 06 Jul 2018 19:26:36 +0100
REM compiler GCC version 9.2.1 20190827 (Red Hat 9.2.1-1)
REM options -cpp -mtune=generic -march=x86-64 -g -O0 -fpre-include=/usr/include/finclude/math-vector-fortran.h
REM seed -1580607683 1296396132 1457238630 29719571 -771665944 234727972 -2095346960 517557609 -1879808596 -1858159959 1345359342 -1472053783 217799945 1867633019 1012656562 -1399228204 16769158 -836366337 -373610501 1923791016 -633254772 -1860486010 1477941580 -1636094939 -1048295814 -1979675170 -1386411994 -1210987891 -1571718308 1581962581 400182026 -1318972528 -1305788006
REM
CELL 1.54180   50.00000   50.00000   50.00000   90.00000   90.00000   90.00000
LATT -1
SFAC C  
C      1  0.5332860000000  0.5161790000000  0.5660050000000 1.0
C      1  0.4545980000000  0.4437660000000  0.4155150000000 1.0
C      1  0.5644600000000  0.5893300000000  0.5257200000000 1.0
C      1  0.4908190000000  0.4365310000000  0.5513690000000 1.0
C      1  0.4251020000000  0.5494060000000  0.5479170000000 1.0
C      1  0.4925960000000  0.5446280000000  0.5463040000000 1.0
C      1  0.4306850000000  0.5907020000000  0.4042210000000 1.0
C      1  0.5130540000000  0.5059200000000  0.4280890000000 1.0
C      1  0.4750230000000  0.5372520000000  0.4256120000000 1.0
C      1  0.5060750000000  0.5380250000000  0.4650110000000 1.0
C      1  0.4974330000000  0.5266430000000  0.4399880000000 1.0
C      1  0.5009830000000  0.5786450000000  0.4214190000000 1.0
C      1  0.4904930000000  0.3701190000000  0.5004820000000 1.0
C      1  0.4919070000000  0.4146170000000  0.4971890000000 1.0
C      1  0.4919740000000  0.5028000000000  0.5261940000000 1.0
C      1  0.5951950000000  0.4846510000000  0.5525860000000 1.0
C      1  0.4313480000000  0.5014850000000  0.5046750000000 1.0
C      1  0.4425580000000  0.4473780000000  0.5862710000000 1.0
C      1  0.4528210000000  0.5789350000000  0.4113360000000 1.0
C      1  0.5657750000000  0.5597440000000  0.4849790000000 1.0
C      1  0.3822830000000  0.4773600000000  0.5230980000000 1.0
C      1  0.5479160000000  0.5065000000000  0.5415620000000 1.0
C      1  0.5211910000000  0.5095980000000  0.4013900000000 1.0
C      1  0.6224250000000  0.5217520000000  0.5229230000000 1.0
C      1  0.4942290000000  0.5959990000000  0.5131450000000 1.0
C      1  0.4365020000000  0.5724950000000  0.5370900000000 1.0
C      1  0.4635530000000  0.4530740000000  0.4639320000000 1.0
C      1  0.4704730000000  0.4289400000000  0.5066300000000 1.0
C      1  0.4208760000000  0.4814310000000  0.4312050000000 1.0
C      1  0.5557990000000  0.4144870000000  0.4795790000000 1.0
C      1  0.5695330000000  0.5898230000000  0.4189590000000 1.0
C      1  0.5201720000000  0.5722050000000  0.4017300000000 1.0
C      1  0.4236700000000  0.4051230000000  0.5655820000000 1.0
C      1  0.6093810000000  0.4268610000000  0.4730240000000 1.0
C      1  0.5609090000000  0.4518020000000  0.4466370000000 1.0
C      1  0.3869180000000  0.5077190000000  0.4527040000000 1.0
C      1  0.4857510000000  0.5499630000000  0.4829450000000 1.0
C      1  0.4314150000000  0.5841970000000  0.5112890000000 1.0
C      1  0.4553030000000  0.5204970000000  0.4133720000000 1.0
C      1  0.4361100000000  0.5052350000000  0.4273010000000 1.0
C      1  0.4303480000000  0.4508700000000  0.4989460000000 1.0
C      1  0.4656400000000  0.4324410000000  0.4420930000000 1.0
C      1  0.4042710000000  0.4140740000000  0.5183940000000 1.0
C      1  0.5163340000000  0.5462750000000  0.5304890000000 1.0
C      1  0.4568160000000  0.3861430000000  0.4633470000000 1.0
C      1  0.5253010000000  0.4646700000000  0.5581290000000 1.0
C      1  0.5503620000000  0.5638630000000  0.5700340000000 1.0
C      1  0.5970790000000  0.4262900000000  0.4971220000000 1.0
C      1  0.5119200000000  0.4305420000000  0.4833170000000 1.0
C      1  0.6115320000000  0.4774050000000  0.5299860000000 1.0
C      1  0.4367410000000  0.4204110000000  0.5832770000000 1.0
C      1  0.5184560000000  0.4206990000000  0.5519880000000 1.0
C      1  0.5287070000000  0.5310680000000  0.6080090000000 1.0
C      1  0.5510780000000  0.4535290000000  0.5112680000000 1.0
C      1  0.3816560000000  0.4722650000000  0.4959900000000 1.0
C      1  0.3949890000000  0.5307830000000  0.4638270000000 1.0
C      1  0.5930050000000  0.5263840000000  0.5265480000000 1.0
C      1  0.5354690000000  0.5927910000000  0.4546140000000 1.0
C      1  0.5353590000000  0.5868730000000  0.5780400000000 1.0
C      1  0.3886820000000  0.4805560000000  0.5497030000000 1.0
C      1  0.5255790000000  0.6094880000000  0.5667770000000 1.0
C      1  0.4905480000000  0.5781820000000  0.4902090000000 1.0
C      1  0.4305910000000  0.4656070000000  0.5674870000000 1.0
C      1  0.4858870000000  0.5940420000000  0.4658430000000 1.0
C      1  0.4981820000000  0.4994340000000  0.4998120000000 1.0
C      1  0.5942340000000  0.4719770000000  0.5079750000000 1.0
C      1  0.3982820000000  0.4818850000000  0.4493010000000 1.0
C      1  0.4770620000000  0.5030700000000  0.4811680000000 1.0
C      1  0.4554150000000  0.5187400000000  0.3859030000000 1.0
C      1  0.4981370000000  0.4289720000000  0.4069170000000 1.0
C      1  0.5383890000000  0.5296800000000  0.5220210000000 1.0
C      1  0.5380680000000  0.4258720000000  0.5024010000000 1.0
C      1  0.4718410000000  0.4428890000000  0.5310810000000 1.0
C      1  0.5251240000000  0.5000300000000  0.6114910000000 1.0
C      1  0.4360280000000  0.5275200000000  0.5587110000000 1.0
C      1  0.4585090000000  0.4661720000000  0.6022790000000 1.0
C      1  0.4964920000000  0.4254000000000  0.4356360000000 1.0
C      1  0.5531830000000  0.5346900000000  0.4959050000000 1.0
C      1  0.4059000000000  0.4790190000000  0.5728570000000 1.0
C      1  0.5403620000000  0.4748200000000  0.5376430000000 1.0
C      1  0.4756900000000  0.5652310000000  0.4194670000000 1.0
C      1  0.4581430000000  0.6015270000000  0.4686770000000 1.0
C      1  0.5047310000000  0.5481140000000  0.6089640000000 1.0
C      1  0.5441310000000  0.4501610000000  0.5962090000000 1.0
C      1  0.4751140000000  0.4393940000000  0.3959540000000 1.0
C      1  0.4371450000000  0.4748690000000  0.5113830000000 1.0
C      1  0.4311690000000  0.4589950000000  0.4175750000000 1.0
C      1  0.5003280000000  0.4952770000000  0.5959480000000 1.0
C      1  0.5959830000000  0.4859490000000  0.4301960000000 1.0
C      1  0.5431500000000  0.5377850000000  0.5824820000000 1.0
C      1  0.5783770000000  0.5068560000000  0.5461920000000 1.0
C      1  0.5433880000000  0.6006730000000  0.4809740000000 1.0
C      1  0.5183330000000  0.4245740000000  0.4539890000000 1.0
C      1  0.4689760000000  0.4810010000000  0.4650330000000 1.0
C      1  0.5036550000000  0.3927500000000  0.5117820000000 1.0
C      1  0.5274620000000  0.4872550000000  0.4430550000000 1.0
C      1  0.5058030000000  0.5088140000000  0.5713090000000 1.0
C      1  0.5575980000000  0.5792210000000  0.4412130000000 1.0
C      1  0.5778530000000  0.5183880000000  0.5009180000000 1.0
C      1  0.5886080000000  0.5519030000000  0.5403250000000 1.0
C      1  0.4181000000000  0.4183240000000  0.4532670000000 1.0
C      1  0.4091790000000  0.4321010000000  0.4979210000000 1.0
C      1  0.4873620000000  0.5602510000000  0.5914030000000 1.0
C      1  0.5817650000000  0.4464410000000  0.5094370000000 1.0
C      1  0.5487820000000  0.4773200000000  0.4879230000000 1.0
C      1  0.5410690000000  0.4748400000000  0.6097100000000 1.0
C      1  0.4566730000000  0.5085750000000  0.5580880000000 1.0
C      1  0.5254180000000  0.4078910000000  0.5260140000000 1.0
C      1  0.5877960000000  0.4591660000000  0.4395850000000 1.0
C      1  0.4746050000000  0.5982850000000  0.5329430000000 1.0
C      1  0.6319370000000  0.4962840000000  0.5248650000000 1.0
C      1  0.4793730000000  0.5630020000000  0.5638630000000 1.0
C      1  0.5360980000000  0.5534180000000  0.3909770000000 1.0
C      1  0.3907900000000  0.4622400000000  0.4692520000000 1.0
C      1  0.4109270000000  0.4039010000000  0.5421460000000 1.0
C      1  0.5074080000000  0.5916620000000  0.4463450000000 1.0
C      1  0.4394780000000  0.5952830000000  0.4877610000000 1.0
C      1  0.5065740000000  0.4584540000000  0.4858890000000 1.0
C      1  0.5679550000000  0.5166520000000  0.4025630000000 1.0
C      1  0.5428200000000  0.5262160000000  0.3940560000000 1.0
C      1  0.5359650000000  0.4396710000000  0.5695150000000 1.0
C      1  0.4614230000000  0.5801670000000  0.5492830000000 1.0
C      1  0.4122990000000  0.4901420000000  0.5993880000000 1.0
C      1  0.5483280000000  0.4262560000000  0.4533610000000 1.0
C      1  0.4969810000000  0.4606480000000  0.5669520000000 1.0
C      1  0.5703830000000  0.5580020000000  0.4563080000000 1.0
C      1  0.5675570000000  0.5690670000000  0.5463300000000 1.0
C      1  0.4849330000000  0.5158330000000  0.5513720000000 1.0
C      1  0.5813300000000  0.5112160000000  0.4271170000000 1.0
C      1  0.4375250000000  0.4854930000000  0.6113540000000 1.0
C      1  0.5315970000000  0.6196830000000  0.5409530000000 1.0
C      1  0.5189440000000  0.4828140000000  0.4927260000000 1.0
C      1  0.5311400000000  0.5311190000000  0.4756450000000 1.0
C      1  0.4159890000000  0.5388000000000  0.4784640000000 1.0
C      1  0.4540720000000  0.4410870000000  0.4877330000000 1.0
C      1  0.5595680000000  0.5841720000000  0.4979270000000 1.0
C      1  0.4717350000000  0.3713240000000  0.4804960000000 1.0
C      1  0.6071980000000  0.4413510000000  0.4503720000000 1.0
C      1  0.4499010000000  0.4812340000000  0.5542780000000 1.0
C      1  0.4373520000000  0.5261420000000  0.4914640000000 1.0
C      1  0.6226820000000  0.4875990000000  0.4225250000000 1.0
C      1  0.4010360000000  0.4343560000000  0.4700450000000 1.0
C      1  0.5586950000000  0.6155980000000  0.5342040000000 1.0
C      1  0.4460910000000  0.4096980000000  0.4510130000000 1.0
C      1  0.4647960000000  0.5292790000000  0.4848060000000 1.0
C      1  0.5469950000000  0.4736280000000  0.4579200000000 1.0
C      1  0.5807250000000  0.5336920000000  0.4450560000000 1.0
C      1  0.5143570000000  0.6148600000000  0.5190380000000 1.0
C      1  0.4850050000000  0.4717190000000  0.5915610000000 1.0
C      1  0.4572450000000  0.4682370000000  0.5309350000000 1.0
C      1  0.5762530000000  0.4908360000000  0.4946900000000 1.0
END
