TITL C-612606-7351-220 0.000998712462866819 125000 -990.894639117378 0 0 159 (C1) n - 1
REM
REM in /home/nfs/bkarasulu/CARBON/AIRSS/Generating-Clusters/TERSOFF/Only-C1/FIRE-HFTN
REM
REM
REM
REM
REM
REM ./C.cell (11c1c37f851c82e70ff6c80c92926a4b)
REM AIRSS Version 0.9.1 bugfix July 2018 build 013d7b7c2542+ Fri, 06 Jul 2018 19:26:36 +0100
REM compiler GCC version 9.2.1 20190827 (Red Hat 9.2.1-1)
REM options -cpp -mtune=generic -march=x86-64 -g -O0 -fpre-include=/usr/include/finclude/math-vector-fortran.h
REM seed 919838189 1458834255 227847433 -934335943 984685054 -1812246859 1487648575 -1613861907 1701263302 -865025220 1646564083 1384914195 1553505792 556068788 2036240286 -736358477 -1461906336 -1764526722 1211567838 1081104674 -1876702262 -474768500 888419435 2022368685 -903084776 -1419844375 1984059612 1929688555 2139904468 727218003 1836393332 2048225869 610293407
REM
CELL 1.54180   50.00000   50.00000   50.00000   90.00000   90.00000   90.00000
LATT -1
SFAC C  
C      1  0.5005170000000  0.5629460000000  0.4855100000000 1.0
C      1  0.5048230000000  0.5590190000000  0.5534730000000 1.0
C      1  0.6110660000000  0.5361350000000  0.5772250000000 1.0
C      1  0.5903910000000  0.5254270000000  0.4383940000000 1.0
C      1  0.5042790000000  0.5182850000000  0.5915830000000 1.0
C      1  0.5509320000000  0.5061150000000  0.4925800000000 1.0
C      1  0.5041480000000  0.5471990000000  0.5079720000000 1.0
C      1  0.4990820000000  0.4743970000000  0.6091530000000 1.0
C      1  0.4269890000000  0.4855510000000  0.5005290000000 1.0
C      1  0.3988750000000  0.5163370000000  0.4506400000000 1.0
C      1  0.6056140000000  0.4606300000000  0.5231670000000 1.0
C      1  0.4737900000000  0.4929680000000  0.5493190000000 1.0
C      1  0.3910650000000  0.4473940000000  0.5402320000000 1.0
C      1  0.4975740000000  0.4090550000000  0.4462490000000 1.0
C      1  0.5089500000000  0.4720180000000  0.5132820000000 1.0
C      1  0.4970620000000  0.4147870000000  0.5406540000000 1.0
C      1  0.4430600000000  0.4413330000000  0.5215910000000 1.0
C      1  0.5347310000000  0.4716810000000  0.3851030000000 1.0
C      1  0.5017990000000  0.4966280000000  0.5504700000000 1.0
C      1  0.4567210000000  0.5605070000000  0.5347640000000 1.0
C      1  0.5602110000000  0.4684980000000  0.5377350000000 1.0
C      1  0.4431540000000  0.5517850000000  0.5599820000000 1.0
C      1  0.5605100000000  0.5776340000000  0.4845420000000 1.0
C      1  0.3865530000000  0.5234730000000  0.5253790000000 1.0
C      1  0.4005630000000  0.5441900000000  0.5396980000000 1.0
C      1  0.4599440000000  0.5359610000000  0.5157070000000 1.0
C      1  0.4537600000000  0.4821860000000  0.4026570000000 1.0
C      1  0.4842530000000  0.5007240000000  0.6069000000000 1.0
C      1  0.4315450000000  0.4957140000000  0.5869400000000 1.0
C      1  0.3946100000000  0.4907070000000  0.4642280000000 1.0
C      1  0.5447030000000  0.5533140000000  0.5840430000000 1.0
C      1  0.4014860000000  0.4958030000000  0.4921630000000 1.0
C      1  0.5531680000000  0.5799380000000  0.5753730000000 1.0
C      1  0.4722270000000  0.6014490000000  0.4991850000000 1.0
C      1  0.4837220000000  0.4459260000000  0.4176160000000 1.0
C      1  0.5186820000000  0.4703770000000  0.5873920000000 1.0
C      1  0.5656760000000  0.5943060000000  0.5300770000000 1.0
C      1  0.4677520000000  0.5549810000000  0.4549560000000 1.0
C      1  0.5788640000000  0.4966690000000  0.5000410000000 1.0
C      1  0.4836840000000  0.5242030000000  0.4189750000000 1.0
C      1  0.4533450000000  0.4936770000000  0.4614700000000 1.0
C      1  0.5314370000000  0.6172440000000  0.5554470000000 1.0
C      1  0.4467410000000  0.5669760000000  0.4709750000000 1.0
C      1  0.5427700000000  0.5408880000000  0.4558040000000 1.0
C      1  0.4144260000000  0.4514520000000  0.5584420000000 1.0
C      1  0.5642400000000  0.5345630000000  0.5916550000000 1.0
C      1  0.4707090000000  0.4181970000000  0.4538630000000 1.0
C      1  0.5357530000000  0.5102950000000  0.5165800000000 1.0
C      1  0.5279330000000  0.4546490000000  0.5010020000000 1.0
C      1  0.5808460000000  0.4376500000000  0.5621960000000 1.0
C      1  0.3797260000000  0.4566030000000  0.4932080000000 1.0
C      1  0.4176940000000  0.5389980000000  0.5623720000000 1.0
C      1  0.5492570000000  0.4627630000000  0.4075640000000 1.0
C      1  0.5151350000000  0.4500450000000  0.4753830000000 1.0
C      1  0.5732120000000  0.4510950000000  0.4574440000000 1.0
C      1  0.4099770000000  0.5135750000000  0.4246960000000 1.0
C      1  0.5245200000000  0.5605700000000  0.4449810000000 1.0
C      1  0.4528180000000  0.4261780000000  0.5006810000000 1.0
C      1  0.3874030000000  0.4288650000000  0.4960500000000 1.0
C      1  0.5076180000000  0.5349090000000  0.4066570000000 1.0
C      1  0.5524900000000  0.4309600000000  0.5654960000000 1.0
C      1  0.5403250000000  0.6080930000000  0.5299700000000 1.0
C      1  0.4016060000000  0.5365110000000  0.4725400000000 1.0
C      1  0.5848270000000  0.4951580000000  0.5734930000000 1.0
C      1  0.4296230000000  0.4759790000000  0.5660330000000 1.0
C      1  0.4839420000000  0.5317000000000  0.4475710000000 1.0
C      1  0.6121070000000  0.5614140000000  0.5351270000000 1.0
C      1  0.5344400000000  0.5127590000000  0.4661310000000 1.0
C      1  0.5007580000000  0.4008000000000  0.5179800000000 1.0
C      1  0.4439750000000  0.5024850000000  0.4857420000000 1.0
C      1  0.4891450000000  0.5059740000000  0.4898490000000 1.0
C      1  0.5872120000000  0.4168940000000  0.5173000000000 1.0
C      1  0.5124580000000  0.5478770000000  0.5832580000000 1.0
C      1  0.5752120000000  0.5109590000000  0.4172420000000 1.0
C      1  0.4294480000000  0.4698120000000  0.4148020000000 1.0
C      1  0.4275780000000  0.5468320000000  0.4775770000000 1.0
C      1  0.3902420000000  0.4629410000000  0.4653430000000 1.0
C      1  0.3921940000000  0.5229800000000  0.4973580000000 1.0
C      1  0.5551890000000  0.4301210000000  0.4482740000000 1.0
C      1  0.3775510000000  0.4962050000000  0.5319760000000 1.0
C      1  0.5881430000000  0.5207250000000  0.5847850000000 1.0
C      1  0.5173070000000  0.4931930000000  0.5281910000000 1.0
C      1  0.5023500000000  0.5709000000000  0.6010240000000 1.0
C      1  0.4342500000000  0.5253000000000  0.4152430000000 1.0
C      1  0.5956090000000  0.4369890000000  0.5370320000000 1.0
C      1  0.5392490000000  0.4862270000000  0.4525210000000 1.0
C      1  0.6080150000000  0.5499760000000  0.4844000000000 1.0
C      1  0.4691640000000  0.4312220000000  0.4789690000000 1.0
C      1  0.4360120000000  0.5765320000000  0.5180850000000 1.0
C      1  0.3797060000000  0.4687370000000  0.5220320000000 1.0
C      1  0.5336280000000  0.6012190000000  0.5787190000000 1.0
C      1  0.5144360000000  0.3990610000000  0.4664280000000 1.0
C      1  0.5611930000000  0.4048130000000  0.5203610000000 1.0
C      1  0.4934180000000  0.4687890000000  0.4363650000000 1.0
C      1  0.4042800000000  0.4194120000000  0.4737540000000 1.0
C      1  0.5775690000000  0.5817110000000  0.5070170000000 1.0
C      1  0.4013070000000  0.3955810000000  0.5263910000000 1.0
C      1  0.5150460000000  0.5836470000000  0.4026410000000 1.0
C      1  0.4558970000000  0.4992100000000  0.6022250000000 1.0
C      1  0.5142080000000  0.6055430000000  0.3885370000000 1.0
C      1  0.5826380000000  0.5084940000000  0.5271040000000 1.0
C      1  0.4729350000000  0.4841330000000  0.4467410000000 1.0
C      1  0.5240720000000  0.4959570000000  0.3801900000000 1.0
C      1  0.5650460000000  0.5543340000000  0.4674370000000 1.0
C      1  0.5940630000000  0.4713320000000  0.4979780000000 1.0
C      1  0.4839330000000  0.5755870000000  0.5399210000000 1.0
C      1  0.5284190000000  0.5201970000000  0.3939000000000 1.0
C      1  0.4731950000000  0.4625480000000  0.3949770000000 1.0
C      1  0.4490900000000  0.5858790000000  0.4933610000000 1.0
C      1  0.4422560000000  0.5289710000000  0.4949230000000 1.0
C      1  0.5457420000000  0.3997040000000  0.4972230000000 1.0
C      1  0.5556830000000  0.5247000000000  0.4016050000000 1.0
C      1  0.5694980000000  0.4821570000000  0.4196810000000 1.0
C      1  0.4580030000000  0.4336330000000  0.4326800000000 1.0
C      1  0.5216680000000  0.6005490000000  0.5097100000000 1.0
C      1  0.5494160000000  0.4085140000000  0.5463880000000 1.0
C      1  0.4861790000000  0.4533900000000  0.4811890000000 1.0
C      1  0.5047720000000  0.4313490000000  0.5604190000000 1.0
C      1  0.5740460000000  0.5855030000000  0.5560250000000 1.0
C      1  0.5158480000000  0.5603930000000  0.4179540000000 1.0
C      1  0.4871990000000  0.4780500000000  0.4960250000000 1.0
C      1  0.5955800000000  0.4237280000000  0.4908840000000 1.0
C      1  0.5204670000000  0.5503590000000  0.5311630000000 1.0
C      1  0.4313210000000  0.4468680000000  0.4336100000000 1.0
C      1  0.5504490000000  0.4541300000000  0.5170540000000 1.0
C      1  0.5492570000000  0.4078370000000  0.4634320000000 1.0
C      1  0.4093330000000  0.4418250000000  0.4545720000000 1.0
C      1  0.4482760000000  0.4823100000000  0.5444340000000 1.0
C      1  0.5203520000000  0.4638110000000  0.4489270000000 1.0
C      1  0.4589430000000  0.5111930000000  0.4090020000000 1.0
C      1  0.5160980000000  0.4970780000000  0.5745110000000 1.0
C      1  0.4069650000000  0.4870960000000  0.4140510000000 1.0
C      1  0.5427850000000  0.5343660000000  0.5301330000000 1.0
C      1  0.5906670000000  0.5426320000000  0.4623150000000 1.0
C      1  0.6206510000000  0.5368440000000  0.5490850000000 1.0
C      1  0.4932040000000  0.5952520000000  0.5181660000000 1.0
C      1  0.3908250000000  0.4219040000000  0.5240390000000 1.0
C      1  0.6019650000000  0.5653900000000  0.5085190000000 1.0
C      1  0.6092600000000  0.5646920000000  0.5826190000000 1.0
C      1  0.5078340000000  0.4258020000000  0.4233320000000 1.0
C      1  0.4854130000000  0.5264770000000  0.5093510000000 1.0
C      1  0.4340530000000  0.4325870000000  0.5471650000000 1.0
C      1  0.4122980000000  0.3828030000000  0.5047280000000 1.0
C      1  0.5160130000000  0.5769890000000  0.4668580000000 1.0
C      1  0.4144280000000  0.3935290000000  0.4795530000000 1.0
C      1  0.5339980000000  0.4425610000000  0.4290200000000 1.0
C      1  0.5162890000000  0.3952860000000  0.4953630000000 1.0
C      1  0.4402680000000  0.4699420000000  0.5197820000000 1.0
C      1  0.5129150000000  0.5958110000000  0.5972720000000 1.0
C      1  0.5903530000000  0.4494030000000  0.4794050000000 1.0
C      1  0.5769510000000  0.4889200000000  0.5474330000000 1.0
C      1  0.4091820000000  0.5680730000000  0.5249490000000 1.0
C      1  0.5344100000000  0.5906500000000  0.4844410000000 1.0
C      1  0.5660450000000  0.4766020000000  0.4476900000000 1.0
C      1  0.5020070000000  0.5161890000000  0.4661060000000 1.0
C      1  0.6010370000000  0.5775060000000  0.5580810000000 1.0
C      1  0.5268680000000  0.4450050000000  0.5733430000000 1.0
C      1  0.5705700000000  0.5336860000000  0.5326420000000 1.0
C      1  0.4157650000000  0.5188010000000  0.5818130000000 1.0
END
