TITL C-612607-4507-897 217376.100037613 125000 -1096.08936603037 0 0 183 (C1) n - 1
REM
REM in /home/nfs/bkarasulu/CARBON/AIRSS/Generating-Clusters/TERSOFF/Only-C1/FIRE-HFTN
REM
REM
REM
REM
REM
REM ./C.cell (11c1c37f851c82e70ff6c80c92926a4b)
REM AIRSS Version 0.9.1 bugfix July 2018 build 013d7b7c2542+ Fri, 06 Jul 2018 19:26:36 +0100
REM compiler GCC version 9.2.1 20190827 (Red Hat 9.2.1-1)
REM options -cpp -mtune=generic -march=x86-64 -g -O0 -fpre-include=/usr/include/finclude/math-vector-fortran.h
REM seed 565227539 55757631 1449744642 -1011681466 -879528265 1937835415 2127233080 -315309050 -391415975 -786496376 -1770814644 -2104423667 261947432 543827026 -1672259936 535168658 -1540212786 -190278750 1624144937 928715923 -674211218 -1657569614 1870957422 120435364 -1953487703 -1774640870 -1820009461 356379617 -678123287 -1551040146 1825624632 1200728879 -592460639
REM
CELL 1.54180   50.00000   50.00000   50.00000   90.00000   90.00000   90.00000
LATT -1
SFAC C  
C      1  0.4749850000000  0.5531710000000  0.4806990000000 1.0
C      1  0.6060980000000  0.5476010000000  0.5092880000000 1.0
C      1  0.4166930000000  0.4400550000000  0.4899730000000 1.0
C      1  0.4026870000000  0.4733590000000  0.5599110000000 1.0
C      1  0.3803970000000  0.5191410000000  0.5495200000000 1.0
C      1  0.5854230000000  0.5667600000000  0.4466730000000 1.0
C      1  0.5963170000000  0.4349960000000  0.4810310000000 1.0
C      1  0.4400250000000  0.4493680000000  0.5840560000000 1.0
C      1  0.5101580000000  0.4200730000000  0.4522410000000 1.0
C      1  0.5201140000000  0.4595400000000  0.6093200000000 1.0
C      1  0.5669250000000  0.4655230000000  0.4599630000000 1.0
C      1  0.4328850000000  0.3956480000000  0.4934000000000 1.0
C      1  0.3852960000000  0.5145490000000  0.4477990000000 1.0
C      1  0.5309660000000  0.4910140000000  0.4853290000000 1.0
C      1  0.4948190000000  0.5087670000000  0.4288330000000 1.0
C      1  0.5762440000000  0.4585440000000  0.4885970000000 1.0
C      1  0.4402590000000  0.5090710000000  0.5030170000000 1.0
C      1  0.3894150000000  0.4351300000000  0.5328560000000 1.0
C      1  0.4229010000000  0.4193480000000  0.4469520000000 1.0
C      1  0.4641850000000  0.5625590000000  0.4357290000000 1.0
C      1  0.4242830000000  0.4168730000000  0.4744970000000 1.0
C      1  0.4075310000000  0.4269380000000  0.5138890000000 1.0
C      1  0.5139970000000  0.4323780000000  0.3818900000000 1.0
C      1  0.5147970000000  0.4472100000000  0.5269840000000 1.0
C      1  0.4764340000000  0.4727710000000  0.5667180000000 1.0
C      1  0.6017900000000  0.4983610000000  0.4543680000000 1.0
C      1  0.4972970000000  0.3832640000000  0.5441770000000 1.0
C      1  0.5571090000000  0.4692200000000  0.4026390000000 1.0
C      1  0.5533900000000  0.4397030000000  0.5023770000000 1.0
C      1  0.5353590000000  0.4241580000000  0.4405410000000 1.0
C      1  0.4990480000000  0.5180870000000  0.4019260000000 1.0
C      1  0.5134650000000  0.4057320000000  0.5061440000000 1.0
C      1  0.5554530000000  0.5072150000000  0.4346920000000 1.0
C      1  0.4541140000000  0.5368250000000  0.5528460000000 1.0
C      1  0.5523320000000  0.4213900000000  0.6116330000000 1.0
C      1  0.5800050000000  0.4191140000000  0.4615640000000 1.0
C      1  0.4599190000000  0.4656010000000  0.4765780000000 1.0
C      1  0.5112530000000  0.4243230000000  0.4082780000000 1.0
C      1  0.5389490000000  0.4902690000000  0.4148340000000 1.0
C      1  0.4622140000000  0.4754570000000  0.5431970000000 1.0
C      1  0.4684120000000  0.4482260000000  0.5195410000000 1.0
C      1  0.5186880000000  0.6120320000000  0.4518320000000 1.0
C      1  0.5276630000000  0.5422200000000  0.5588900000000 1.0
C      1  0.4774330000000  0.4862650000000  0.4891370000000 1.0
C      1  0.5145130000000  0.4183520000000  0.5699790000000 1.0
C      1  0.4556370000000  0.3719270000000  0.4559840000000 1.0
C      1  0.4155470000000  0.5720480000000  0.4873100000000 1.0
C      1  0.4665570000000  0.4361720000000  0.5923430000000 1.0
C      1  0.4215700000000  0.5800900000000  0.4308940000000 1.0
C      1  0.5924860000000  0.4161750000000  0.5242010000000 1.0
C      1  0.5680700000000  0.4668570000000  0.6020740000000 1.0
C      1  0.3975150000000  0.4996910000000  0.5114750000000 1.0
C      1  0.5109270000000  0.5200550000000  0.4483290000000 1.0
C      1  0.4408580000000  0.5619210000000  0.5568880000000 1.0
C      1  0.4831680000000  0.6076470000000  0.4970590000000 1.0
C      1  0.5316410000000  0.5734460000000  0.4279460000000 1.0
C      1  0.4016460000000  0.4450550000000  0.5554920000000 1.0
C      1  0.4938390000000  0.3987510000000  0.5685140000000 1.0
C      1  0.5034080000000  0.4388440000000  0.4745120000000 1.0
C      1  0.4248860000000  0.4753580000000  0.5797620000000 1.0
C      1  0.4315230000000  0.5943360000000  0.4872560000000 1.0
C      1  0.5177250000000  0.5323150000000  0.4739610000000 1.0
C      1  0.5028120000000  0.4649750000000  0.4570270000000 1.0
C      1  0.4925050000000  0.4471190000000  0.6047830000000 1.0
C      1  0.5662200000000  0.4233640000000  0.5230820000000 1.0
C      1  0.4991730000000  0.5743930000000  0.5840410000000 1.0
C      1  0.5683570000000  0.3946430000000  0.4715850000000 1.0
C      1  0.4669340000000  0.5049250000000  0.5056000000000 1.0
C      1  0.4266020000000  0.4323520000000  0.5634860000000 1.0
C      1  0.5076030000000  0.5008860000000  0.5549580000000 1.0
C      1  0.4438110000000  0.5832280000000  0.5370120000000 1.0
C      1  0.5681210000000  0.5553120000000  0.5399950000000 1.0
C      1  0.5483000000000  0.5434530000000  0.4378500000000 1.0
C      1  0.4963050000000  0.6044800000000  0.4341460000000 1.0
C      1  0.5299480000000  0.5574360000000  0.4682380000000 1.0
C      1  0.5346890000000  0.6046160000000  0.5619010000000 1.0
C      1  0.5603490000000  0.4943830000000  0.5199790000000 1.0
C      1  0.5310210000000  0.3827490000000  0.5079910000000 1.0
C      1  0.6033700000000  0.4987420000000  0.5324220000000 1.0
C      1  0.5752500000000  0.5137810000000  0.5942090000000 1.0
C      1  0.5088760000000  0.5336870000000  0.6028570000000 1.0
C      1  0.5202320000000  0.3694620000000  0.5319600000000 1.0
C      1  0.5968200000000  0.4837470000000  0.5584090000000 1.0
C      1  0.4723540000000  0.4964920000000  0.4395000000000 1.0
C      1  0.5305660000000  0.5730440000000  0.4907470000000 1.0
C      1  0.5225030000000  0.4345640000000  0.4999810000000 1.0
C      1  0.4845280000000  0.5609590000000  0.4158480000000 1.0
C      1  0.3797050000000  0.5383380000000  0.5294090000000 1.0
C      1  0.5703250000000  0.5905540000000  0.4556800000000 1.0
C      1  0.4954970000000  0.4508370000000  0.3717340000000 1.0
C      1  0.5626980000000  0.4378980000000  0.4433740000000 1.0
C      1  0.4204800000000  0.4895120000000  0.4982910000000 1.0
C      1  0.4409620000000  0.4323100000000  0.4289680000000 1.0
C      1  0.4489590000000  0.5867080000000  0.4344310000000 1.0
C      1  0.4648500000000  0.4146980000000  0.4273120000000 1.0
C      1  0.4321630000000  0.5106490000000  0.4289850000000 1.0
C      1  0.3927860000000  0.4901010000000  0.4381730000000 1.0
C      1  0.5088280000000  0.5710030000000  0.5082740000000 1.0
C      1  0.4011230000000  0.5472000000000  0.4820110000000 1.0
C      1  0.5527180000000  0.4976780000000  0.6076740000000 1.0
C      1  0.4606990000000  0.5601760000000  0.6035290000000 1.0
C      1  0.5503470000000  0.5871340000000  0.5778180000000 1.0
C      1  0.3976340000000  0.5399930000000  0.4533620000000 1.0
C      1  0.4856320000000  0.6141040000000  0.5293900000000 1.0
C      1  0.5522100000000  0.3817930000000  0.4892720000000 1.0
C      1  0.5437780000000  0.5962040000000  0.4427210000000 1.0
C      1  0.4615840000000  0.5435700000000  0.4567600000000 1.0
C      1  0.4890730000000  0.5546750000000  0.6035060000000 1.0
C      1  0.6088310000000  0.5369020000000  0.4830770000000 1.0
C      1  0.4350220000000  0.5161540000000  0.6024900000000 1.0
C      1  0.5414930000000  0.5187150000000  0.4866870000000 1.0
C      1  0.4359800000000  0.5010580000000  0.5799030000000 1.0
C      1  0.4925210000000  0.4201980000000  0.4283770000000 1.0
C      1  0.5410600000000  0.5999050000000  0.4910070000000 1.0
C      1  0.5337290000000  0.4223710000000  0.3658640000000 1.0
C      1  0.4946350000000  0.5348660000000  0.4902710000000 1.0
C      1  0.4533810000000  0.6112410000000  0.4886560000000 1.0
C      1  0.4320710000000  0.4593510000000  0.4225290000000 1.0
C      1  0.5701590000000  0.5946520000000  0.4853790000000 1.0
C      1  0.5046170000000  0.4841470000000  0.4799900000000 1.0
C      1  0.4277750000000  0.5338710000000  0.4127260000000 1.0
C      1  0.5889630000000  0.5778270000000  0.5026810000000 1.0
C      1  0.4880690000000  0.6003570000000  0.5857970000000 1.0
C      1  0.4741710000000  0.4428790000000  0.4905510000000 1.0
C      1  0.5859720000000  0.4862750000000  0.5100000000000 1.0
C      1  0.5736430000000  0.5523780000000  0.4241070000000 1.0
C      1  0.5101540000000  0.5771850000000  0.5350420000000 1.0
C      1  0.5032080000000  0.5603580000000  0.5575090000000 1.0
C      1  0.4256160000000  0.4048330000000  0.5205550000000 1.0
C      1  0.5871880000000  0.5462630000000  0.4675190000000 1.0
C      1  0.5327710000000  0.5421270000000  0.5876530000000 1.0
C      1  0.5472200000000  0.4478120000000  0.6069780000000 1.0
C      1  0.4922620000000  0.4937240000000  0.5779190000000 1.0
C      1  0.6046630000000  0.5295170000000  0.5334630000000 1.0
C      1  0.5564550000000  0.5596570000000  0.5887670000000 1.0
C      1  0.5644760000000  0.5316000000000  0.4702550000000 1.0
C      1  0.4677750000000  0.6084870000000  0.4345400000000 1.0
C      1  0.4120660000000  0.5528300000000  0.4301130000000 1.0
C      1  0.5752510000000  0.4650170000000  0.5523460000000 1.0
C      1  0.4955310000000  0.5196200000000  0.5386580000000 1.0
C      1  0.5186530000000  0.4381850000000  0.5522070000000 1.0
C      1  0.5908250000000  0.4905640000000  0.5855570000000 1.0
C      1  0.5892540000000  0.5427030000000  0.5551590000000 1.0
C      1  0.5479390000000  0.5198700000000  0.5158590000000 1.0
C      1  0.4693310000000  0.4221480000000  0.5302980000000 1.0
C      1  0.5160980000000  0.6146650000000  0.4809490000000 1.0
C      1  0.5202290000000  0.4726630000000  0.4334460000000 1.0
C      1  0.4470990000000  0.4139470000000  0.5484680000000 1.0
C      1  0.4675030000000  0.4099440000000  0.5751190000000 1.0
C      1  0.5051250000000  0.5794040000000  0.4205850000000 1.0
C      1  0.5038600000000  0.5052930000000  0.6015060000000 1.0
C      1  0.4465380000000  0.3744380000000  0.4812340000000 1.0
C      1  0.4881150000000  0.5209240000000  0.5127240000000 1.0
C      1  0.4894580000000  0.4029940000000  0.5228880000000 1.0
C      1  0.4478690000000  0.5756490000000  0.5823740000000 1.0
C      1  0.5746540000000  0.4912790000000  0.4488260000000 1.0
C      1  0.4464610000000  0.5086630000000  0.5545150000000 1.0
C      1  0.5688250000000  0.5445340000000  0.3969180000000 1.0
C      1  0.4502500000000  0.5369680000000  0.3938980000000 1.0
C      1  0.4840660000000  0.5769410000000  0.4944320000000 1.0
C      1  0.5686390000000  0.4477740000000  0.4150790000000 1.0
C      1  0.5271270000000  0.5118390000000  0.3956500000000 1.0
C      1  0.5788320000000  0.5401430000000  0.5826470000000 1.0
C      1  0.4594700000000  0.3873250000000  0.4342610000000 1.0
C      1  0.4614220000000  0.6053210000000  0.5451990000000 1.0
C      1  0.5119980000000  0.6051060000000  0.5420060000000 1.0
C      1  0.5249530000000  0.4889740000000  0.6112690000000 1.0
C      1  0.4725110000000  0.4692620000000  0.4490980000000 1.0
C      1  0.5528870000000  0.4778080000000  0.5411190000000 1.0
C      1  0.4795790000000  0.5394990000000  0.3974750000000 1.0
C      1  0.6175750000000  0.5125830000000  0.4714550000000 1.0
C      1  0.4821390000000  0.5404710000000  0.5520640000000 1.0
C      1  0.4191170000000  0.4847490000000  0.4280660000000 1.0
C      1  0.6087140000000  0.4225620000000  0.5032610000000 1.0
C      1  0.5451170000000  0.5394840000000  0.5363600000000 1.0
C      1  0.4620020000000  0.6013300000000  0.5745980000000 1.0
C      1  0.3914990000000  0.5292090000000  0.5042150000000 1.0
C      1  0.5298870000000  0.4853890000000  0.5529640000000 1.0
C      1  0.3928100000000  0.4939390000000  0.5412790000000 1.0
C      1  0.5475150000000  0.5303930000000  0.3866910000000 1.0
C      1  0.4754320000000  0.4666870000000  0.3666370000000 1.0
C      1  0.4301060000000  0.4653400000000  0.4859310000000 1.0
C      1  0.4532450000000  0.5160450000000  0.4476820000000 1.0
END
