TITL C-612600-6631-1270 7.05668787136434 125000 -350.143407081708 0 0 58 (C1) n - 1
REM
REM in /home/nfs/bkarasulu/CARBON/AIRSS/Generating-Clusters/TERSOFF/Only-C1/FIRE-HFTN
REM
REM
REM
REM
REM
REM ./C.cell (11c1c37f851c82e70ff6c80c92926a4b)
REM AIRSS Version 0.9.1 bugfix July 2018 build 013d7b7c2542+ Fri, 06 Jul 2018 19:26:36 +0100
REM compiler GCC version 9.2.1 20190827 (Red Hat 9.2.1-1)
REM options -cpp -mtune=generic -march=x86-64 -g -O0 -fpre-include=/usr/include/finclude/math-vector-fortran.h
REM seed -1352779514 165912658 355644907 -545141157 -1708630153 2087345865 1902761871 -270086421 1584651318 1517576708 1525928531 -964132895 -340033102 -860483372 884751762 -457822265 325628156 159957520 -1527582124 1976097758 -1253670013 -1763164869 812386137 -1499438951 -999269674 515979393 -486759251 101429906 -2145557189 1451201960 978030172 1908594725 -371024890
REM
CELL 1.54180   50.00000   50.00000   50.00000   90.00000   90.00000   90.00000
LATT -1
SFAC C  
C      1  0.4973270000000  0.4702840000000  0.4994570000000 1.0
C      1  0.4253800000000  0.5370000000000  0.5284710000000 1.0
C      1  0.4327310000000  0.4472490000000  0.4903800000000 1.0
C      1  0.4949930000000  0.5438820000000  0.4614480000000 1.0
C      1  0.5031990000000  0.4571500000000  0.5240070000000 1.0
C      1  0.4122290000000  0.5124920000000  0.5339040000000 1.0
C      1  0.4832290000000  0.4398340000000  0.5347230000000 1.0
C      1  0.4961290000000  0.4263130000000  0.4577530000000 1.0
C      1  0.4211640000000  0.4679600000000  0.5028760000000 1.0
C      1  0.4361080000000  0.5445170000000  0.4829120000000 1.0
C      1  0.5843900000000  0.5611550000000  0.4762460000000 1.0
C      1  0.5671300000000  0.4944120000000  0.4712320000000 1.0
C      1  0.4841390000000  0.5837170000000  0.5129210000000 1.0
C      1  0.4909550000000  0.5200640000000  0.5278020000000 1.0
C      1  0.5350420000000  0.5821750000000  0.4953970000000 1.0
C      1  0.5703090000000  0.4630150000000  0.5073200000000 1.0
C      1  0.5830320000000  0.5856070000000  0.4881340000000 1.0
C      1  0.5155640000000  0.4798910000000  0.4396070000000 1.0
C      1  0.5161710000000  0.5312280000000  0.6582060000000 1.0
C      1  0.5293190000000  0.4212780000000  0.5090810000000 1.0
C      1  0.4513670000000  0.4266540000000  0.4853910000000 1.0
C      1  0.4902120000000  0.4859800000000  0.4509220000000 1.0
C      1  0.4815350000000  0.4136860000000  0.5229170000000 1.0
C      1  0.5289950000000  0.5004980000000  0.4254600000000 1.0
C      1  0.5073180000000  0.4039350000000  0.5146740000000 1.0
C      1  0.5077840000000  0.5296860000000  0.5075450000000 1.0
C      1  0.4539330000000  0.5245360000000  0.4741400000000 1.0
C      1  0.5615720000000  0.5447830000000  0.4721370000000 1.0
C      1  0.4602930000000  0.5714760000000  0.5154630000000 1.0
C      1  0.4764580000000  0.5069550000000  0.4372580000000 1.0
C      1  0.4964960000000  0.5225540000000  0.5548590000000 1.0
C      1  0.5291700000000  0.4452160000000  0.5260110000000 1.0
C      1  0.5133110000000  0.5416420000000  0.4827390000000 1.0
C      1  0.4395780000000  0.5529230000000  0.5100200000000 1.0
C      1  0.5612880000000  0.5194140000000  0.4589500000000 1.0
C      1  0.3964030000000  0.5104880000000  0.5561870000000 1.0
C      1  0.5113160000000  0.5290980000000  0.6326810000000 1.0
C      1  0.4586750000000  0.4097000000000  0.5070060000000 1.0
C      1  0.4150650000000  0.4899780000000  0.5168970000000 1.0
C      1  0.4166610000000  0.5550240000000  0.4669260000000 1.0
C      1  0.5063800000000  0.5269320000000  0.6067280000000 1.0
C      1  0.5226250000000  0.4348270000000  0.4612970000000 1.0
C      1  0.5097810000000  0.5888530000000  0.5063990000000 1.0
C      1  0.5370610000000  0.5565300000000  0.4819710000000 1.0
C      1  0.5570290000000  0.4680350000000  0.4624380000000 1.0
C      1  0.5482000000000  0.5174110000000  0.4338910000000 1.0
C      1  0.5596200000000  0.5960700000000  0.4972670000000 1.0
C      1  0.4677650000000  0.5075660000000  0.5178380000000 1.0
C      1  0.5621270000000  0.4474610000000  0.4837420000000 1.0
C      1  0.5403700000000  0.4276780000000  0.4835380000000 1.0
C      1  0.5014450000000  0.5247670000000  0.5807830000000 1.0
C      1  0.5320560000000  0.4598860000000  0.4501680000000 1.0
C      1  0.4700620000000  0.4266930000000  0.4641700000000 1.0
C      1  0.4635640000000  0.5026930000000  0.4901830000000 1.0
C      1  0.4829100000000  0.4837700000000  0.4791190000000 1.0
C      1  0.4719560000000  0.5300760000000  0.4528130000000 1.0
C      1  0.5771140000000  0.4893350000000  0.4979060000000 1.0
C      1  0.5539660000000  0.4579680000000  0.5296890000000 1.0
END
