TITL C-612600-6631-1127 0.000125233028456837 125000 -722.79485214287 0 0 120 (C1) n - 1
REM
REM in /home/nfs/bkarasulu/CARBON/AIRSS/Generating-Clusters/TERSOFF/Only-C1/FIRE-HFTN
REM
REM
REM
REM
REM
REM ./C.cell (11c1c37f851c82e70ff6c80c92926a4b)
REM AIRSS Version 0.9.1 bugfix July 2018 build 013d7b7c2542+ Fri, 06 Jul 2018 19:26:36 +0100
REM compiler GCC version 9.2.1 20190827 (Red Hat 9.2.1-1)
REM options -cpp -mtune=generic -march=x86-64 -g -O0 -fpre-include=/usr/include/finclude/math-vector-fortran.h
REM seed 752790123 1736575441 -350103569 1472299135 -148845494 258258468 1374870517 1662936342 1303281978 -1640481352 481447606 1429692080 1402159302 1908767310 -1317830683 -962143564 729710929 -1660803414 -1266724797 -990496334 -104036587 1667879364 1535180221 -956037129 58437152 682061261 2110451584 -346289867 2018944545 467079058 -456184852 -1033937757 -1268624623
REM
CELL 1.54180   50.00000   50.00000   50.00000   90.00000   90.00000   90.00000
LATT -1
SFAC C  
C      1  0.5693050000000  0.4308510000000  0.5433820000000 1.0
C      1  0.5034440000000  0.4599800000000  0.5980520000000 1.0
C      1  0.4728980000000  0.5751310000000  0.4381050000000 1.0
C      1  0.4618950000000  0.4806940000000  0.5822450000000 1.0
C      1  0.5118830000000  0.4087230000000  0.5464120000000 1.0
C      1  0.4474550000000  0.5906700000000  0.5445400000000 1.0
C      1  0.4538360000000  0.4730830000000  0.5059450000000 1.0
C      1  0.4668630000000  0.4315910000000  0.5564210000000 1.0
C      1  0.5239470000000  0.5644470000000  0.5184170000000 1.0
C      1  0.5537370000000  0.5580410000000  0.5583790000000 1.0
C      1  0.5185180000000  0.5245750000000  0.6058310000000 1.0
C      1  0.4922460000000  0.5309970000000  0.6043320000000 1.0
C      1  0.5087310000000  0.5367360000000  0.4207950000000 1.0
C      1  0.4541930000000  0.5291850000000  0.5699810000000 1.0
C      1  0.4836790000000  0.5208700000000  0.4255720000000 1.0
C      1  0.5867020000000  0.4915620000000  0.4401700000000 1.0
C      1  0.4323810000000  0.5360600000000  0.4971940000000 1.0
C      1  0.4891920000000  0.5041070000000  0.4489540000000 1.0
C      1  0.5507860000000  0.4126210000000  0.4905190000000 1.0
C      1  0.5086600000000  0.4495930000000  0.4938920000000 1.0
C      1  0.5243050000000  0.5425000000000  0.5035780000000 1.0
C      1  0.5656570000000  0.5329130000000  0.5527880000000 1.0
C      1  0.4452690000000  0.4223570000000  0.4964470000000 1.0
C      1  0.4232840000000  0.5237790000000  0.4730710000000 1.0
C      1  0.5783010000000  0.4503720000000  0.4696810000000 1.0
C      1  0.5517840000000  0.5046600000000  0.4868140000000 1.0
C      1  0.4095690000000  0.4898320000000  0.5038540000000 1.0
C      1  0.5766890000000  0.4461000000000  0.5193990000000 1.0
C      1  0.4913740000000  0.5150980000000  0.5482490000000 1.0
C      1  0.5297090000000  0.3919000000000  0.5313130000000 1.0
C      1  0.5023790000000  0.5710330000000  0.5326290000000 1.0
C      1  0.5322770000000  0.4314270000000  0.4360300000000 1.0
C      1  0.5342470000000  0.5712530000000  0.5718100000000 1.0
C      1  0.5232040000000  0.4805600000000  0.5516280000000 1.0
C      1  0.4935780000000  0.4610000000000  0.4733230000000 1.0
C      1  0.5843490000000  0.4905010000000  0.5407340000000 1.0
C      1  0.4853060000000  0.4260080000000  0.3941100000000 1.0
C      1  0.5093430000000  0.5762250000000  0.5811770000000 1.0
C      1  0.5115090000000  0.5206730000000  0.4633170000000 1.0
C      1  0.4513990000000  0.4073960000000  0.4750220000000 1.0
C      1  0.4126060000000  0.4977760000000  0.5327030000000 1.0
C      1  0.5242760000000  0.5172770000000  0.4031030000000 1.0
C      1  0.4134050000000  0.5548020000000  0.5070150000000 1.0
C      1  0.5756150000000  0.5271470000000  0.4029890000000 1.0
C      1  0.5402370000000  0.4833850000000  0.4442720000000 1.0
C      1  0.4418450000000  0.5879530000000  0.4714260000000 1.0
C      1  0.5905420000000  0.4720010000000  0.5190270000000 1.0
C      1  0.4454710000000  0.4477670000000  0.5046890000000 1.0
C      1  0.5769930000000  0.5125330000000  0.4994310000000 1.0
C      1  0.4808890000000  0.5718280000000  0.5818960000000 1.0
C      1  0.3968180000000  0.5711590000000  0.4929090000000 1.0
C      1  0.4610280000000  0.5870390000000  0.4920070000000 1.0
C      1  0.5054010000000  0.4615290000000  0.5382860000000 1.0
C      1  0.4870280000000  0.4218680000000  0.5357860000000 1.0
C      1  0.4527690000000  0.4410940000000  0.4393980000000 1.0
C      1  0.5485720000000  0.4403710000000  0.5615650000000 1.0
C      1  0.4879350000000  0.4509290000000  0.4052280000000 1.0
C      1  0.5920500000000  0.5465740000000  0.3926480000000 1.0
C      1  0.5742930000000  0.4029980000000  0.5459780000000 1.0
C      1  0.4794150000000  0.5580810000000  0.5363830000000 1.0
C      1  0.4897010000000  0.5859090000000  0.4811330000000 1.0
C      1  0.4907850000000  0.5043770000000  0.5020820000000 1.0
C      1  0.4443830000000  0.5016850000000  0.5726340000000 1.0
C      1  0.6225370000000  0.5286240000000  0.4221110000000 1.0
C      1  0.5045290000000  0.4334790000000  0.5878660000000 1.0
C      1  0.5472140000000  0.4685400000000  0.5645960000000 1.0
C      1  0.4236570000000  0.5746300000000  0.5470960000000 1.0
C      1  0.5609230000000  0.4405750000000  0.4928820000000 1.0
C      1  0.4748760000000  0.4571540000000  0.4300770000000 1.0
C      1  0.4478020000000  0.4995150000000  0.4051330000000 1.0
C      1  0.5938260000000  0.4881700000000  0.4931930000000 1.0
C      1  0.4640580000000  0.4990250000000  0.5069600000000 1.0
C      1  0.5243210000000  0.4249650000000  0.5681440000000 1.0
C      1  0.5777550000000  0.5184120000000  0.5292100000000 1.0
C      1  0.4300270000000  0.4954100000000  0.4254870000000 1.0
C      1  0.4561270000000  0.4150360000000  0.4496000000000 1.0
C      1  0.5428740000000  0.5187980000000  0.5957260000000 1.0
C      1  0.5070520000000  0.5241790000000  0.4918150000000 1.0
C      1  0.5900030000000  0.4767270000000  0.4661920000000 1.0
C      1  0.5606350000000  0.4907770000000  0.4268830000000 1.0
C      1  0.4972120000000  0.4431190000000  0.5189220000000 1.0
C      1  0.5542040000000  0.3846780000000  0.5441850000000 1.0
C      1  0.4045970000000  0.5248360000000  0.5413670000000 1.0
C      1  0.4781460000000  0.4234850000000  0.5819900000000 1.0
C      1  0.4854530000000  0.4752660000000  0.4502830000000 1.0
C      1  0.4172490000000  0.4957920000000  0.4755260000000 1.0
C      1  0.4665920000000  0.5321510000000  0.5418000000000 1.0
C      1  0.4723070000000  0.5445040000000  0.5886640000000 1.0
C      1  0.4107230000000  0.5523750000000  0.5351160000000 1.0
C      1  0.5612810000000  0.5135990000000  0.5748280000000 1.0
C      1  0.5015970000000  0.4986950000000  0.3920600000000 1.0
C      1  0.4513170000000  0.5232160000000  0.5161510000000 1.0
C      1  0.3859430000000  0.5331440000000  0.4432990000000 1.0
C      1  0.4457470000000  0.5763330000000  0.4458690000000 1.0
C      1  0.4118440000000  0.5377950000000  0.4509190000000 1.0
C      1  0.6017270000000  0.5117660000000  0.4282040000000 1.0
C      1  0.4948460000000  0.5706020000000  0.4563900000000 1.0
C      1  0.5322020000000  0.4568330000000  0.4421020000000 1.0
C      1  0.4600730000000  0.5995000000000  0.5193000000000 1.0
C      1  0.5688040000000  0.4872100000000  0.5652960000000 1.0
C      1  0.6175080000000  0.5475530000000  0.4028750000000 1.0
C      1  0.4636490000000  0.5897720000000  0.5682200000000 1.0
C      1  0.5015890000000  0.6074240000000  0.4969670000000 1.0
C      1  0.5118640000000  0.5476900000000  0.4479500000000 1.0
C      1  0.4229680000000  0.4819010000000  0.4502300000000 1.0
C      1  0.4304830000000  0.4849860000000  0.5515830000000 1.0
C      1  0.4894310000000  0.4815900000000  0.5858820000000 1.0
C      1  0.5032700000000  0.4965410000000  0.5658040000000 1.0
C      1  0.5530680000000  0.5114800000000  0.4079060000000 1.0
C      1  0.5367620000000  0.5047310000000  0.4627820000000 1.0
C      1  0.5335000000000  0.3964370000000  0.5035660000000 1.0
C      1  0.5032280000000  0.4705620000000  0.3916000000000 1.0
C      1  0.5360980000000  0.4583180000000  0.4956510000000 1.0
C      1  0.5401440000000  0.4851890000000  0.5038280000000 1.0
C      1  0.4269960000000  0.5574200000000  0.4379310000000 1.0
C      1  0.4297200000000  0.4547410000000  0.4485860000000 1.0
C      1  0.4848460000000  0.6155320000000  0.5180060000000 1.0
C      1  0.4749590000000  0.5074560000000  0.4022760000000 1.0
C      1  0.5334980000000  0.4950430000000  0.5286450000000 1.0
C      1  0.4503940000000  0.4555340000000  0.5577720000000 1.0
END
