TITL C-612606-7351-1379 1981.21347416864 125000 -716.372167908979 0 0 118 (C1) n - 1
REM
REM in /home/nfs/bkarasulu/CARBON/AIRSS/Generating-Clusters/TERSOFF/Only-C1/FIRE-HFTN
REM
REM
REM
REM
REM
REM ./C.cell (11c1c37f851c82e70ff6c80c92926a4b)
REM AIRSS Version 0.9.1 bugfix July 2018 build 013d7b7c2542+ Fri, 06 Jul 2018 19:26:36 +0100
REM compiler GCC version 9.2.1 20190827 (Red Hat 9.2.1-1)
REM options -cpp -mtune=generic -march=x86-64 -g -O0 -fpre-include=/usr/include/finclude/math-vector-fortran.h
REM seed -949586001 1444094001 2055828271 1372886919 -2085937056 -1625663715 355874768 1951037515 1883380836 25935883 565525563 167876223 -2112233184 2090710672 -1509264292 295166539 -1695929994 -1416579022 -1643171371 1771327417 -1400196552 1258465413 1329958445 1490866197 -853905229 -507612271 -1917096718 -1972763581 988835356 860225591 -1931140611 1203604970 988750042
REM
CELL 1.54180   50.00000   50.00000   50.00000   90.00000   90.00000   90.00000
LATT -1
SFAC C  
C      1  0.5483040000000  0.4635560000000  0.4232660000000 1.0
C      1  0.4682770000000  0.4368030000000  0.4297460000000 1.0
C      1  0.5092950000000  0.5913770000000  0.5428130000000 1.0
C      1  0.4271840000000  0.5008430000000  0.5584760000000 1.0
C      1  0.4620050000000  0.4195310000000  0.5197170000000 1.0
C      1  0.5401600000000  0.4180430000000  0.4332650000000 1.0
C      1  0.4670870000000  0.4626680000000  0.4165230000000 1.0
C      1  0.5010630000000  0.5028160000000  0.4087480000000 1.0
C      1  0.3993900000000  0.4539400000000  0.5236760000000 1.0
C      1  0.4367050000000  0.4728670000000  0.5594340000000 1.0
C      1  0.4179360000000  0.5121370000000  0.5824250000000 1.0
C      1  0.5596250000000  0.4368740000000  0.4285140000000 1.0
C      1  0.5181930000000  0.4727820000000  0.5629260000000 1.0
C      1  0.5355860000000  0.5188690000000  0.4483480000000 1.0
C      1  0.4225850000000  0.4528400000000  0.5410760000000 1.0
C      1  0.4941950000000  0.5093290000000  0.5035990000000 1.0
C      1  0.5018370000000  0.4824120000000  0.5044010000000 1.0
C      1  0.5632250000000  0.5928890000000  0.4786260000000 1.0
C      1  0.4890870000000  0.4168630000000  0.4732660000000 1.0
C      1  0.5176970000000  0.5945990000000  0.5695810000000 1.0
C      1  0.4864250000000  0.5244400000000  0.4814920000000 1.0
C      1  0.5483560000000  0.3982230000000  0.5147040000000 1.0
C      1  0.4962760000000  0.4916210000000  0.4509050000000 1.0
C      1  0.4445520000000  0.4423140000000  0.5255250000000 1.0
C      1  0.4785850000000  0.4167860000000  0.5442710000000 1.0
C      1  0.5393430000000  0.5128760000000  0.5535050000000 1.0
C      1  0.4446080000000  0.5574470000000  0.5538830000000 1.0
C      1  0.4598070000000  0.5349480000000  0.4821920000000 1.0
C      1  0.5885140000000  0.5150700000000  0.5527090000000 1.0
C      1  0.5121540000000  0.5726440000000  0.5869950000000 1.0
C      1  0.5133190000000  0.5072340000000  0.4349000000000 1.0
C      1  0.5122880000000  0.5604770000000  0.5064060000000 1.0
C      1  0.6127060000000  0.4988130000000  0.4326800000000 1.0
C      1  0.5437000000000  0.4721870000000  0.4853970000000 1.0
C      1  0.4686390000000  0.5698960000000  0.5612440000000 1.0
C      1  0.4443850000000  0.5062470000000  0.4180680000000 1.0
C      1  0.4871130000000  0.5262120000000  0.4002340000000 1.0
C      1  0.4486970000000  0.4887490000000  0.4761000000000 1.0
C      1  0.5278530000000  0.5401780000000  0.4915910000000 1.0
C      1  0.4424470000000  0.5718860000000  0.3853470000000 1.0
C      1  0.5126620000000  0.4151940000000  0.4883680000000 1.0
C      1  0.5017740000000  0.4680720000000  0.4617410000000 1.0
C      1  0.5302820000000  0.5666230000000  0.4480690000000 1.0
C      1  0.5030390000000  0.5088310000000  0.6039330000000 1.0
C      1  0.5922810000000  0.4859670000000  0.4202840000000 1.0
C      1  0.5507200000000  0.5260400000000  0.5311530000000 1.0
C      1  0.5543850000000  0.4508470000000  0.5350710000000 1.0
C      1  0.4427800000000  0.5921080000000  0.3682360000000 1.0
C      1  0.3983470000000  0.4762400000000  0.4750520000000 1.0
C      1  0.5286510000000  0.4180190000000  0.5111290000000 1.0
C      1  0.4398120000000  0.5423210000000  0.5301400000000 1.0
C      1  0.5006490000000  0.5508470000000  0.4064120000000 1.0
C      1  0.5150940000000  0.5654260000000  0.4240570000000 1.0
C      1  0.5610940000000  0.5566870000000  0.5765390000000 1.0
C      1  0.4451930000000  0.5160120000000  0.4662810000000 1.0
C      1  0.4584890000000  0.5256480000000  0.4006570000000 1.0
C      1  0.3935150000000  0.4569330000000  0.4967560000000 1.0
C      1  0.5163410000000  0.4688980000000  0.4847930000000 1.0
C      1  0.5183290000000  0.4570020000000  0.4178420000000 1.0
C      1  0.4571520000000  0.5500430000000  0.5068050000000 1.0
C      1  0.5278070000000  0.5246040000000  0.5959750000000 1.0
C      1  0.5801010000000  0.5265860000000  0.5268370000000 1.0
C      1  0.4896070000000  0.4243810000000  0.4444960000000 1.0
C      1  0.5645880000000  0.5740090000000  0.5538320000000 1.0
C      1  0.4469090000000  0.4373960000000  0.4761560000000 1.0
C      1  0.4653910000000  0.4202600000000  0.4895980000000 1.0
C      1  0.4438600000000  0.5510900000000  0.4034080000000 1.0
C      1  0.5656810000000  0.4853520000000  0.4305440000000 1.0
C      1  0.5832180000000  0.4625190000000  0.5684490000000 1.0
C      1  0.5310030000000  0.5424350000000  0.4632880000000 1.0
C      1  0.4566020000000  0.4663530000000  0.5163190000000 1.0
C      1  0.5283330000000  0.4400830000000  0.5296410000000 1.0
C      1  0.5486990000000  0.4192580000000  0.5710330000000 1.0
C      1  0.5254810000000  0.4049200000000  0.5667930000000 1.0
C      1  0.5333970000000  0.5538550000000  0.5909510000000 1.0
C      1  0.6092470000000  0.5126070000000  0.4557940000000 1.0
C      1  0.4001740000000  0.5020790000000  0.4894290000000 1.0
C      1  0.5669710000000  0.3800350000000  0.5160790000000 1.0
C      1  0.5007130000000  0.4009710000000  0.5550550000000 1.0
C      1  0.5610930000000  0.5061360000000  0.4511030000000 1.0
C      1  0.5840440000000  0.5152410000000  0.4696020000000 1.0
C      1  0.4812430000000  0.4864110000000  0.5881240000000 1.0
C      1  0.5410800000000  0.5178210000000  0.5056090000000 1.0
C      1  0.4311070000000  0.5487600000000  0.4292560000000 1.0
C      1  0.4204880000000  0.5023910000000  0.5103490000000 1.0
C      1  0.4843320000000  0.5657560000000  0.5848290000000 1.0
C      1  0.4428680000000  0.4627180000000  0.4651230000000 1.0
C      1  0.5868360000000  0.5238770000000  0.4981060000000 1.0
C      1  0.5501990000000  0.5132830000000  0.5804130000000 1.0
C      1  0.5742980000000  0.5294370000000  0.5756560000000 1.0
C      1  0.4819710000000  0.4436840000000  0.5571870000000 1.0
C      1  0.4421370000000  0.4783480000000  0.4206790000000 1.0
C      1  0.4656080000000  0.4665070000000  0.5699600000000 1.0
C      1  0.5094050000000  0.4501080000000  0.5496620000000 1.0
C      1  0.4433970000000  0.6121000000000  0.3515150000000 1.0
C      1  0.4948140000000  0.4735200000000  0.4088940000000 1.0
C      1  0.5688450000000  0.5896670000000  0.5047750000000 1.0
C      1  0.4353870000000  0.5227630000000  0.4408930000000 1.0
C      1  0.5472990000000  0.5868550000000  0.4578040000000 1.0
C      1  0.5141680000000  0.4296850000000  0.4307290000000 1.0
C      1  0.4260040000000  0.5169580000000  0.5339250000000 1.0
C      1  0.4952430000000  0.5126120000000  0.6300360000000 1.0
C      1  0.3838110000000  0.5232340000000  0.4839030000000 1.0
C      1  0.5839570000000  0.4857360000000  0.5502350000000 1.0
C      1  0.5155970000000  0.4991080000000  0.5556510000000 1.0
C      1  0.5550420000000  0.5814170000000  0.5279250000000 1.0
C      1  0.4922600000000  0.5134040000000  0.5522740000000 1.0
C      1  0.4824780000000  0.5644800000000  0.5137140000000 1.0
C      1  0.4840440000000  0.5188360000000  0.5278690000000 1.0
C      1  0.4830520000000  0.5802790000000  0.5386590000000 1.0
C      1  0.4838080000000  0.4670230000000  0.5177740000000 1.0
C      1  0.5270120000000  0.5791840000000  0.5239430000000 1.0
C      1  0.5656830000000  0.4767650000000  0.5275350000000 1.0
C      1  0.4217810000000  0.4687320000000  0.4482880000000 1.0
C      1  0.5533000000000  0.4901210000000  0.5046150000000 1.0
C      1  0.4429010000000  0.4866040000000  0.5034450000000 1.0
C      1  0.5646850000000  0.4410930000000  0.5610220000000 1.0
C      1  0.4111470000000  0.5225060000000  0.6053490000000 1.0
END
