TITL C-612602-9376-804 30.4478449600018 125000 -935.666046556764 0 0 152 (C1) n - 1
REM
REM in /home/nfs/bkarasulu/CARBON/AIRSS/Generating-Clusters/TERSOFF/Only-C1/FIRE-HFTN
REM
REM
REM
REM
REM
REM ./C.cell (11c1c37f851c82e70ff6c80c92926a4b)
REM AIRSS Version 0.9.1 bugfix July 2018 build 013d7b7c2542+ Fri, 06 Jul 2018 19:26:36 +0100
REM compiler GCC version 9.2.1 20190827 (Red Hat 9.2.1-1)
REM options -cpp -mtune=generic -march=x86-64 -g -O0 -fpre-include=/usr/include/finclude/math-vector-fortran.h
REM seed 318422084 1073842758 457809979 -401440920 -587349254 -85972449 2058465516 -970893097 -755614085 -739170326 -197378726 178987547 -1036265802 -453358178 934512074 -561367309 353716941 186960066 1628875030 2055182950 1469850961 -839801682 -1856539420 -1264131674 63898245 -1253090146 562044124 1087250875 -1070067744 573192460 -863694334 -773791796 592444249
REM
CELL 1.54180   50.00000   50.00000   50.00000   90.00000   90.00000   90.00000
LATT -1
SFAC C  
C      1  0.5328810000000  0.3774450000000  0.4618220000000 1.0
C      1  0.5936280000000  0.4468420000000  0.4296500000000 1.0
C      1  0.5428370000000  0.3989770000000  0.4510350000000 1.0
C      1  0.5352700000000  0.4776470000000  0.4591570000000 1.0
C      1  0.4997740000000  0.5833100000000  0.4982970000000 1.0
C      1  0.5666970000000  0.5408520000000  0.5710930000000 1.0
C      1  0.3992510000000  0.4722010000000  0.4692390000000 1.0
C      1  0.4244910000000  0.5624590000000  0.5762970000000 1.0
C      1  0.4800490000000  0.5138380000000  0.4355440000000 1.0
C      1  0.4516490000000  0.4432340000000  0.5982400000000 1.0
C      1  0.4739280000000  0.5225900000000  0.4086330000000 1.0
C      1  0.4278080000000  0.5467800000000  0.4237190000000 1.0
C      1  0.4204440000000  0.4857030000000  0.4565390000000 1.0
C      1  0.4999620000000  0.4441760000000  0.5806210000000 1.0
C      1  0.4258100000000  0.4234040000000  0.4397190000000 1.0
C      1  0.5341620000000  0.5694500000000  0.5361360000000 1.0
C      1  0.5427630000000  0.5063760000000  0.4000340000000 1.0
C      1  0.4791900000000  0.4445350000000  0.4611130000000 1.0
C      1  0.5988360000000  0.5146250000000  0.4343200000000 1.0
C      1  0.5528010000000  0.4213660000000  0.4374250000000 1.0
C      1  0.3571600000000  0.4171070000000  0.5470170000000 1.0
C      1  0.6302070000000  0.4562990000000  0.5192700000000 1.0
C      1  0.5682890000000  0.4901450000000  0.5045310000000 1.0
C      1  0.5327170000000  0.4646260000000  0.4842950000000 1.0
C      1  0.4949700000000  0.4887830000000  0.5333600000000 1.0
C      1  0.5742810000000  0.4961090000000  0.5790100000000 1.0
C      1  0.4747990000000  0.5329740000000  0.4558220000000 1.0
C      1  0.4918760000000  0.5560010000000  0.4590310000000 1.0
C      1  0.4330010000000  0.5255750000000  0.4812060000000 1.0
C      1  0.5017710000000  0.4310030000000  0.5056810000000 1.0
C      1  0.5295320000000  0.5294170000000  0.6038210000000 1.0
C      1  0.5529990000000  0.5165430000000  0.5082760000000 1.0
C      1  0.4853830000000  0.4961420000000  0.6176950000000 1.0
C      1  0.5433260000000  0.5254930000000  0.4605230000000 1.0
C      1  0.5582250000000  0.5145840000000  0.5650500000000 1.0
C      1  0.6025330000000  0.5089290000000  0.4707090000000 1.0
C      1  0.4409020000000  0.4525550000000  0.5135760000000 1.0
C      1  0.5922230000000  0.4962110000000  0.4152330000000 1.0
C      1  0.3804710000000  0.5727360000000  0.4455040000000 1.0
C      1  0.4404520000000  0.4693020000000  0.4438210000000 1.0
C      1  0.4919340000000  0.4322850000000  0.4809920000000 1.0
C      1  0.5042650000000  0.5336770000000  0.5498140000000 1.0
C      1  0.5373520000000  0.4448010000000  0.6107580000000 1.0
C      1  0.5214400000000  0.5524850000000  0.5883060000000 1.0
C      1  0.5056100000000  0.5708830000000  0.4384190000000 1.0
C      1  0.4663060000000  0.5978150000000  0.4604390000000 1.0
C      1  0.5562210000000  0.4976300000000  0.4594280000000 1.0
C      1  0.5260170000000  0.4862700000000  0.4115060000000 1.0
C      1  0.5831920000000  0.4754580000000  0.5608920000000 1.0
C      1  0.4441430000000  0.4238180000000  0.5111040000000 1.0
C      1  0.5894400000000  0.4864430000000  0.5281300000000 1.0
C      1  0.4199180000000  0.5140190000000  0.4585520000000 1.0
C      1  0.4294080000000  0.4482920000000  0.4273130000000 1.0
C      1  0.5595060000000  0.4867380000000  0.6023420000000 1.0
C      1  0.4598250000000  0.4147110000000  0.5338280000000 1.0
C      1  0.4702660000000  0.5021290000000  0.3885000000000 1.0
C      1  0.4421480000000  0.5895010000000  0.5386540000000 1.0
C      1  0.5055850000000  0.5315660000000  0.4968250000000 1.0
C      1  0.5781820000000  0.5714970000000  0.5035580000000 1.0
C      1  0.5424230000000  0.4513960000000  0.5547180000000 1.0
C      1  0.4280560000000  0.5156480000000  0.5801930000000 1.0
C      1  0.4703620000000  0.4931690000000  0.5174680000000 1.0
C      1  0.5725400000000  0.4181930000000  0.5186230000000 1.0
C      1  0.5414630000000  0.4733460000000  0.5367860000000 1.0
C      1  0.5598380000000  0.4572850000000  0.5992880000000 1.0
C      1  0.4762400000000  0.5612870000000  0.6103260000000 1.0
C      1  0.4581160000000  0.4715500000000  0.5002580000000 1.0
C      1  0.4184410000000  0.5383270000000  0.5016230000000 1.0
C      1  0.4427740000000  0.5135780000000  0.5557490000000 1.0
C      1  0.4197610000000  0.4571050000000  0.5646080000000 1.0
C      1  0.4899530000000  0.4819690000000  0.3825490000000 1.0
C      1  0.5253830000000  0.5519050000000  0.5582750000000 1.0
C      1  0.4651890000000  0.6036340000000  0.5373980000000 1.0
C      1  0.5937300000000  0.5195730000000  0.5325090000000 1.0
C      1  0.4142170000000  0.5519560000000  0.5244450000000 1.0
C      1  0.5167130000000  0.4396780000000  0.5572780000000 1.0
C      1  0.6004670000000  0.4695890000000  0.4176750000000 1.0
C      1  0.3849780000000  0.5461770000000  0.4441340000000 1.0
C      1  0.4337190000000  0.5408640000000  0.5932240000000 1.0
C      1  0.4568710000000  0.5404860000000  0.6104840000000 1.0
C      1  0.4069310000000  0.5006400000000  0.5884820000000 1.0
C      1  0.5616820000000  0.5485580000000  0.4528310000000 1.0
C      1  0.4503090000000  0.5641760000000  0.4224900000000 1.0
C      1  0.4484730000000  0.5880960000000  0.4398930000000 1.0
C      1  0.4441240000000  0.4956160000000  0.3801980000000 1.0
C      1  0.5338260000000  0.5008800000000  0.6080640000000 1.0
C      1  0.5009100000000  0.5578770000000  0.4861850000000 1.0
C      1  0.5765570000000  0.4340390000000  0.4478870000000 1.0
C      1  0.5224200000000  0.4424700000000  0.3964940000000 1.0
C      1  0.4607740000000  0.4371710000000  0.5528340000000 1.0
C      1  0.5599830000000  0.5614500000000  0.5241910000000 1.0
C      1  0.4094650000000  0.5327420000000  0.4398910000000 1.0
C      1  0.3714860000000  0.4452190000000  0.5049930000000 1.0
C      1  0.5671850000000  0.5331180000000  0.5261740000000 1.0
C      1  0.4611120000000  0.5250630000000  0.4796380000000 1.0
C      1  0.5328140000000  0.5243940000000  0.4901760000000 1.0
C      1  0.5300750000000  0.3875530000000  0.5290790000000 1.0
C      1  0.5529930000000  0.5751230000000  0.4591230000000 1.0
C      1  0.5804510000000  0.5607570000000  0.5809960000000 1.0
C      1  0.5457600000000  0.4708800000000  0.5086090000000 1.0
C      1  0.5702680000000  0.5017160000000  0.3988690000000 1.0
C      1  0.5534060000000  0.4002400000000  0.5245970000000 1.0
C      1  0.6016460000000  0.5534590000000  0.4990030000000 1.0
C      1  0.4531790000000  0.5393850000000  0.5473030000000 1.0
C      1  0.3964710000000  0.5942400000000  0.4435080000000 1.0
C      1  0.4856800000000  0.5722770000000  0.5649700000000 1.0
C      1  0.6020590000000  0.5378540000000  0.4753700000000 1.0
C      1  0.4794600000000  0.5467320000000  0.5521340000000 1.0
C      1  0.5328170000000  0.5311040000000  0.3909920000000 1.0
C      1  0.5163300000000  0.4815670000000  0.4383470000000 1.0
C      1  0.4962110000000  0.5673730000000  0.5913400000000 1.0
C      1  0.4280600000000  0.4102430000000  0.4628810000000 1.0
C      1  0.6031600000000  0.4588270000000  0.5166510000000 1.0
C      1  0.5834820000000  0.4360310000000  0.4754650000000 1.0
C      1  0.5057770000000  0.4337310000000  0.5319170000000 1.0
C      1  0.5661670000000  0.5856010000000  0.4819190000000 1.0
C      1  0.5793900000000  0.4941030000000  0.4766800000000 1.0
C      1  0.6121900000000  0.5386840000000  0.5216240000000 1.0
C      1  0.3635390000000  0.4309490000000  0.5258680000000 1.0
C      1  0.5107010000000  0.5856880000000  0.5253090000000 1.0
C      1  0.4795980000000  0.5168600000000  0.5000140000000 1.0
C      1  0.5892720000000  0.5445260000000  0.4496760000000 1.0
C      1  0.4348580000000  0.4101640000000  0.4887010000000 1.0
C      1  0.4728360000000  0.5521270000000  0.4086720000000 1.0
C      1  0.5296800000000  0.5836960000000  0.4459640000000 1.0
C      1  0.4822550000000  0.6001580000000  0.4826120000000 1.0
C      1  0.5190110000000  0.5537760000000  0.3945030000000 1.0
C      1  0.5661710000000  0.4528960000000  0.5706490000000 1.0
C      1  0.4263410000000  0.4499100000000  0.5903130000000 1.0
C      1  0.4688210000000  0.4676290000000  0.4487260000000 1.0
C      1  0.3830460000000  0.4592340000000  0.4857010000000 1.0
C      1  0.4781270000000  0.3931910000000  0.5344430000000 1.0
C      1  0.4668270000000  0.5153430000000  0.6190930000000 1.0
C      1  0.4222400000000  0.4555570000000  0.4012600000000 1.0
C      1  0.4900180000000  0.5924410000000  0.5452200000000 1.0
C      1  0.4720660000000  0.4396940000000  0.5787480000000 1.0
C      1  0.4267040000000  0.4756780000000  0.3841880000000 1.0
C      1  0.4318620000000  0.5624610000000  0.5464390000000 1.0
C      1  0.5127400000000  0.4689410000000  0.3931340000000 1.0
C      1  0.5200880000000  0.5257530000000  0.4416280000000 1.0
C      1  0.4409830000000  0.4604240000000  0.5435530000000 1.0
C      1  0.4880830000000  0.4873450000000  0.4416830000000 1.0
C      1  0.5122260000000  0.4561870000000  0.6035250000000 1.0
C      1  0.5097880000000  0.4841720000000  0.6104580000000 1.0
C      1  0.5112720000000  0.5073640000000  0.5462590000000 1.0
C      1  0.5379790000000  0.4995900000000  0.5494610000000 1.0
C      1  0.5389210000000  0.4297260000000  0.4138830000000 1.0
C      1  0.4225080000000  0.5998100000000  0.4403690000000 1.0
C      1  0.5035410000000  0.3842000000000  0.5326530000000 1.0
C      1  0.4496950000000  0.4906700000000  0.5411950000000 1.0
C      1  0.5869070000000  0.4378950000000  0.5038170000000 1.0
C      1  0.4988740000000  0.5638800000000  0.4114490000000 1.0
END
