TITL C-612600-6631-377 6.93832587982947e-05 125000 -393.34960609474 0 0 65 (C1) n - 1
REM
REM in /home/nfs/bkarasulu/CARBON/AIRSS/Generating-Clusters/TERSOFF/Only-C1/FIRE-HFTN
REM
REM
REM
REM
REM
REM ./C.cell (11c1c37f851c82e70ff6c80c92926a4b)
REM AIRSS Version 0.9.1 bugfix July 2018 build 013d7b7c2542+ Fri, 06 Jul 2018 19:26:36 +0100
REM compiler GCC version 9.2.1 20190827 (Red Hat 9.2.1-1)
REM options -cpp -mtune=generic -march=x86-64 -g -O0 -fpre-include=/usr/include/finclude/math-vector-fortran.h
REM seed 339811757 -352895274 -357372906 -1787068714 -1463803574 -1586354346 -700269606 708239972 1509864977 1829213503 -1289681056 -1233107903 -1619873273 384963420 -117095046 866609942 1457984165 -954587957 -396918548 -1237444953 -487784180 -1983962940 185587415 262605851 -1762353899 844523053 -714296637 256045479 -817082880 1605520348 -435239233 -214181189 -768765623
REM
CELL 1.54180   50.00000   50.00000   50.00000   90.00000   90.00000   90.00000
LATT -1
SFAC C  
C      1  0.4714620000000  0.4775860000000  0.5674030000000 1.0
C      1  0.5442620000000  0.4537150000000  0.4374100000000 1.0
C      1  0.4915020000000  0.5381460000000  0.5755310000000 1.0
C      1  0.5119530000000  0.4218910000000  0.4714740000000 1.0
C      1  0.4779200000000  0.4468430000000  0.5327340000000 1.0
C      1  0.5072220000000  0.4967340000000  0.4512370000000 1.0
C      1  0.4506400000000  0.5323870000000  0.5485470000000 1.0
C      1  0.5537330000000  0.4780360000000  0.5370450000000 1.0
C      1  0.5108150000000  0.4265520000000  0.5010380000000 1.0
C      1  0.5213230000000  0.4775380000000  0.5738040000000 1.0
C      1  0.5485850000000  0.5147990000000  0.5078750000000 1.0
C      1  0.5804250000000  0.4828110000000  0.4929260000000 1.0
C      1  0.4552680000000  0.4448580000000  0.4612640000000 1.0
C      1  0.6112850000000  0.5332970000000  0.5711140000000 1.0
C      1  0.4118320000000  0.5709000000000  0.4670530000000 1.0
C      1  0.5020430000000  0.4684130000000  0.4619140000000 1.0
C      1  0.4922090000000  0.4680690000000  0.4907770000000 1.0
C      1  0.4968370000000  0.4638340000000  0.5725950000000 1.0
C      1  0.5176010000000  0.5334230000000  0.5727970000000 1.0
C      1  0.4051570000000  0.5829030000000  0.5158070000000 1.0
C      1  0.4367250000000  0.4822170000000  0.4973320000000 1.0
C      1  0.5790180000000  0.4907170000000  0.4443070000000 1.0
C      1  0.5271960000000  0.4474820000000  0.4613080000000 1.0
C      1  0.4775660000000  0.5552000000000  0.4418430000000 1.0
C      1  0.4662940000000  0.5265470000000  0.5715470000000 1.0
C      1  0.5465910000000  0.5703610000000  0.5105390000000 1.0
C      1  0.5866830000000  0.4975400000000  0.4694370000000 1.0
C      1  0.4432020000000  0.4596060000000  0.4819900000000 1.0
C      1  0.4777980000000  0.4551940000000  0.4467220000000 1.0
C      1  0.4273180000000  0.5496080000000  0.4574390000000 1.0
C      1  0.4903660000000  0.4453320000000  0.5078360000000 1.0
C      1  0.4613540000000  0.4699330000000  0.5405880000000 1.0
C      1  0.5140050000000  0.4995510000000  0.4238300000000 1.0
C      1  0.5011940000000  0.5470880000000  0.4544870000000 1.0
C      1  0.5012700000000  0.5206460000000  0.4656710000000 1.0
C      1  0.4562900000000  0.5161920000000  0.5257750000000 1.0
C      1  0.5635160000000  0.4720730000000  0.4324900000000 1.0
C      1  0.4158030000000  0.5710540000000  0.5371170000000 1.0
C      1  0.4988110000000  0.5210790000000  0.4938060000000 1.0
C      1  0.5352000000000  0.5724400000000  0.4863660000000 1.0
C      1  0.4455670000000  0.4199720000000  0.4550600000000 1.0
C      1  0.5066770000000  0.4879970000000  0.4006810000000 1.0
C      1  0.5369860000000  0.4368020000000  0.5091320000000 1.0
C      1  0.5609600000000  0.5390110000000  0.5525090000000 1.0
C      1  0.4786470000000  0.4535320000000  0.4186080000000 1.0
C      1  0.5647020000000  0.4930310000000  0.5146640000000 1.0
C      1  0.5749110000000  0.4558920000000  0.4866230000000 1.0
C      1  0.5487920000000  0.4466720000000  0.4843070000000 1.0
C      1  0.5869580000000  0.5367700000000  0.5624420000000 1.0
C      1  0.4509370000000  0.5545980000000  0.4431970000000 1.0
C      1  0.5405770000000  0.5211530000000  0.5619110000000 1.0
C      1  0.4035860000000  0.5831780000000  0.4892180000000 1.0
C      1  0.4902730000000  0.4667390000000  0.3983040000000 1.0
C      1  0.5228080000000  0.5206810000000  0.5074790000000 1.0
C      1  0.4940900000000  0.4404550000000  0.5558620000000 1.0
C      1  0.5201560000000  0.5649780000000  0.4654470000000 1.0
C      1  0.5405870000000  0.4922970000000  0.5587860000000 1.0
C      1  0.4317330000000  0.5527940000000  0.5479810000000 1.0
C      1  0.4748620000000  0.5254140000000  0.5070380000000 1.0
C      1  0.4489540000000  0.4884460000000  0.5227000000000 1.0
C      1  0.4218500000000  0.5238800000000  0.4673060000000 1.0
C      1  0.4232780000000  0.5028470000000  0.4835510000000 1.0
C      1  0.4630810000000  0.5002840000000  0.5811980000000 1.0
C      1  0.5459570000000  0.4509720000000  0.5318370000000 1.0
C      1  0.5547970000000  0.5590120000000  0.5333860000000 1.0
END
