TITL C-612604-1799-705 -30.6166255010078 125000 -1207.16988375386 0 0 199 (C1) n - 1
REM
REM in /home/nfs/bkarasulu/CARBON/AIRSS/Generating-Clusters/TERSOFF/Only-C1/FIRE-HFTN
REM
REM
REM
REM
REM
REM ./C.cell (11c1c37f851c82e70ff6c80c92926a4b)
REM AIRSS Version 0.9.1 bugfix July 2018 build 013d7b7c2542+ Fri, 06 Jul 2018 19:26:36 +0100
REM compiler GCC version 9.2.1 20190827 (Red Hat 9.2.1-1)
REM options -cpp -mtune=generic -march=x86-64 -g -O0 -fpre-include=/usr/include/finclude/math-vector-fortran.h
REM seed 1646153760 -356750750 -1102432018 -224510651 1505570648 -2067060103 -1170506188 -714445883 -598740916 1732219495 881497156 -212010481 -124870052 -1195653064 1825901391 -1606188992 983323919 456020602 303644421 -20196752 -1322570151 -1694217468 1254928779 -844707708 -594222829 1118204042 -2054931174 1046470418 543017443 226203901 -814740745 -1787090990 1907560191
REM
CELL 1.54180   50.00000   50.00000   50.00000   90.00000   90.00000   90.00000
LATT -1
SFAC C  
C      1  0.3499310000000  0.5142180000000  0.4975230000000 1.0
C      1  0.4627940000000  0.5952610000000  0.4282920000000 1.0
C      1  0.4792090000000  0.4968320000000  0.5807000000000 1.0
C      1  0.5514350000000  0.4538250000000  0.4961700000000 1.0
C      1  0.4059660000000  0.5294670000000  0.6133970000000 1.0
C      1  0.4330710000000  0.4910170000000  0.5981210000000 1.0
C      1  0.4898680000000  0.6141140000000  0.4738320000000 1.0
C      1  0.4982170000000  0.5016820000000  0.4111110000000 1.0
C      1  0.5552610000000  0.5188750000000  0.4169940000000 1.0
C      1  0.5818930000000  0.4596370000000  0.5683080000000 1.0
C      1  0.5856020000000  0.5116260000000  0.6230370000000 1.0
C      1  0.3743940000000  0.5193620000000  0.5068790000000 1.0
C      1  0.5321470000000  0.4716000000000  0.3994260000000 1.0
C      1  0.4326380000000  0.5454130000000  0.4009510000000 1.0
C      1  0.5592640000000  0.6154750000000  0.5270230000000 1.0
C      1  0.3956050000000  0.5662460000000  0.5340440000000 1.0
C      1  0.5651100000000  0.5766350000000  0.4968410000000 1.0
C      1  0.4392080000000  0.4470220000000  0.5210620000000 1.0
C      1  0.4673720000000  0.4596990000000  0.4841890000000 1.0
C      1  0.5311970000000  0.4451310000000  0.5603560000000 1.0
C      1  0.5064170000000  0.4165390000000  0.4613040000000 1.0
C      1  0.5062500000000  0.5895200000000  0.6064210000000 1.0
C      1  0.4563740000000  0.4422580000000  0.5976960000000 1.0
C      1  0.4630130000000  0.5232520000000  0.6205260000000 1.0
C      1  0.4002790000000  0.4710170000000  0.4966260000000 1.0
C      1  0.5674050000000  0.4417050000000  0.4021480000000 1.0
C      1  0.5530140000000  0.3973770000000  0.4614700000000 1.0
C      1  0.5663480000000  0.4580530000000  0.5922400000000 1.0
C      1  0.5428590000000  0.5378340000000  0.4350090000000 1.0
C      1  0.4780550000000  0.5436860000000  0.6290260000000 1.0
C      1  0.6211880000000  0.5852830000000  0.4224510000000 1.0
C      1  0.4958090000000  0.4078820000000  0.5786580000000 1.0
C      1  0.5059000000000  0.5473700000000  0.6315620000000 1.0
C      1  0.5057410000000  0.5440660000000  0.5595530000000 1.0
C      1  0.4500410000000  0.4110700000000  0.4169000000000 1.0
C      1  0.4936270000000  0.4993130000000  0.3816350000000 1.0
C      1  0.4762780000000  0.4238780000000  0.5908810000000 1.0
C      1  0.4710370000000  0.5391710000000  0.4352180000000 1.0
C      1  0.5375190000000  0.5168730000000  0.4758880000000 1.0
C      1  0.4362620000000  0.4405620000000  0.4521190000000 1.0
C      1  0.5187680000000  0.4994750000000  0.6337920000000 1.0
C      1  0.5443230000000  0.6113110000000  0.5508130000000 1.0
C      1  0.5172040000000  0.4004430000000  0.5586120000000 1.0
C      1  0.6040470000000  0.5156020000000  0.4918010000000 1.0
C      1  0.5007270000000  0.4355360000000  0.3721300000000 1.0
C      1  0.5615760000000  0.5195750000000  0.5172900000000 1.0
C      1  0.3854880000000  0.4914840000000  0.5601690000000 1.0
C      1  0.6153420000000  0.5009870000000  0.4706360000000 1.0
C      1  0.5260400000000  0.4271440000000  0.3768390000000 1.0
C      1  0.5723590000000  0.6038400000000  0.5039340000000 1.0
C      1  0.4495740000000  0.4714340000000  0.5053220000000 1.0
C      1  0.6255880000000  0.5149430000000  0.4488660000000 1.0
C      1  0.5527290000000  0.4745690000000  0.6108090000000 1.0
C      1  0.6125520000000  0.5642760000000  0.4385670000000 1.0
C      1  0.5435160000000  0.5592330000000  0.6009250000000 1.0
C      1  0.3693630000000  0.4812400000000  0.4447790000000 1.0
C      1  0.4338340000000  0.4615810000000  0.5931740000000 1.0
C      1  0.3986760000000  0.5228560000000  0.5201490000000 1.0
C      1  0.4783410000000  0.5998920000000  0.5349130000000 1.0
C      1  0.5085660000000  0.5303580000000  0.5339810000000 1.0
C      1  0.5057320000000  0.5983450000000  0.5797070000000 1.0
C      1  0.4477240000000  0.5942400000000  0.4527250000000 1.0
C      1  0.4938640000000  0.4204450000000  0.4363920000000 1.0
C      1  0.3986850000000  0.5456860000000  0.6324510000000 1.0
C      1  0.4228030000000  0.4283110000000  0.4748780000000 1.0
C      1  0.4624050000000  0.5398730000000  0.4621640000000 1.0
C      1  0.5247100000000  0.4834810000000  0.6114760000000 1.0
C      1  0.5927670000000  0.4265330000000  0.5048160000000 1.0
C      1  0.5858360000000  0.5816080000000  0.5924360000000 1.0
C      1  0.4525920000000  0.5608130000000  0.5034330000000 1.0
C      1  0.4235240000000  0.5595850000000  0.4244450000000 1.0
C      1  0.5439680000000  0.4997410000000  0.5309870000000 1.0
C      1  0.5333290000000  0.4538210000000  0.4747630000000 1.0
C      1  0.3982450000000  0.4164690000000  0.4706730000000 1.0
C      1  0.5461870000000  0.5664100000000  0.5161330000000 1.0
C      1  0.4859080000000  0.5031580000000  0.4772220000000 1.0
C      1  0.5743210000000  0.4327470000000  0.4293590000000 1.0
C      1  0.5907660000000  0.6181480000000  0.4896360000000 1.0
C      1  0.5453100000000  0.5833600000000  0.5606770000000 1.0
C      1  0.4475750000000  0.5236310000000  0.3839880000000 1.0
C      1  0.5191990000000  0.4842470000000  0.3762630000000 1.0
C      1  0.6248820000000  0.5391160000000  0.4376370000000 1.0
C      1  0.5681850000000  0.4040760000000  0.3714630000000 1.0
C      1  0.4304780000000  0.6025670000000  0.5438660000000 1.0
C      1  0.5674930000000  0.4155460000000  0.5552960000000 1.0
C      1  0.4970770000000  0.4481940000000  0.4283540000000 1.0
C      1  0.4918610000000  0.5554030000000  0.4248470000000 1.0
C      1  0.5108500000000  0.4380310000000  0.4783260000000 1.0
C      1  0.5538110000000  0.4241850000000  0.3834240000000 1.0
C      1  0.5395710000000  0.4185280000000  0.5585500000000 1.0
C      1  0.5314860000000  0.3874280000000  0.5104790000000 1.0
C      1  0.4157830000000  0.5012230000000  0.4476640000000 1.0
C      1  0.4287950000000  0.5494870000000  0.4934890000000 1.0
C      1  0.3982590000000  0.4879730000000  0.4055260000000 1.0
C      1  0.5063400000000  0.5574010000000  0.4935110000000 1.0
C      1  0.4561330000000  0.3854730000000  0.4788220000000 1.0
C      1  0.4355210000000  0.4244380000000  0.5013770000000 1.0
C      1  0.4821700000000  0.3480280000000  0.5263550000000 1.0
C      1  0.4270580000000  0.4510330000000  0.4036530000000 1.0
C      1  0.5817090000000  0.4854680000000  0.5566060000000 1.0
C      1  0.6289950000000  0.6051720000000  0.4075290000000 1.0
C      1  0.4435840000000  0.4926340000000  0.3823070000000 1.0
C      1  0.4770130000000  0.3225990000000  0.5239390000000 1.0
C      1  0.3930400000000  0.4905990000000  0.4336460000000 1.0
C      1  0.4246420000000  0.5255630000000  0.5097860000000 1.0
C      1  0.4199790000000  0.4557890000000  0.5683330000000 1.0
C      1  0.5421290000000  0.4610100000000  0.4485540000000 1.0
C      1  0.5971560000000  0.5576180000000  0.6033540000000 1.0
C      1  0.5056970000000  0.4809960000000  0.5894470000000 1.0
C      1  0.4253710000000  0.4824540000000  0.4921810000000 1.0
C      1  0.5045360000000  0.6524910000000  0.4386130000000 1.0
C      1  0.4615170000000  0.6068020000000  0.4751170000000 1.0
C      1  0.5150620000000  0.4635170000000  0.5700170000000 1.0
C      1  0.5609320000000  0.4710950000000  0.3994400000000 1.0
C      1  0.5424450000000  0.3901100000000  0.4856740000000 1.0
C      1  0.5715130000000  0.4976180000000  0.4049880000000 1.0
C      1  0.5552910000000  0.5438750000000  0.5326160000000 1.0
C      1  0.5534610000000  0.5373420000000  0.4631420000000 1.0
C      1  0.4721210000000  0.4179670000000  0.5407210000000 1.0
C      1  0.5875920000000  0.4359520000000  0.5526020000000 1.0
C      1  0.5115320000000  0.5579530000000  0.4661190000000 1.0
C      1  0.4093620000000  0.5866740000000  0.5481080000000 1.0
C      1  0.4942610000000  0.5409330000000  0.5127120000000 1.0
C      1  0.3961910000000  0.5376640000000  0.5451640000000 1.0
C      1  0.4973490000000  0.6341460000000  0.4556710000000 1.0
C      1  0.4510280000000  0.5181330000000  0.5217160000000 1.0
C      1  0.5987100000000  0.4960630000000  0.5365680000000 1.0
C      1  0.3924470000000  0.5728540000000  0.5033100000000 1.0
C      1  0.4593460000000  0.4804880000000  0.5542700000000 1.0
C      1  0.4109810000000  0.5671710000000  0.4800480000000 1.0
C      1  0.5825900000000  0.5333990000000  0.6059040000000 1.0
C      1  0.5558640000000  0.5284650000000  0.5648210000000 1.0
C      1  0.4524460000000  0.6072380000000  0.5271080000000 1.0
C      1  0.4488880000000  0.6124450000000  0.4996450000000 1.0
C      1  0.6297680000000  0.4627210000000  0.4963080000000 1.0
C      1  0.5197690000000  0.5659400000000  0.6152680000000 1.0
C      1  0.6140000000000  0.4729350000000  0.4744180000000 1.0
C      1  0.5188680000000  0.5248600000000  0.6421820000000 1.0
C      1  0.4915560000000  0.4496600000000  0.4938810000000 1.0
C      1  0.4510200000000  0.3998030000000  0.5026280000000 1.0
C      1  0.5104070000000  0.6035090000000  0.4908660000000 1.0
C      1  0.5136660000000  0.3857480000000  0.5332440000000 1.0
C      1  0.5889430000000  0.5117580000000  0.5147060000000 1.0
C      1  0.4768280000000  0.5255250000000  0.3762040000000 1.0
C      1  0.6033840000000  0.4070990000000  0.4871490000000 1.0
C      1  0.5707840000000  0.4895800000000  0.6268970000000 1.0
C      1  0.4598830000000  0.5144110000000  0.4269810000000 1.0
C      1  0.5995220000000  0.4031840000000  0.4605030000000 1.0
C      1  0.4589920000000  0.4570280000000  0.4574520000000 1.0
C      1  0.5694800000000  0.5600930000000  0.4729500000000 1.0
C      1  0.4794700000000  0.4524120000000  0.3717350000000 1.0
C      1  0.5231370000000  0.4605270000000  0.4252380000000 1.0
C      1  0.5025450000000  0.5856290000000  0.5341280000000 1.0
C      1  0.4700650000000  0.4789750000000  0.3765770000000 1.0
C      1  0.5128890000000  0.5054920000000  0.4764740000000 1.0
C      1  0.4655870000000  0.3850620000000  0.4537290000000 1.0
C      1  0.6268900000000  0.4516740000000  0.5211720000000 1.0
C      1  0.4320150000000  0.5004390000000  0.4715770000000 1.0
C      1  0.4339110000000  0.4331210000000  0.4241300000000 1.0
C      1  0.5168860000000  0.5515740000000  0.4383690000000 1.0
C      1  0.5183300000000  0.5798850000000  0.5092780000000 1.0
C      1  0.4881980000000  0.4391170000000  0.5390710000000 1.0
C      1  0.5581240000000  0.5791520000000  0.5855140000000 1.0
C      1  0.4128640000000  0.5123700000000  0.5920530000000 1.0
C      1  0.6046950000000  0.4354930000000  0.5295180000000 1.0
C      1  0.4903610000000  0.5258110000000  0.5752730000000 1.0
C      1  0.4590260000000  0.5020420000000  0.6025580000000 1.0
C      1  0.4972530000000  0.4573940000000  0.5201990000000 1.0
C      1  0.5752060000000  0.4083440000000  0.4461920000000 1.0
C      1  0.5213400000000  0.6209850000000  0.5670100000000 1.0
C      1  0.5779980000000  0.4471050000000  0.4921740000000 1.0
C      1  0.6001300000000  0.6045630000000  0.5891450000000 1.0
C      1  0.4761620000000  0.4661880000000  0.4366400000000 1.0
C      1  0.4240160000000  0.5752030000000  0.4520070000000 1.0
C      1  0.4719710000000  0.4024410000000  0.4321650000000 1.0
C      1  0.4219220000000  0.4770970000000  0.3939350000000 1.0
C      1  0.4674110000000  0.3952830000000  0.5251750000000 1.0
C      1  0.5891330000000  0.4595780000000  0.4687100000000 1.0
C      1  0.4590900000000  0.5135100000000  0.4733360000000 1.0
C      1  0.3944180000000  0.4661000000000  0.5628760000000 1.0
C      1  0.5971500000000  0.5033920000000  0.3969730000000 1.0
C      1  0.5143300000000  0.5747330000000  0.5599770000000 1.0
C      1  0.4403500000000  0.4579440000000  0.5486130000000 1.0
C      1  0.4774370000000  0.4926680000000  0.4275050000000 1.0
C      1  0.5911240000000  0.5674260000000  0.4563600000000 1.0
C      1  0.5711250000000  0.4561840000000  0.4463180000000 1.0
C      1  0.4947340000000  0.4856110000000  0.5244930000000 1.0
C      1  0.4673000000000  0.5414140000000  0.5169730000000 1.0
C      1  0.4827390000000  0.5809660000000  0.4169010000000 1.0
C      1  0.5571800000000  0.5354960000000  0.5922680000000 1.0
C      1  0.5569840000000  0.5000200000000  0.5572770000000 1.0
C      1  0.4643180000000  0.4913710000000  0.5258070000000 1.0
C      1  0.3407340000000  0.4948950000000  0.4811900000000 1.0
C      1  0.3582640000000  0.4759620000000  0.4698950000000 1.0
C      1  0.3978940000000  0.5166750000000  0.5670050000000 1.0
C      1  0.4873780000000  0.3752570000000  0.5279670000000 1.0
C      1  0.3759480000000  0.4638420000000  0.4882210000000 1.0
C      1  0.5160540000000  0.5033070000000  0.5302480000000 1.0
C      1  0.4328510000000  0.5117140000000  0.4282860000000 1.0
END
