TITL C-612603-7354-519 3.69258457841247e-06 125000 -629.673161124248 0 0 103 (C1) n - 1
REM
REM in /home/nfs/bkarasulu/CARBON/AIRSS/Generating-Clusters/TERSOFF/Only-C1/FIRE-HFTN
REM
REM
REM
REM
REM
REM ./C.cell (11c1c37f851c82e70ff6c80c92926a4b)
REM AIRSS Version 0.9.1 bugfix July 2018 build 013d7b7c2542+ Fri, 06 Jul 2018 19:26:36 +0100
REM compiler GCC version 9.2.1 20190827 (Red Hat 9.2.1-1)
REM options -cpp -mtune=generic -march=x86-64 -g -O0 -fpre-include=/usr/include/finclude/math-vector-fortran.h
REM seed -1472456856 378744897 1471139944 1423164124 830712302 -777942706 1668717506 -1792925417 1379091091 273241041 -243187549 -1942174853 1235222206 -1684008967 1938930915 899482587 1682027157 321018537 -642799197 -1632743436 -1573076432 1781404612 1747446074 415998480 -1763718512 307663202 1086504971 1623174192 453283011 -1793360650 1422175765 -58958 1866607494
REM
CELL 1.54180   50.00000   50.00000   50.00000   90.00000   90.00000   90.00000
LATT -1
SFAC C  
C      1  0.4926920000000  0.5781350000000  0.5679110000000 1.0
C      1  0.5479020000000  0.5550810000000  0.5773340000000 1.0
C      1  0.4871500000000  0.4752870000000  0.5600230000000 1.0
C      1  0.4348260000000  0.5069120000000  0.5292930000000 1.0
C      1  0.4964830000000  0.4718490000000  0.5136300000000 1.0
C      1  0.4753770000000  0.5702600000000  0.4939300000000 1.0
C      1  0.4206230000000  0.4667890000000  0.5412160000000 1.0
C      1  0.4121640000000  0.5067420000000  0.4739150000000 1.0
C      1  0.5649300000000  0.5521670000000  0.5564570000000 1.0
C      1  0.4762620000000  0.4452910000000  0.4666130000000 1.0
C      1  0.4584700000000  0.4406890000000  0.4445250000000 1.0
C      1  0.4695110000000  0.5192300000000  0.5024370000000 1.0
C      1  0.4864930000000  0.4928300000000  0.4491080000000 1.0
C      1  0.5776560000000  0.4733080000000  0.5803930000000 1.0
C      1  0.4418200000000  0.4429130000000  0.4999500000000 1.0
C      1  0.5234010000000  0.5163690000000  0.5665670000000 1.0
C      1  0.4523140000000  0.5029030000000  0.6132050000000 1.0
C      1  0.5193910000000  0.4254480000000  0.5217150000000 1.0
C      1  0.5189630000000  0.5625580000000  0.4461180000000 1.0
C      1  0.5320970000000  0.4591170000000  0.4787120000000 1.0
C      1  0.4059800000000  0.5259310000000  0.4948850000000 1.0
C      1  0.4696040000000  0.4341770000000  0.4926790000000 1.0
C      1  0.4199120000000  0.5528910000000  0.4945110000000 1.0
C      1  0.5587700000000  0.5696840000000  0.4916660000000 1.0
C      1  0.4302880000000  0.5569480000000  0.5215430000000 1.0
C      1  0.5199630000000  0.3953120000000  0.4834810000000 1.0
C      1  0.5304250000000  0.4905080000000  0.5755370000000 1.0
C      1  0.5106540000000  0.5115560000000  0.4508110000000 1.0
C      1  0.4303990000000  0.4599310000000  0.4795660000000 1.0
C      1  0.4619180000000  0.5054300000000  0.4438020000000 1.0
C      1  0.5616000000000  0.4198200000000  0.4880410000000 1.0
C      1  0.4640410000000  0.5098790000000  0.5893820000000 1.0
C      1  0.5200300000000  0.5047020000000  0.4808810000000 1.0
C      1  0.4761880000000  0.5353990000000  0.5872020000000 1.0
C      1  0.4468460000000  0.4982280000000  0.4207700000000 1.0
C      1  0.5884090000000  0.5360860000000  0.4885020000000 1.0
C      1  0.4817070000000  0.4618480000000  0.5357320000000 1.0
C      1  0.5327540000000  0.5782860000000  0.4991730000000 1.0
C      1  0.5088000000000  0.4762680000000  0.4871330000000 1.0
C      1  0.4686270000000  0.5827610000000  0.4717710000000 1.0
C      1  0.4567200000000  0.5548730000000  0.5311320000000 1.0
C      1  0.5905050000000  0.5079830000000  0.4938170000000 1.0
C      1  0.5581580000000  0.4401390000000  0.5503340000000 1.0
C      1  0.4890230000000  0.4704080000000  0.4658440000000 1.0
C      1  0.4635530000000  0.4908590000000  0.5679180000000 1.0
C      1  0.4815220000000  0.4644950000000  0.4052100000000 1.0
C      1  0.4753320000000  0.5469910000000  0.4349530000000 1.0
C      1  0.5170510000000  0.5622960000000  0.5167270000000 1.0
C      1  0.5644740000000  0.5595330000000  0.4661100000000 1.0
C      1  0.4489000000000  0.5006520000000  0.5046760000000 1.0
C      1  0.5507800000000  0.5286450000000  0.4306410000000 1.0
C      1  0.3969840000000  0.4824850000000  0.5296480000000 1.0
C      1  0.5709640000000  0.4464340000000  0.5745500000000 1.0
C      1  0.5670180000000  0.4405970000000  0.4367320000000 1.0
C      1  0.5551170000000  0.4878740000000  0.5886650000000 1.0
C      1  0.5659890000000  0.4934750000000  0.4903540000000 1.0
C      1  0.5433240000000  0.5097560000000  0.4969700000000 1.0
C      1  0.4694140000000  0.5371370000000  0.4816100000000 1.0
C      1  0.4725180000000  0.5775220000000  0.5218600000000 1.0
C      1  0.4320510000000  0.4881480000000  0.4841760000000 1.0
C      1  0.5649210000000  0.5408010000000  0.5306130000000 1.0
C      1  0.5286730000000  0.4356370000000  0.4613720000000 1.0
C      1  0.3715650000000  0.4731420000000  0.5277080000000 1.0
C      1  0.4065420000000  0.5094630000000  0.5208450000000 1.0
C      1  0.5153330000000  0.4688110000000  0.5643710000000 1.0
C      1  0.4392330000000  0.4885130000000  0.5509410000000 1.0
C      1  0.4653180000000  0.5617100000000  0.4146030000000 1.0
C      1  0.5555630000000  0.4611600000000  0.4229070000000 1.0
C      1  0.4323620000000  0.4486740000000  0.4531090000000 1.0
C      1  0.5981230000000  0.4853770000000  0.5651370000000 1.0
C      1  0.4191440000000  0.5018900000000  0.4238460000000 1.0
C      1  0.5042630000000  0.5846410000000  0.4590230000000 1.0
C      1  0.5339410000000  0.5052890000000  0.4318580000000 1.0
C      1  0.5187700000000  0.5951300000000  0.4808500000000 1.0
C      1  0.6068600000000  0.4993270000000  0.5152970000000 1.0
C      1  0.5371430000000  0.4090150000000  0.5026380000000 1.0
C      1  0.4915330000000  0.4255180000000  0.5103550000000 1.0
C      1  0.5339100000000  0.4794390000000  0.4189040000000 1.0
C      1  0.6079200000000  0.4928730000000  0.5413270000000 1.0
C      1  0.5125730000000  0.4120120000000  0.4628580000000 1.0
C      1  0.5219170000000  0.5208360000000  0.5387620000000 1.0
C      1  0.4055530000000  0.5066480000000  0.4467020000000 1.0
C      1  0.4614700000000  0.4424510000000  0.5398860000000 1.0
C      1  0.5764720000000  0.5529750000000  0.5080750000000 1.0
C      1  0.5452600000000  0.5207690000000  0.5232650000000 1.0
C      1  0.5569520000000  0.4261110000000  0.4592010000000 1.0
C      1  0.5295070000000  0.4427550000000  0.5455470000000 1.0
C      1  0.5469510000000  0.5535470000000  0.4451380000000 1.0
C      1  0.5752710000000  0.4411680000000  0.5280730000000 1.0
C      1  0.5589490000000  0.4661430000000  0.4888770000000 1.0
C      1  0.5094950000000  0.4703800000000  0.4065890000000 1.0
C      1  0.4703430000000  0.4421640000000  0.4189980000000 1.0
C      1  0.4339700000000  0.5717720000000  0.4730650000000 1.0
C      1  0.4613170000000  0.5318830000000  0.4548230000000 1.0
C      1  0.5233240000000  0.5414040000000  0.5806920000000 1.0
C      1  0.5037450000000  0.5397180000000  0.5287420000000 1.0
C      1  0.4761010000000  0.5332090000000  0.5264990000000 1.0
C      1  0.4856290000000  0.5893270000000  0.5440610000000 1.0
C      1  0.4358350000000  0.4460050000000  0.5280050000000 1.0
C      1  0.5023420000000  0.5404060000000  0.4409210000000 1.0
C      1  0.4620690000000  0.4849980000000  0.4009010000000 1.0
C      1  0.5716740000000  0.4434730000000  0.5007730000000 1.0
C      1  0.4973270000000  0.5536140000000  0.5818030000000 1.0
END
