TITL C-612606-7351-876 10814.7133555566 125000 -1215.67005276356 0 0 199 (C1) n - 1
REM
REM in /home/nfs/bkarasulu/CARBON/AIRSS/Generating-Clusters/TERSOFF/Only-C1/FIRE-HFTN
REM
REM
REM
REM
REM
REM ./C.cell (11c1c37f851c82e70ff6c80c92926a4b)
REM AIRSS Version 0.9.1 bugfix July 2018 build 013d7b7c2542+ Fri, 06 Jul 2018 19:26:36 +0100
REM compiler GCC version 9.2.1 20190827 (Red Hat 9.2.1-1)
REM options -cpp -mtune=generic -march=x86-64 -g -O0 -fpre-include=/usr/include/finclude/math-vector-fortran.h
REM seed -292104404 401987211 -1719956097 1528510899 -1144970045 1528105156 47225674 1912657720 1869983709 867123765 -106612550 -78276406 -2140816383 -974211336 -1426398753 -1939600202 -1855035866 1910212892 1620439922 1709376072 -292313501 1402234647 427957105 -709151329 -898915163 -1876180226 -1632787555 404971689 817286566 -1397949792 469324941 115861959 102687037
REM
CELL 1.54180   50.00000   50.00000   50.00000   90.00000   90.00000   90.00000
LATT -1
SFAC C  
C      1  0.5891320000000  0.5047520000000  0.6229060000000 1.0
C      1  0.4869400000000  0.6040880000000  0.4991040000000 1.0
C      1  0.5597960000000  0.5618440000000  0.5670840000000 1.0
C      1  0.4952360000000  0.4833350000000  0.4390360000000 1.0
C      1  0.4855410000000  0.5220390000000  0.5469350000000 1.0
C      1  0.4389180000000  0.6081770000000  0.4871380000000 1.0
C      1  0.5041170000000  0.6117670000000  0.5654180000000 1.0
C      1  0.5793730000000  0.4273450000000  0.5598650000000 1.0
C      1  0.4866380000000  0.3861750000000  0.4934550000000 1.0
C      1  0.5144490000000  0.3924700000000  0.5012700000000 1.0
C      1  0.4471520000000  0.4829980000000  0.4275820000000 1.0
C      1  0.5366190000000  0.4935930000000  0.5807430000000 1.0
C      1  0.6060570000000  0.5246440000000  0.5249620000000 1.0
C      1  0.5355410000000  0.3936110000000  0.4563580000000 1.0
C      1  0.5251180000000  0.5160710000000  0.4323020000000 1.0
C      1  0.4668720000000  0.6139490000000  0.4812730000000 1.0
C      1  0.4998150000000  0.4087880000000  0.4237680000000 1.0
C      1  0.5543500000000  0.5239560000000  0.5161990000000 1.0
C      1  0.4976800000000  0.5081140000000  0.4222680000000 1.0
C      1  0.4687410000000  0.4595030000000  0.5807430000000 1.0
C      1  0.6030620000000  0.4187910000000  0.4773260000000 1.0
C      1  0.4002620000000  0.5059540000000  0.4369640000000 1.0
C      1  0.5353370000000  0.4133620000000  0.5417930000000 1.0
C      1  0.4286950000000  0.4898540000000  0.4909170000000 1.0
C      1  0.4641670000000  0.5955130000000  0.4392620000000 1.0
C      1  0.5404400000000  0.5571850000000  0.5881530000000 1.0
C      1  0.4316200000000  0.5671260000000  0.5445380000000 1.0
C      1  0.5874810000000  0.4474210000000  0.4244900000000 1.0
C      1  0.4237240000000  0.4493090000000  0.4569810000000 1.0
C      1  0.4595060000000  0.5257340000000  0.4486250000000 1.0
C      1  0.4663550000000  0.4019360000000  0.5102090000000 1.0
C      1  0.4896900000000  0.4544780000000  0.5372700000000 1.0
C      1  0.4518660000000  0.5610560000000  0.4771050000000 1.0
C      1  0.5697960000000  0.4871760000000  0.4744330000000 1.0
C      1  0.4675240000000  0.4478690000000  0.5545750000000 1.0
C      1  0.5548790000000  0.5765990000000  0.4027790000000 1.0
C      1  0.4502190000000  0.4983640000000  0.5601840000000 1.0
C      1  0.4323200000000  0.4626940000000  0.4822630000000 1.0
C      1  0.5652790000000  0.4651960000000  0.4248350000000 1.0
C      1  0.5189290000000  0.4714010000000  0.4480010000000 1.0
C      1  0.5843790000000  0.4949300000000  0.5977220000000 1.0
C      1  0.4545230000000  0.6125390000000  0.5525470000000 1.0
C      1  0.4667380000000  0.4799420000000  0.3979400000000 1.0
C      1  0.5353410000000  0.5140960000000  0.5361490000000 1.0
C      1  0.5076830000000  0.3926750000000  0.4491850000000 1.0
C      1  0.5788690000000  0.5899040000000  0.4448060000000 1.0
C      1  0.5182840000000  0.5712580000000  0.4684330000000 1.0
C      1  0.6059890000000  0.4348560000000  0.5534190000000 1.0
C      1  0.6245190000000  0.5012940000000  0.5217610000000 1.0
C      1  0.5821540000000  0.5152870000000  0.5102530000000 1.0
C      1  0.5600900000000  0.6034250000000  0.4976050000000 1.0
C      1  0.4380030000000  0.5947480000000  0.4285690000000 1.0
C      1  0.5973570000000  0.5483360000000  0.5379850000000 1.0
C      1  0.5107280000000  0.6193510000000  0.5019240000000 1.0
C      1  0.5142170000000  0.4538750000000  0.4931610000000 1.0
C      1  0.4204600000000  0.5785200000000  0.4446930000000 1.0
C      1  0.5186950000000  0.5297500000000  0.6226840000000 1.0
C      1  0.4900130000000  0.4370320000000  0.4285470000000 1.0
C      1  0.4377920000000  0.3631650000000  0.5548310000000 1.0
C      1  0.5294350000000  0.4155330000000  0.4135100000000 1.0
C      1  0.4915680000000  0.4946600000000  0.3954280000000 1.0
C      1  0.4324920000000  0.5360370000000  0.4137660000000 1.0
C      1  0.4786810000000  0.5037150000000  0.6012560000000 1.0
C      1  0.5612980000000  0.4687550000000  0.5181620000000 1.0
C      1  0.3407660000000  0.5244200000000  0.5783660000000 1.0
C      1  0.6171670000000  0.4826490000000  0.5422350000000 1.0
C      1  0.4371920000000  0.5466390000000  0.5871010000000 1.0
C      1  0.4558950000000  0.4562120000000  0.3870310000000 1.0
C      1  0.4952700000000  0.5179100000000  0.6167870000000 1.0
C      1  0.5570500000000  0.4367430000000  0.4794450000000 1.0
C      1  0.5513550000000  0.5843000000000  0.5465000000000 1.0
C      1  0.4582780000000  0.5261080000000  0.5130960000000 1.0
C      1  0.5202750000000  0.4374250000000  0.6092690000000 1.0
C      1  0.5025290000000  0.4793150000000  0.5399160000000 1.0
C      1  0.5375740000000  0.6206800000000  0.5025560000000 1.0
C      1  0.4965570000000  0.5636810000000  0.5600780000000 1.0
C      1  0.5468030000000  0.4956560000000  0.5549210000000 1.0
C      1  0.5350480000000  0.4387530000000  0.3980760000000 1.0
C      1  0.4608510000000  0.5417930000000  0.4058580000000 1.0
C      1  0.4848380000000  0.3819010000000  0.4645810000000 1.0
C      1  0.4296350000000  0.5831270000000  0.4737260000000 1.0
C      1  0.4721550000000  0.4453870000000  0.6049950000000 1.0
C      1  0.4728590000000  0.4933130000000  0.4772470000000 1.0
C      1  0.5768460000000  0.5719170000000  0.4209100000000 1.0
C      1  0.4536340000000  0.3854480000000  0.5559610000000 1.0
C      1  0.5622220000000  0.3828180000000  0.4988850000000 1.0
C      1  0.4325040000000  0.4555630000000  0.4296770000000 1.0
C      1  0.4386270000000  0.4539400000000  0.6463060000000 1.0
C      1  0.5756460000000  0.4231140000000  0.4374140000000 1.0
C      1  0.4175340000000  0.4499810000000  0.5426330000000 1.0
C      1  0.3986840000000  0.4491550000000  0.5201450000000 1.0
C      1  0.4522730000000  0.6304500000000  0.5294200000000 1.0
C      1  0.4508690000000  0.5094060000000  0.4897140000000 1.0
C      1  0.5163310000000  0.4141030000000  0.5204260000000 1.0
C      1  0.4778610000000  0.5589650000000  0.3911330000000 1.0
C      1  0.4303470000000  0.5951600000000  0.5486260000000 1.0
C      1  0.5660460000000  0.4411450000000  0.5827960000000 1.0
C      1  0.6188890000000  0.4928980000000  0.4943650000000 1.0
C      1  0.3723200000000  0.5136100000000  0.5377540000000 1.0
C      1  0.4868990000000  0.4012970000000  0.5956660000000 1.0
C      1  0.5630030000000  0.4834130000000  0.4472770000000 1.0
C      1  0.4129690000000  0.6085600000000  0.5294150000000 1.0
C      1  0.5301750000000  0.4467570000000  0.4702840000000 1.0
C      1  0.5032340000000  0.5685250000000  0.3896550000000 1.0
C      1  0.5889250000000  0.5681470000000  0.5180300000000 1.0
C      1  0.3558830000000  0.5190470000000  0.5578190000000 1.0
C      1  0.4754120000000  0.5271340000000  0.4260060000000 1.0
C      1  0.4229830000000  0.4985900000000  0.5689630000000 1.0
C      1  0.4124700000000  0.4727090000000  0.5609540000000 1.0
C      1  0.5922160000000  0.4911820000000  0.5530440000000 1.0
C      1  0.4505720000000  0.4123590000000  0.4087960000000 1.0
C      1  0.5392670000000  0.4306710000000  0.5890520000000 1.0
C      1  0.5372950000000  0.4926890000000  0.4434760000000 1.0
C      1  0.4712340000000  0.4300770000000  0.4996410000000 1.0
C      1  0.5822820000000  0.5420860000000  0.5628380000000 1.0
C      1  0.4645310000000  0.5904610000000  0.5944990000000 1.0
C      1  0.4936380000000  0.4266180000000  0.6062320000000 1.0
C      1  0.4417370000000  0.5321440000000  0.4713570000000 1.0
C      1  0.4020590000000  0.5038560000000  0.4918170000000 1.0
C      1  0.5500420000000  0.4077400000000  0.4337370000000 1.0
C      1  0.5206190000000  0.4820440000000  0.4951450000000 1.0
C      1  0.4765520000000  0.5457390000000  0.5586540000000 1.0
C      1  0.4487430000000  0.5518430000000  0.5610000000000 1.0
C      1  0.6047310000000  0.4949700000000  0.4154270000000 1.0
C      1  0.4839090000000  0.6407440000000  0.4431610000000 1.0
C      1  0.3849770000000  0.4816570000000  0.4792450000000 1.0
C      1  0.5386360000000  0.5383830000000  0.4410140000000 1.0
C      1  0.5075790000000  0.5074610000000  0.5389380000000 1.0
C      1  0.6086210000000  0.4671950000000  0.4188230000000 1.0
C      1  0.4673080000000  0.4878400000000  0.5809660000000 1.0
C      1  0.4741820000000  0.4292240000000  0.4709420000000 1.0
C      1  0.5856000000000  0.5172700000000  0.4105140000000 1.0
C      1  0.5877860000000  0.5122150000000  0.5736130000000 1.0
C      1  0.5032370000000  0.5771480000000  0.5360600000000 1.0
C      1  0.4305280000000  0.6217840000000  0.5107400000000 1.0
C      1  0.4970530000000  0.5633810000000  0.4531500000000 1.0
C      1  0.5916630000000  0.4989100000000  0.4874450000000 1.0
C      1  0.5637740000000  0.4431350000000  0.5067220000000 1.0
C      1  0.5306430000000  0.4844170000000  0.6049970000000 1.0
C      1  0.5676240000000  0.4807810000000  0.5429820000000 1.0
C      1  0.4709090000000  0.5712030000000  0.4538390000000 1.0
C      1  0.4748560000000  0.6070790000000  0.5724050000000 1.0
C      1  0.3898960000000  0.5090350000000  0.5184400000000 1.0
C      1  0.4707890000000  0.3956050000000  0.4197550000000 1.0
C      1  0.6173960000000  0.5635840000000  0.4778980000000 1.0
C      1  0.4262510000000  0.5062380000000  0.4220190000000 1.0
C      1  0.5143400000000  0.5647090000000  0.5811900000000 1.0
C      1  0.5705510000000  0.5472820000000  0.4773870000000 1.0
C      1  0.4650570000000  0.3794620000000  0.4437160000000 1.0
C      1  0.5493120000000  0.4839100000000  0.4957910000000 1.0
C      1  0.5773100000000  0.4662280000000  0.5936210000000 1.0
C      1  0.4549680000000  0.4489870000000  0.6266210000000 1.0
C      1  0.4725510000000  0.6184920000000  0.4536940000000 1.0
C      1  0.4482930000000  0.5691900000000  0.6023090000000 1.0
C      1  0.4077040000000  0.4262620000000  0.4596150000000 1.0
C      1  0.3849420000000  0.4596070000000  0.4985740000000 1.0
C      1  0.4145370000000  0.5569550000000  0.5245000000000 1.0
C      1  0.5269400000000  0.4167470000000  0.5679200000000 1.0
C      1  0.4852450000000  0.5783360000000  0.5134460000000 1.0
C      1  0.3998450000000  0.5328130000000  0.4491720000000 1.0
C      1  0.4514980000000  0.4055910000000  0.5356340000000 1.0
C      1  0.5383250000000  0.3875110000000  0.4845760000000 1.0
C      1  0.5484760000000  0.5422070000000  0.4955070000000 1.0
C      1  0.5656070000000  0.5400270000000  0.4503230000000 1.0
C      1  0.4573510000000  0.4494930000000  0.3606600000000 1.0
C      1  0.5429770000000  0.4886830000000  0.3886490000000 1.0
C      1  0.5229710000000  0.5961920000000  0.5470230000000 1.0
C      1  0.4146560000000  0.5523460000000  0.4329850000000 1.0
C      1  0.5822140000000  0.5428620000000  0.4265360000000 1.0
C      1  0.4720560000000  0.3889020000000  0.5771050000000 1.0
C      1  0.4666610000000  0.5560810000000  0.5047500000000 1.0
C      1  0.5733720000000  0.3924690000000  0.5215410000000 1.0
C      1  0.5641110000000  0.4106590000000  0.5410500000000 1.0
C      1  0.5347160000000  0.5921860000000  0.4604380000000 1.0
C      1  0.4979470000000  0.4382800000000  0.5133140000000 1.0
C      1  0.3956320000000  0.4032520000000  0.4615730000000 1.0
C      1  0.5679100000000  0.5874580000000  0.5216640000000 1.0
C      1  0.5477790000000  0.4637580000000  0.4022210000000 1.0
C      1  0.4051790000000  0.5510050000000  0.5000140000000 1.0
C      1  0.5632280000000  0.5089710000000  0.3932560000000 1.0
C      1  0.4424630000000  0.4395390000000  0.4069600000000 1.0
C      1  0.5250350000000  0.5555760000000  0.4903960000000 1.0
C      1  0.3851920000000  0.4859910000000  0.4507980000000 1.0
C      1  0.4436870000000  0.4334910000000  0.5447490000000 1.0
C      1  0.4989060000000  0.4979740000000  0.4879360000000 1.0
C      1  0.4698390000000  0.4768770000000  0.4509980000000 1.0
C      1  0.5293430000000  0.5740550000000  0.3941090000000 1.0
C      1  0.6220400000000  0.4552460000000  0.5460490000000 1.0
C      1  0.4740620000000  0.4465570000000  0.4499850000000 1.0
C      1  0.5931300000000  0.5601910000000  0.4900800000000 1.0
C      1  0.4100690000000  0.5311170000000  0.4776260000000 1.0
C      1  0.5791950000000  0.4251590000000  0.4656940000000 1.0
C      1  0.5621520000000  0.5971110000000  0.4678840000000 1.0
C      1  0.5402720000000  0.5422440000000  0.6120470000000 1.0
C      1  0.4607730000000  0.5113230000000  0.5372560000000 1.0
C      1  0.5158010000000  0.4926330000000  0.3803390000000 1.0
C      1  0.4204190000000  0.5225620000000  0.5860800000000 1.0
C      1  0.5238800000000  0.4631620000000  0.6198090000000 1.0
C      1  0.4475160000000  0.4477260000000  0.5009860000000 1.0
END
