TITL C-612604-1799-1058 1420.75380068747 125000 -834.947446567967 0 0 136 (C1) n - 1
REM
REM in /home/nfs/bkarasulu/CARBON/AIRSS/Generating-Clusters/TERSOFF/Only-C1/FIRE-HFTN
REM
REM
REM
REM
REM
REM ./C.cell (11c1c37f851c82e70ff6c80c92926a4b)
REM AIRSS Version 0.9.1 bugfix July 2018 build 013d7b7c2542+ Fri, 06 Jul 2018 19:26:36 +0100
REM compiler GCC version 9.2.1 20190827 (Red Hat 9.2.1-1)
REM options -cpp -mtune=generic -march=x86-64 -g -O0 -fpre-include=/usr/include/finclude/math-vector-fortran.h
REM seed 845764242 -213664480 -16288039 1748291979 1940711982 -1763885501 -2012247859 -484865256 1417419617 974560602 -657780548 -250354015 -2049512929 -1582072323 -479785420 -1134707233 -1590930390 16743441 -56430273 -710040949 1548537394 -90179697 -94719636 -1087713650 1833588803 -909708909 1586013 -1690094455 -347777757 1780736926 -1846504237 -9454778 544512595
REM
CELL 1.54180   50.00000   50.00000   50.00000   90.00000   90.00000   90.00000
LATT -1
SFAC C  
C      1  0.4549650000000  0.5540240000000  0.5509660000000 1.0
C      1  0.4193790000000  0.4811190000000  0.4538940000000 1.0
C      1  0.5383550000000  0.5088490000000  0.4675520000000 1.0
C      1  0.4504770000000  0.4317390000000  0.5383770000000 1.0
C      1  0.4156710000000  0.5428810000000  0.4636280000000 1.0
C      1  0.5252500000000  0.3754620000000  0.4352440000000 1.0
C      1  0.5219330000000  0.5212240000000  0.6363560000000 1.0
C      1  0.4838500000000  0.5542730000000  0.4570040000000 1.0
C      1  0.3904920000000  0.5018590000000  0.5175560000000 1.0
C      1  0.5054100000000  0.5549110000000  0.4090700000000 1.0
C      1  0.3886520000000  0.4875580000000  0.4922320000000 1.0
C      1  0.4038890000000  0.4987990000000  0.4041810000000 1.0
C      1  0.5764990000000  0.6425040000000  0.5786550000000 1.0
C      1  0.4355120000000  0.4329660000000  0.5125740000000 1.0
C      1  0.5498000000000  0.5319040000000  0.5981820000000 1.0
C      1  0.5158070000000  0.5388180000000  0.5433350000000 1.0
C      1  0.5849780000000  0.4719390000000  0.5141070000000 1.0
C      1  0.5985270000000  0.5652840000000  0.6206320000000 1.0
C      1  0.4990170000000  0.4953710000000  0.4102920000000 1.0
C      1  0.4781120000000  0.4800060000000  0.4606070000000 1.0
C      1  0.5442510000000  0.4818660000000  0.4599350000000 1.0
C      1  0.4889220000000  0.4581550000000  0.5498160000000 1.0
C      1  0.4884260000000  0.5148720000000  0.5754320000000 1.0
C      1  0.4961170000000  0.5806510000000  0.6055730000000 1.0
C      1  0.5760820000000  0.4458350000000  0.4548640000000 1.0
C      1  0.5118350000000  0.5664380000000  0.3585070000000 1.0
C      1  0.6127550000000  0.4787290000000  0.5838430000000 1.0
C      1  0.5309320000000  0.5046720000000  0.3675270000000 1.0
C      1  0.4316110000000  0.5418670000000  0.4185040000000 1.0
C      1  0.5125740000000  0.5173490000000  0.4740870000000 1.0
C      1  0.5103460000000  0.4439410000000  0.5623670000000 1.0
C      1  0.5787190000000  0.4789160000000  0.5418300000000 1.0
C      1  0.4398880000000  0.4988360000000  0.4459250000000 1.0
C      1  0.3845180000000  0.5097810000000  0.3544720000000 1.0
C      1  0.5970900000000  0.4770770000000  0.5625430000000 1.0
C      1  0.5819230000000  0.5693540000000  0.5992510000000 1.0
C      1  0.4972930000000  0.4646520000000  0.4461810000000 1.0
C      1  0.4495100000000  0.4800810000000  0.5654910000000 1.0
C      1  0.5249570000000  0.3937480000000  0.4556440000000 1.0
C      1  0.4439440000000  0.5257720000000  0.5056160000000 1.0
C      1  0.5653540000000  0.3909480000000  0.5604970000000 1.0
C      1  0.5568320000000  0.5520840000000  0.4838720000000 1.0
C      1  0.4667680000000  0.4994400000000  0.4438080000000 1.0
C      1  0.4714670000000  0.4075900000000  0.4225310000000 1.0
C      1  0.5707050000000  0.5469930000000  0.5855280000000 1.0
C      1  0.4679540000000  0.5606860000000  0.5747580000000 1.0
C      1  0.4495000000000  0.4201440000000  0.4611250000000 1.0
C      1  0.5120290000000  0.4898270000000  0.5167990000000 1.0
C      1  0.5328430000000  0.5520690000000  0.3999700000000 1.0
C      1  0.5890700000000  0.4947530000000  0.4683380000000 1.0
C      1  0.5003430000000  0.4056100000000  0.4644500000000 1.0
C      1  0.5406970000000  0.4859560000000  0.6118080000000 1.0
C      1  0.5585480000000  0.5285070000000  0.4704400000000 1.0
C      1  0.5043550000000  0.5531520000000  0.6052350000000 1.0
C      1  0.5497160000000  0.4008910000000  0.4688140000000 1.0
C      1  0.4339940000000  0.5546880000000  0.4448510000000 1.0
C      1  0.5683750000000  0.4500160000000  0.5053600000000 1.0
C      1  0.4790370000000  0.4622500000000  0.5029990000000 1.0
C      1  0.4598490000000  0.4553010000000  0.5539240000000 1.0
C      1  0.4780540000000  0.4366170000000  0.4930950000000 1.0
C      1  0.5307850000000  0.4259050000000  0.5612870000000 1.0
C      1  0.4922290000000  0.4717210000000  0.5251130000000 1.0
C      1  0.5761660000000  0.5307960000000  0.4284140000000 1.0
C      1  0.4802160000000  0.5563650000000  0.3941860000000 1.0
C      1  0.4093230000000  0.5214420000000  0.4216740000000 1.0
C      1  0.4188210000000  0.4586230000000  0.4359100000000 1.0
C      1  0.5464290000000  0.4057610000000  0.5475170000000 1.0
C      1  0.3995370000000  0.5219360000000  0.4508840000000 1.0
C      1  0.4570730000000  0.4316580000000  0.4158980000000 1.0
C      1  0.5273090000000  0.5399700000000  0.6151980000000 1.0
C      1  0.4861660000000  0.5659910000000  0.3678700000000 1.0
C      1  0.5135830000000  0.4983410000000  0.3868180000000 1.0
C      1  0.5667580000000  0.4207590000000  0.4579000000000 1.0
C      1  0.5190980000000  0.6306800000000  0.5625520000000 1.0
C      1  0.5236000000000  0.4638060000000  0.4550400000000 1.0
C      1  0.5815720000000  0.5203990000000  0.4548630000000 1.0
C      1  0.4540190000000  0.5469790000000  0.4013530000000 1.0
C      1  0.4515600000000  0.4267450000000  0.4889680000000 1.0
C      1  0.4086220000000  0.4711760000000  0.4116700000000 1.0
C      1  0.4697070000000  0.4936210000000  0.5823530000000 1.0
C      1  0.4925690000000  0.6297840000000  0.5661360000000 1.0
C      1  0.3757050000000  0.5155330000000  0.3306210000000 1.0
C      1  0.4843160000000  0.5402740000000  0.5876860000000 1.0
C      1  0.5403080000000  0.4507010000000  0.5115640000000 1.0
C      1  0.3975590000000  0.4963830000000  0.4659490000000 1.0
C      1  0.4038850000000  0.5001930000000  0.5415770000000 1.0
C      1  0.5534240000000  0.3925490000000  0.4959630000000 1.0
C      1  0.5285820000000  0.5625090000000  0.5501450000000 1.0
C      1  0.5560420000000  0.5430380000000  0.4143660000000 1.0
C      1  0.5130110000000  0.5153820000000  0.5600020000000 1.0
C      1  0.4704640000000  0.4110120000000  0.5390900000000 1.0
C      1  0.4756230000000  0.5864350000000  0.5857240000000 1.0
C      1  0.3926350000000  0.4589500000000  0.4970000000000 1.0
C      1  0.4251570000000  0.5392540000000  0.4895970000000 1.0
C      1  0.5760090000000  0.5953520000000  0.5906660000000 1.0
C      1  0.5409220000000  0.4023780000000  0.5193220000000 1.0
C      1  0.5336870000000  0.5525930000000  0.3706880000000 1.0
C      1  0.4494110000000  0.4982410000000  0.5000350000000 1.0
C      1  0.4518800000000  0.5390780000000  0.5290670000000 1.0
C      1  0.6269600000000  0.4820240000000  0.6054510000000 1.0
C      1  0.5199590000000  0.4934420000000  0.6299610000000 1.0
C      1  0.5814200000000  0.5399530000000  0.5599130000000 1.0
C      1  0.3745540000000  0.4395920000000  0.4909540000000 1.0
C      1  0.5966190000000  0.5185670000000  0.5132550000000 1.0
C      1  0.4243640000000  0.4917280000000  0.5576840000000 1.0
C      1  0.5510050000000  0.4853890000000  0.5449730000000 1.0
C      1  0.4883350000000  0.5131710000000  0.4308530000000 1.0
C      1  0.4744500000000  0.6118470000000  0.5744120000000 1.0
C      1  0.4944650000000  0.4820080000000  0.6265130000000 1.0
C      1  0.5646410000000  0.6173080000000  0.5774520000000 1.0
C      1  0.4980810000000  0.5302390000000  0.4528130000000 1.0
C      1  0.4965510000000  0.4110800000000  0.5318740000000 1.0
C      1  0.5907520000000  0.5325450000000  0.5356920000000 1.0
C      1  0.4693810000000  0.4825700000000  0.4867380000000 1.0
C      1  0.5051990000000  0.5366390000000  0.5176140000000 1.0
C      1  0.5370610000000  0.4999430000000  0.5649540000000 1.0
C      1  0.5872220000000  0.6662360000000  0.5796640000000 1.0
C      1  0.4378180000000  0.4368830000000  0.4382290000000 1.0
C      1  0.5476660000000  0.5038530000000  0.5908510000000 1.0
C      1  0.5368380000000  0.5876280000000  0.5513450000000 1.0
C      1  0.4731730000000  0.4523080000000  0.4054890000000 1.0
C      1  0.5408770000000  0.6129700000000  0.5625690000000 1.0
C      1  0.3935690000000  0.5040110000000  0.3786930000000 1.0
C      1  0.5415280000000  0.5280150000000  0.3592260000000 1.0
C      1  0.4591430000000  0.5641360000000  0.4532540000000 1.0
C      1  0.4930670000000  0.4679820000000  0.4177440000000 1.0
C      1  0.5017570000000  0.4222560000000  0.4875360000000 1.0
C      1  0.5190030000000  0.4215020000000  0.5120370000000 1.0
C      1  0.4181580000000  0.4550380000000  0.5089420000000 1.0
C      1  0.4318200000000  0.4796140000000  0.5117020000000 1.0
C      1  0.5354380000000  0.4762210000000  0.5230540000000 1.0
C      1  0.5716750000000  0.4733590000000  0.4592050000000 1.0
C      1  0.5071580000000  0.5137950000000  0.5018060000000 1.0
C      1  0.4742940000000  0.4051360000000  0.4511360000000 1.0
C      1  0.4749460000000  0.4824850000000  0.6080270000000 1.0
C      1  0.5935300000000  0.4946160000000  0.4976660000000 1.0
END
