TITL C-612601-4209-542 0.145373234975417 125000 -873.186934659792 0 0 143 (C1) n - 1
REM
REM in /home/nfs/bkarasulu/CARBON/AIRSS/Generating-Clusters/TERSOFF/Only-C1/FIRE-HFTN
REM
REM
REM
REM
REM
REM ./C.cell (11c1c37f851c82e70ff6c80c92926a4b)
REM AIRSS Version 0.9.1 bugfix July 2018 build 013d7b7c2542+ Fri, 06 Jul 2018 19:26:36 +0100
REM compiler GCC version 9.2.1 20190827 (Red Hat 9.2.1-1)
REM options -cpp -mtune=generic -march=x86-64 -g -O0 -fpre-include=/usr/include/finclude/math-vector-fortran.h
REM seed 396781356 1900259425 -1033509100 924499609 -1292946223 -360931113 991918531 1194665298 -164434429 1783474654 -49559066 1274771317 -935063808 -1166652680 1694166161 -2040361296 983258354 -2031373559 149566307 -183071746 707905600 2080624554 923350177 -1180566459 1901671817 962040967 1455333599 1417715787 -77979420 1657435964 -1652114176 899753787 2067732661
REM
CELL 1.54180   50.00000   50.00000   50.00000   90.00000   90.00000   90.00000
LATT -1
SFAC C  
C      1  0.5505400000000  0.4523150000000  0.5162260000000 1.0
C      1  0.4179060000000  0.4647160000000  0.5825090000000 1.0
C      1  0.4416360000000  0.5568240000000  0.6024080000000 1.0
C      1  0.5896360000000  0.5575470000000  0.4630040000000 1.0
C      1  0.5800500000000  0.5228020000000  0.5568020000000 1.0
C      1  0.5573680000000  0.5278060000000  0.5130380000000 1.0
C      1  0.5584100000000  0.4592940000000  0.6135930000000 1.0
C      1  0.6028720000000  0.5364470000000  0.4778720000000 1.0
C      1  0.5331360000000  0.5201120000000  0.5776620000000 1.0
C      1  0.3785960000000  0.5438240000000  0.5895230000000 1.0
C      1  0.5365440000000  0.4758090000000  0.5240110000000 1.0
C      1  0.5160110000000  0.5554170000000  0.5450470000000 1.0
C      1  0.4202650000000  0.4862830000000  0.4214200000000 1.0
C      1  0.3565630000000  0.5335450000000  0.5746250000000 1.0
C      1  0.5731500000000  0.4551810000000  0.4977920000000 1.0
C      1  0.5711600000000  0.5069940000000  0.6021350000000 1.0
C      1  0.4394760000000  0.4922120000000  0.5304940000000 1.0
C      1  0.4694600000000  0.6005450000000  0.5904780000000 1.0
C      1  0.5694660000000  0.4791860000000  0.4117860000000 1.0
C      1  0.5141880000000  0.4042260000000  0.5466840000000 1.0
C      1  0.3989580000000  0.5020350000000  0.4233150000000 1.0
C      1  0.5097310000000  0.6012270000000  0.4551390000000 1.0
C      1  0.5116370000000  0.5089340000000  0.4084100000000 1.0
C      1  0.4146930000000  0.5868420000000  0.4499910000000 1.0
C      1  0.3940720000000  0.5741090000000  0.4389220000000 1.0
C      1  0.5636610000000  0.5258990000000  0.5810920000000 1.0
C      1  0.5651100000000  0.4758950000000  0.5661310000000 1.0
C      1  0.4766340000000  0.4326650000000  0.4566340000000 1.0
C      1  0.4847210000000  0.3848520000000  0.4544990000000 1.0
C      1  0.4184550000000  0.4344430000000  0.4764040000000 1.0
C      1  0.5461380000000  0.5458780000000  0.4253310000000 1.0
C      1  0.5720910000000  0.4987350000000  0.4322410000000 1.0
C      1  0.4796040000000  0.5933080000000  0.3535990000000 1.0
C      1  0.5106280000000  0.4652720000000  0.4607450000000 1.0
C      1  0.4337160000000  0.4658170000000  0.5377200000000 1.0
C      1  0.4515480000000  0.5635450000000  0.5168660000000 1.0
C      1  0.5152620000000  0.5034000000000  0.4887810000000 1.0
C      1  0.5584710000000  0.4370570000000  0.6279810000000 1.0
C      1  0.5288780000000  0.6222810000000  0.4953810000000 1.0
C      1  0.4856310000000  0.4571550000000  0.4676480000000 1.0
C      1  0.3837360000000  0.5510720000000  0.4304950000000 1.0
C      1  0.5601500000000  0.5153760000000  0.5375980000000 1.0
C      1  0.5956690000000  0.4727300000000  0.5082500000000 1.0
C      1  0.5148350000000  0.4922930000000  0.5156950000000 1.0
C      1  0.4607970000000  0.5415400000000  0.4520820000000 1.0
C      1  0.5510930000000  0.4892350000000  0.5443330000000 1.0
C      1  0.4659090000000  0.4555340000000  0.5737370000000 1.0
C      1  0.4856900000000  0.5859640000000  0.3778610000000 1.0
C      1  0.5311480000000  0.3628440000000  0.5168200000000 1.0
C      1  0.6043350000000  0.5688290000000  0.4424510000000 1.0
C      1  0.4665030000000  0.4743790000000  0.4784290000000 1.0
C      1  0.5379010000000  0.3468780000000  0.4967780000000 1.0
C      1  0.3994050000000  0.5288370000000  0.6010320000000 1.0
C      1  0.5445650000000  0.6029480000000  0.5090450000000 1.0
C      1  0.4111860000000  0.4418820000000  0.5009240000000 1.0
C      1  0.5388390000000  0.6011900000000  0.5376200000000 1.0
C      1  0.4395450000000  0.4588230000000  0.5649850000000 1.0
C      1  0.4470470000000  0.4796580000000  0.4159120000000 1.0
C      1  0.5153790000000  0.5290050000000  0.5563240000000 1.0
C      1  0.4106680000000  0.4529240000000  0.5265220000000 1.0
C      1  0.3568570000000  0.5051530000000  0.5719920000000 1.0
C      1  0.4913490000000  0.5771850000000  0.4022050000000 1.0
C      1  0.5587580000000  0.5857120000000  0.4906320000000 1.0
C      1  0.4478580000000  0.5184010000000  0.4611100000000 1.0
C      1  0.5327900000000  0.5771330000000  0.5518030000000 1.0
C      1  0.5415460000000  0.4413440000000  0.4111940000000 1.0
C      1  0.4281930000000  0.5324920000000  0.6033550000000 1.0
C      1  0.5402650000000  0.5491290000000  0.5081460000000 1.0
C      1  0.4932520000000  0.5490960000000  0.4980650000000 1.0
C      1  0.4569830000000  0.5076760000000  0.3778210000000 1.0
C      1  0.6140940000000  0.5405730000000  0.5037980000000 1.0
C      1  0.6006350000000  0.4799270000000  0.5367170000000 1.0
C      1  0.5438220000000  0.3324360000000  0.4753560000000 1.0
C      1  0.4805810000000  0.4773850000000  0.5861580000000 1.0
C      1  0.5322390000000  0.5282250000000  0.4104600000000 1.0
C      1  0.4632760000000  0.5007340000000  0.4044060000000 1.0
C      1  0.5612580000000  0.5114700000000  0.4911140000000 1.0
C      1  0.4549570000000  0.4520920000000  0.4176170000000 1.0
C      1  0.5215300000000  0.4140850000000  0.4655510000000 1.0
C      1  0.3906140000000  0.4651670000000  0.5705780000000 1.0
C      1  0.5494270000000  0.3185500000000  0.4540170000000 1.0
C      1  0.5282610000000  0.4925520000000  0.5886720000000 1.0
C      1  0.5049950000000  0.5087850000000  0.5377250000000 1.0
C      1  0.5486020000000  0.5020510000000  0.4479150000000 1.0
C      1  0.4524070000000  0.5171760000000  0.3535210000000 1.0
C      1  0.4965680000000  0.4403750000000  0.3909560000000 1.0
C      1  0.5968650000000  0.4952800000000  0.4462570000000 1.0
C      1  0.6047870000000  0.5088270000000  0.4695660000000 1.0
C      1  0.5087940000000  0.4731340000000  0.5818510000000 1.0
C      1  0.4960330000000  0.5640920000000  0.4266130000000 1.0
C      1  0.4705390000000  0.4412830000000  0.3968680000000 1.0
C      1  0.5140440000000  0.6202880000000  0.4732050000000 1.0
C      1  0.5535430000000  0.4335060000000  0.5381390000000 1.0
C      1  0.5402880000000  0.5035870000000  0.4744060000000 1.0
C      1  0.5173350000000  0.4825470000000  0.4003310000000 1.0
C      1  0.5137350000000  0.5550140000000  0.5162230000000 1.0
C      1  0.5283440000000  0.6239470000000  0.5508960000000 1.0
C      1  0.5232800000000  0.3814550000000  0.5339490000000 1.0
C      1  0.4506060000000  0.4951290000000  0.4736310000000 1.0
C      1  0.4941750000000  0.4101870000000  0.4587810000000 1.0
C      1  0.5460890000000  0.4237270000000  0.4704700000000 1.0
C      1  0.5075720000000  0.6281750000000  0.5673260000000 1.0
C      1  0.5650480000000  0.4524100000000  0.4216730000000 1.0
C      1  0.4670810000000  0.4982690000000  0.5987620000000 1.0
C      1  0.5797400000000  0.4353720000000  0.5498330000000 1.0
C      1  0.4277450000000  0.4262780000000  0.4511170000000 1.0
C      1  0.3857980000000  0.5250130000000  0.4256030000000 1.0
C      1  0.4868160000000  0.6183380000000  0.5809010000000 1.0
C      1  0.5155220000000  0.5760190000000  0.4445330000000 1.0
C      1  0.3371260000000  0.5493210000000  0.5639290000000 1.0
C      1  0.4974660000000  0.5246860000000  0.4843790000000 1.0
C      1  0.4687470000000  0.5628940000000  0.4947020000000 1.0
C      1  0.5299030000000  0.4280300000000  0.5530520000000 1.0
C      1  0.5878490000000  0.4621150000000  0.5559730000000 1.0
C      1  0.5127450000000  0.4472860000000  0.5679330000000 1.0
C      1  0.4396860000000  0.5446090000000  0.5314580000000 1.0
C      1  0.4128400000000  0.4089560000000  0.4360320000000 1.0
C      1  0.4847890000000  0.5159740000000  0.4162730000000 1.0
C      1  0.6027170000000  0.4667140000000  0.4470410000000 1.0
C      1  0.4200560000000  0.4860720000000  0.6015810000000 1.0
C      1  0.5628810000000  0.5689450000000  0.4672420000000 1.0
C      1  0.3944000000000  0.5002110000000  0.6012520000000 1.0
C      1  0.4368560000000  0.5183560000000  0.5342920000000 1.0
C      1  0.5192160000000  0.4542950000000  0.3995950000000 1.0
C      1  0.4407890000000  0.5061630000000  0.6036000000000 1.0
C      1  0.4550070000000  0.5792550000000  0.5973070000000 1.0
C      1  0.4806570000000  0.5402160000000  0.4316900000000 1.0
C      1  0.6039110000000  0.5095700000000  0.5445940000000 1.0
C      1  0.3764650000000  0.4876830000000  0.5820600000000 1.0
C      1  0.4846890000000  0.4358650000000  0.5656650000000 1.0
C      1  0.4388510000000  0.5839940000000  0.4609120000000 1.0
C      1  0.6093500000000  0.4898600000000  0.4903510000000 1.0
C      1  0.5802490000000  0.4487050000000  0.4464430000000 1.0
C      1  0.5580410000000  0.4146860000000  0.6413570000000 1.0
C      1  0.4576370000000  0.5647740000000  0.4685320000000 1.0
C      1  0.4483890000000  0.5275050000000  0.3299250000000 1.0
C      1  0.6180300000000  0.5272040000000  0.5270030000000 1.0
C      1  0.5419950000000  0.5643020000000  0.4466510000000 1.0
C      1  0.4526600000000  0.4357540000000  0.4412290000000 1.0
C      1  0.3886840000000  0.4538730000000  0.5446420000000 1.0
C      1  0.5682900000000  0.4417370000000  0.4718040000000 1.0
C      1  0.5565550000000  0.4812150000000  0.5946910000000 1.0
C      1  0.4871070000000  0.4100160000000  0.5541570000000 1.0
END
