TITL C-612604-1799-794 206.60863375097 125000 -641.908654340079 0 0 106 (C1) n - 1
REM
REM in /home/nfs/bkarasulu/CARBON/AIRSS/Generating-Clusters/TERSOFF/Only-C1/FIRE-HFTN
REM
REM
REM
REM
REM
REM ./C.cell (11c1c37f851c82e70ff6c80c92926a4b)
REM AIRSS Version 0.9.1 bugfix July 2018 build 013d7b7c2542+ Fri, 06 Jul 2018 19:26:36 +0100
REM compiler GCC version 9.2.1 20190827 (Red Hat 9.2.1-1)
REM options -cpp -mtune=generic -march=x86-64 -g -O0 -fpre-include=/usr/include/finclude/math-vector-fortran.h
REM seed -234827915 1787018931 57026772 -583818630 -480442781 -1230221211 1095417263 180526448 995434165 -1742834267 -73339259 311336253 -403736282 -1927703555 1032076845 -937950044 -145315933 -1420891929 1608917044 741689096 -1068697535 -459761369 -236582407 508469547 1064927390 1453216017 -1594438939 -1730969914 -1444652070 1098404664 -1651131513 793062581 -1916768618
REM
CELL 1.54180   50.00000   50.00000   50.00000   90.00000   90.00000   90.00000
LATT -1
SFAC C  
C      1  0.5340190000000  0.4343020000000  0.4283000000000 1.0
C      1  0.5267950000000  0.4787970000000  0.5216070000000 1.0
C      1  0.5618010000000  0.5328280000000  0.5747650000000 1.0
C      1  0.4871320000000  0.5661290000000  0.5729350000000 1.0
C      1  0.4201060000000  0.4930200000000  0.4347870000000 1.0
C      1  0.4137920000000  0.4796550000000  0.5523680000000 1.0
C      1  0.4529510000000  0.5331070000000  0.5917220000000 1.0
C      1  0.5015830000000  0.5239400000000  0.5933860000000 1.0
C      1  0.5540600000000  0.4576670000000  0.5835360000000 1.0
C      1  0.4701550000000  0.5795000000000  0.4862700000000 1.0
C      1  0.4407050000000  0.4787390000000  0.5916530000000 1.0
C      1  0.4620780000000  0.4184180000000  0.4813030000000 1.0
C      1  0.5621920000000  0.5003200000000  0.4168000000000 1.0
C      1  0.4619970000000  0.5600640000000  0.5856970000000 1.0
C      1  0.4873670000000  0.4980510000000  0.3934490000000 1.0
C      1  0.6020420000000  0.4968620000000  0.4595690000000 1.0
C      1  0.5668690000000  0.4609970000000  0.4557570000000 1.0
C      1  0.5104890000000  0.5960100000000  0.4660060000000 1.0
C      1  0.4869150000000  0.4000230000000  0.4816360000000 1.0
C      1  0.4530500000000  0.5187830000000  0.5216100000000 1.0
C      1  0.5097300000000  0.4858770000000  0.4616570000000 1.0
C      1  0.5612570000000  0.4836220000000  0.5871990000000 1.0
C      1  0.5493570000000  0.4661030000000  0.4781950000000 1.0
C      1  0.5715080000000  0.4972750000000  0.5112610000000 1.0
C      1  0.4867070000000  0.5487010000000  0.4225070000000 1.0
C      1  0.5226380000000  0.5855390000000  0.4907890000000 1.0
C      1  0.4967240000000  0.4715440000000  0.5170030000000 1.0
C      1  0.4976140000000  0.4434910000000  0.5087850000000 1.0
C      1  0.4822450000000  0.5977680000000  0.4676430000000 1.0
C      1  0.5884010000000  0.5201050000000  0.4614980000000 1.0
C      1  0.5541160000000  0.4742080000000  0.4088590000000 1.0
C      1  0.4533110000000  0.4952000000000  0.5035660000000 1.0
C      1  0.5105440000000  0.5642890000000  0.4286040000000 1.0
C      1  0.4790430000000  0.4705400000000  0.5410120000000 1.0
C      1  0.4874210000000  0.5258200000000  0.4037360000000 1.0
C      1  0.5515130000000  0.5826510000000  0.4888470000000 1.0
C      1  0.5519070000000  0.5104430000000  0.5892460000000 1.0
C      1  0.5267300000000  0.5381210000000  0.5031480000000 1.0
C      1  0.5112100000000  0.4867630000000  0.3831260000000 1.0
C      1  0.4727330000000  0.4921860000000  0.5568210000000 1.0
C      1  0.4930080000000  0.4215180000000  0.5266170000000 1.0
C      1  0.5443240000000  0.5299760000000  0.4826860000000 1.0
C      1  0.4850200000000  0.4587320000000  0.5915870000000 1.0
C      1  0.5344070000000  0.4743180000000  0.3885500000000 1.0
C      1  0.5263110000000  0.5816560000000  0.4453030000000 1.0
C      1  0.4829910000000  0.4265130000000  0.4383550000000 1.0
C      1  0.4798720000000  0.4870590000000  0.4981950000000 1.0
C      1  0.4404090000000  0.4755610000000  0.3928640000000 1.0
C      1  0.5190180000000  0.5266780000000  0.5272430000000 1.0
C      1  0.5109560000000  0.5607270000000  0.4975730000000 1.0
C      1  0.4817970000000  0.4380090000000  0.5707910000000 1.0
C      1  0.4919960000000  0.5010690000000  0.4774840000000 1.0
C      1  0.4761700000000  0.5944100000000  0.5350760000000 1.0
C      1  0.4327410000000  0.5290800000000  0.4783240000000 1.0
C      1  0.5591060000000  0.5553780000000  0.5602590000000 1.0
C      1  0.4379020000000  0.5159670000000  0.4350250000000 1.0
C      1  0.4399540000000  0.5393700000000  0.4515500000000 1.0
C      1  0.5505050000000  0.4794530000000  0.5038870000000 1.0
C      1  0.5297270000000  0.4015280000000  0.5141780000000 1.0
C      1  0.5930110000000  0.4715880000000  0.4568420000000 1.0
C      1  0.4750000000000  0.5136410000000  0.5984570000000 1.0
C      1  0.5124010000000  0.4379690000000  0.4850520000000 1.0
C      1  0.5534170000000  0.5799910000000  0.4590010000000 1.0
C      1  0.4645310000000  0.5042400000000  0.4376380000000 1.0
C      1  0.4698050000000  0.4852950000000  0.5875190000000 1.0
C      1  0.5265700000000  0.5143830000000  0.6015380000000 1.0
C      1  0.4187240000000  0.4803960000000  0.4091500000000 1.0
C      1  0.5819710000000  0.5219360000000  0.5146060000000 1.0
C      1  0.4345120000000  0.4981700000000  0.4812100000000 1.0
C      1  0.4284980000000  0.5216790000000  0.5810030000000 1.0
C      1  0.5238220000000  0.5858880000000  0.5461070000000 1.0
C      1  0.5491560000000  0.5734600000000  0.5401280000000 1.0
C      1  0.4851390000000  0.5286440000000  0.4760720000000 1.0
C      1  0.5107780000000  0.4548660000000  0.6027820000000 1.0
C      1  0.4205440000000  0.4588860000000  0.5359890000000 1.0
C      1  0.4498830000000  0.4213280000000  0.5091230000000 1.0
C      1  0.4621460000000  0.5538540000000  0.4383630000000 1.0
C      1  0.5299280000000  0.4427980000000  0.5845310000000 1.0
C      1  0.4625750000000  0.4347950000000  0.4571080000000 1.0
C      1  0.5604690000000  0.5244850000000  0.4601280000000 1.0
C      1  0.4654800000000  0.4465690000000  0.5483850000000 1.0
C      1  0.5628860000000  0.5715050000000  0.5136380000000 1.0
C      1  0.5173010000000  0.4128650000000  0.5388670000000 1.0
C      1  0.4957620000000  0.5853530000000  0.5533270000000 1.0
C      1  0.4672730000000  0.4783980000000  0.4023330000000 1.0
C      1  0.4635680000000  0.5901570000000  0.5116930000000 1.0
C      1  0.5226850000000  0.5011370000000  0.4421140000000 1.0
C      1  0.5150540000000  0.4085120000000  0.4879180000000 1.0
C      1  0.4299130000000  0.4788690000000  0.4594560000000 1.0
C      1  0.5083170000000  0.4265520000000  0.4293650000000 1.0
C      1  0.5805420000000  0.5488730000000  0.5123640000000 1.0
C      1  0.4225920000000  0.4939250000000  0.5754190000000 1.0
C      1  0.4853400000000  0.5547420000000  0.4869960000000 1.0
C      1  0.5154530000000  0.4264730000000  0.5649370000000 1.0
C      1  0.4695630000000  0.4061820000000  0.5245750000000 1.0
C      1  0.5541660000000  0.4542600000000  0.4300280000000 1.0
C      1  0.4520880000000  0.4605690000000  0.4511750000000 1.0
C      1  0.4725740000000  0.5167510000000  0.5424390000000 1.0
C      1  0.4672730000000  0.4765990000000  0.4314200000000 1.0
C      1  0.4979610000000  0.5295040000000  0.5452950000000 1.0
C      1  0.5477370000000  0.5128960000000  0.4375300000000 1.0
C      1  0.5323560000000  0.4841890000000  0.5479520000000 1.0
C      1  0.5015410000000  0.5415480000000  0.5707100000000 1.0
C      1  0.4424240000000  0.4414920000000  0.5301650000000 1.0
C      1  0.5218900000000  0.4612160000000  0.4716120000000 1.0
C      1  0.4383590000000  0.5381060000000  0.5057340000000 1.0
END
