TITL C-612604-1799-1018 1655.56744519279 125000 -950.649390577211 0 0 155 (C1) n - 1
REM
REM in /home/nfs/bkarasulu/CARBON/AIRSS/Generating-Clusters/TERSOFF/Only-C1/FIRE-HFTN
REM
REM
REM
REM
REM
REM ./C.cell (11c1c37f851c82e70ff6c80c92926a4b)
REM AIRSS Version 0.9.1 bugfix July 2018 build 013d7b7c2542+ Fri, 06 Jul 2018 19:26:36 +0100
REM compiler GCC version 9.2.1 20190827 (Red Hat 9.2.1-1)
REM options -cpp -mtune=generic -march=x86-64 -g -O0 -fpre-include=/usr/include/finclude/math-vector-fortran.h
REM seed 1926124623 1595540336 -1620474708 -543713061 -1047326499 -1632195194 517277083 1599576425 1402765244 1227755979 -1569007545 -1344401820 1471365941 451007526 -987607201 -1861519084 -1795468118 977545118 386440474 -444411670 -1108396161 1059792571 -495557479 -877833437 -1338923274 -1554145527 2061742923 1421439122 -1736268783 4241059 1316799304 1227667081 -1418565264
REM
CELL 1.54180   50.00000   50.00000   50.00000   90.00000   90.00000   90.00000
LATT -1
SFAC C  
C      1  0.5473900000000  0.5638320000000  0.5448840000000 1.0
C      1  0.4696530000000  0.4496560000000  0.4072630000000 1.0
C      1  0.6015640000000  0.4317140000000  0.5380190000000 1.0
C      1  0.5162060000000  0.4714640000000  0.4083800000000 1.0
C      1  0.5390150000000  0.4354330000000  0.5129210000000 1.0
C      1  0.5050500000000  0.5387320000000  0.5448230000000 1.0
C      1  0.5799320000000  0.5951360000000  0.4577500000000 1.0
C      1  0.3951630000000  0.5371910000000  0.4947850000000 1.0
C      1  0.4869590000000  0.6153800000000  0.4810150000000 1.0
C      1  0.4327500000000  0.4298890000000  0.4536870000000 1.0
C      1  0.6340460000000  0.4848580000000  0.4429520000000 1.0
C      1  0.4623350000000  0.4292800000000  0.5515760000000 1.0
C      1  0.4685390000000  0.6049230000000  0.5010840000000 1.0
C      1  0.3951300000000  0.4496330000000  0.5073970000000 1.0
C      1  0.5043500000000  0.5165830000000  0.3991040000000 1.0
C      1  0.5383540000000  0.5602040000000  0.4813220000000 1.0
C      1  0.4858220000000  0.4851230000000  0.4451510000000 1.0
C      1  0.5765890000000  0.6165620000000  0.5298580000000 1.0
C      1  0.5992590000000  0.5362620000000  0.4880810000000 1.0
C      1  0.4296840000000  0.4817610000000  0.5654780000000 1.0
C      1  0.3799720000000  0.5397910000000  0.4699170000000 1.0
C      1  0.4986660000000  0.5051300000000  0.6037340000000 1.0
C      1  0.4493870000000  0.4685730000000  0.4719010000000 1.0
C      1  0.5737570000000  0.4098740000000  0.5700580000000 1.0
C      1  0.5270340000000  0.5513030000000  0.5310690000000 1.0
C      1  0.4511110000000  0.4381800000000  0.4757400000000 1.0
C      1  0.5897380000000  0.4063030000000  0.4704120000000 1.0
C      1  0.5436880000000  0.4635050000000  0.4062750000000 1.0
C      1  0.4422210000000  0.5163450000000  0.4918220000000 1.0
C      1  0.3829160000000  0.4661330000000  0.4612190000000 1.0
C      1  0.3798400000000  0.4939010000000  0.4647940000000 1.0
C      1  0.4090570000000  0.4810240000000  0.5443790000000 1.0
C      1  0.5450560000000  0.5176920000000  0.4513820000000 1.0
C      1  0.4930530000000  0.4548540000000  0.4850900000000 1.0
C      1  0.4742990000000  0.5009660000000  0.5276590000000 1.0
C      1  0.5033650000000  0.4761440000000  0.4961740000000 1.0
C      1  0.5197990000000  0.4208320000000  0.4478640000000 1.0
C      1  0.4225090000000  0.5357400000000  0.4862470000000 1.0
C      1  0.5980190000000  0.5739140000000  0.4521010000000 1.0
C      1  0.4512770000000  0.4133460000000  0.5216790000000 1.0
C      1  0.5646080000000  0.4814020000000  0.4181920000000 1.0
C      1  0.4519410000000  0.5407000000000  0.4117520000000 1.0
C      1  0.4411650000000  0.5754360000000  0.6837880000000 1.0
C      1  0.5587330000000  0.5088400000000  0.4245420000000 1.0
C      1  0.5490120000000  0.4413360000000  0.4874600000000 1.0
C      1  0.5619340000000  0.4077550000000  0.5433810000000 1.0
C      1  0.5743160000000  0.4537520000000  0.4859850000000 1.0
C      1  0.5095960000000  0.4109810000000  0.5413420000000 1.0
C      1  0.5904830000000  0.6095840000000  0.5061850000000 1.0
C      1  0.5873420000000  0.4181530000000  0.4463130000000 1.0
C      1  0.4508230000000  0.4590050000000  0.5689290000000 1.0
C      1  0.4612340000000  0.3827750000000  0.4800250000000 1.0
C      1  0.5494000000000  0.5882780000000  0.5587260000000 1.0
C      1  0.3862660000000  0.5149110000000  0.5109800000000 1.0
C      1  0.5290480000000  0.4681780000000  0.4542910000000 1.0
C      1  0.5182800000000  0.5593350000000  0.4576340000000 1.0
C      1  0.5307010000000  0.6067650000000  0.4979460000000 1.0
C      1  0.4509020000000  0.5099870000000  0.6004320000000 1.0
C      1  0.4248370000000  0.4697560000000  0.4211470000000 1.0
C      1  0.4448310000000  0.5255030000000  0.6226570000000 1.0
C      1  0.6115620000000  0.4746740000000  0.4345960000000 1.0
C      1  0.5977980000000  0.4251720000000  0.5659410000000 1.0
C      1  0.5775760000000  0.5011790000000  0.5369030000000 1.0
C      1  0.5304220000000  0.5490050000000  0.6477920000000 1.0
C      1  0.4347940000000  0.5614180000000  0.5508330000000 1.0
C      1  0.5081710000000  0.4709050000000  0.4360510000000 1.0
C      1  0.5193390000000  0.5543680000000  0.5039830000000 1.0
C      1  0.4032360000000  0.5064050000000  0.5319110000000 1.0
C      1  0.5336190000000  0.4170330000000  0.4231540000000 1.0
C      1  0.4647480000000  0.5610270000000  0.4244050000000 1.0
C      1  0.4686420000000  0.5692980000000  0.4513330000000 1.0
C      1  0.5124360000000  0.4047080000000  0.6010760000000 1.0
C      1  0.5224110000000  0.5364670000000  0.4409910000000 1.0
C      1  0.4682310000000  0.4785310000000  0.4013870000000 1.0
C      1  0.5320920000000  0.5063270000000  0.5168580000000 1.0
C      1  0.4457770000000  0.4943430000000  0.4756630000000 1.0
C      1  0.4724750000000  0.5555240000000  0.5160440000000 1.0
C      1  0.4424360000000  0.5418980000000  0.6433200000000 1.0
C      1  0.5866010000000  0.4651390000000  0.4273630000000 1.0
C      1  0.5148780000000  0.5256850000000  0.6089430000000 1.0
C      1  0.5525340000000  0.4359100000000  0.4135840000000 1.0
C      1  0.5525300000000  0.5246390000000  0.4013280000000 1.0
C      1  0.5343980000000  0.5706950000000  0.6052910000000 1.0
C      1  0.4455030000000  0.5658300000000  0.5162840000000 1.0
C      1  0.4956990000000  0.4890730000000  0.3959840000000 1.0
C      1  0.4412550000000  0.4585990000000  0.5189770000000 1.0
C      1  0.4416230000000  0.5587650000000  0.6637500000000 1.0
C      1  0.5969010000000  0.4592850000000  0.4992140000000 1.0
C      1  0.3716050000000  0.4987390000000  0.4925910000000 1.0
C      1  0.5435860000000  0.5867610000000  0.5860340000000 1.0
C      1  0.4352860000000  0.5188420000000  0.4200940000000 1.0
C      1  0.5244620000000  0.4938350000000  0.4932100000000 1.0
C      1  0.4319200000000  0.5335820000000  0.5592510000000 1.0
C      1  0.5731740000000  0.5271630000000  0.4951590000000 1.0
C      1  0.4279020000000  0.5205670000000  0.5345080000000 1.0
C      1  0.4161710000000  0.5280200000000  0.4409230000000 1.0
C      1  0.4763040000000  0.3876150000000  0.4550590000000 1.0
C      1  0.4533520000000  0.3890680000000  0.5059450000000 1.0
C      1  0.6022450000000  0.4578230000000  0.5269350000000 1.0
C      1  0.4993360000000  0.3988050000000  0.5181450000000 1.0
C      1  0.4825170000000  0.5115420000000  0.4418840000000 1.0
C      1  0.5014600000000  0.5120550000000  0.5342670000000 1.0
C      1  0.4455210000000  0.4349110000000  0.5049510000000 1.0
C      1  0.6170060000000  0.6152500000000  0.5031210000000 1.0
C      1  0.4791070000000  0.6056170000000  0.5296150000000 1.0
C      1  0.4443210000000  0.5720180000000  0.4663870000000 1.0
C      1  0.4912620000000  0.5630900000000  0.4670610000000 1.0
C      1  0.5367660000000  0.4191060000000  0.5360420000000 1.0
C      1  0.4848410000000  0.3488700000000  0.4185190000000 1.0
C      1  0.4924560000000  0.4100640000000  0.4950430000000 1.0
C      1  0.5572050000000  0.6072620000000  0.4442360000000 1.0
C      1  0.4885510000000  0.4164560000000  0.4488860000000 1.0
C      1  0.5288950000000  0.5253700000000  0.3877960000000 1.0
C      1  0.5754840000000  0.5963640000000  0.4860530000000 1.0
C      1  0.5151370000000  0.6153520000000  0.4754210000000 1.0
C      1  0.4892790000000  0.4200800000000  0.5599510000000 1.0
C      1  0.4802990000000  0.3671420000000  0.4365350000000 1.0
C      1  0.4644380000000  0.4738810000000  0.5267220000000 1.0
C      1  0.4506210000000  0.5155680000000  0.5185020000000 1.0
C      1  0.5496030000000  0.5864600000000  0.4911270000000 1.0
C      1  0.5025810000000  0.6212000000000  0.5337190000000 1.0
C      1  0.4230910000000  0.4457880000000  0.4336610000000 1.0
C      1  0.4426270000000  0.4908110000000  0.4122290000000 1.0
C      1  0.4269530000000  0.5490270000000  0.4610740000000 1.0
C      1  0.5329200000000  0.4416120000000  0.4642580000000 1.0
C      1  0.5616890000000  0.4001920000000  0.5929330000000 1.0
C      1  0.4849440000000  0.4448630000000  0.6004330000000 1.0
C      1  0.5880640000000  0.4033650000000  0.4971760000000 1.0
C      1  0.5008920000000  0.5259480000000  0.4261460000000 1.0
C      1  0.3894250000000  0.5184730000000  0.4510660000000 1.0
C      1  0.5551280000000  0.5358310000000  0.4749030000000 1.0
C      1  0.4497530000000  0.5818440000000  0.5628770000000 1.0
C      1  0.5359740000000  0.4928280000000  0.4671760000000 1.0
C      1  0.4136290000000  0.4612960000000  0.5251260000000 1.0
C      1  0.4737540000000  0.4929420000000  0.5992270000000 1.0
C      1  0.5784260000000  0.4372670000000  0.4275200000000 1.0
C      1  0.5286440000000  0.6160900000000  0.5247130000000 1.0
C      1  0.4952440000000  0.4220970000000  0.5878100000000 1.0
C      1  0.4750950000000  0.5849410000000  0.5502110000000 1.0
C      1  0.5377770000000  0.3972620000000  0.6042600000000 1.0
C      1  0.4844810000000  0.5581870000000  0.5423530000000 1.0
C      1  0.4916100000000  0.5561410000000  0.4951690000000 1.0
C      1  0.5317590000000  0.6155880000000  0.4515470000000 1.0
C      1  0.5606260000000  0.5133080000000  0.5179150000000 1.0
C      1  0.5948120000000  0.4810240000000  0.5411250000000 1.0
C      1  0.5265990000000  0.5484600000000  0.6206510000000 1.0
C      1  0.6063160000000  0.5531620000000  0.4677930000000 1.0
C      1  0.4350730000000  0.5097960000000  0.5769870000000 1.0
C      1  0.4807810000000  0.4301190000000  0.4751230000000 1.0
C      1  0.4696090000000  0.4660240000000  0.5904070000000 1.0
C      1  0.3867230000000  0.4489230000000  0.4818390000000 1.0
C      1  0.4765180000000  0.4293640000000  0.4239090000000 1.0
C      1  0.4468780000000  0.5848920000000  0.4937240000000 1.0
C      1  0.5514290000000  0.6108490000000  0.5414180000000 1.0
C      1  0.5843710000000  0.4117050000000  0.5238400000000 1.0
END
