TITL C-612604-1799-41 0.70425743462741 125000 -1198.73183244034 0 0 196 (C1) n - 1
REM
REM in /home/nfs/bkarasulu/CARBON/AIRSS/Generating-Clusters/TERSOFF/Only-C1/FIRE-HFTN
REM
REM
REM
REM
REM
REM ./C.cell (11c1c37f851c82e70ff6c80c92926a4b)
REM AIRSS Version 0.9.1 bugfix July 2018 build 013d7b7c2542+ Fri, 06 Jul 2018 19:26:36 +0100
REM compiler GCC version 9.2.1 20190827 (Red Hat 9.2.1-1)
REM options -cpp -mtune=generic -march=x86-64 -g -O0 -fpre-include=/usr/include/finclude/math-vector-fortran.h
REM seed 1576158856 1718306579 -954311546 735674058 327904584 1922583545 1807469279 -769410163 649362410 702766675 -1571174360 768677781 -453132338 -1585677237 -347138856 1070772793 758998985 1610814284 591298438 1357869233 1938078585 1754876876 -64439944 738577106 -403067787 426195629 771817349 -431140843 -735741209 508575199 -1124257317 -957057647 281201647
REM
CELL 1.54180   50.00000   50.00000   50.00000   90.00000   90.00000   90.00000
LATT -1
SFAC C  
C      1  0.5131590000000  0.5759430000000  0.4046880000000 1.0
C      1  0.5404000000000  0.5302200000000  0.3930200000000 1.0
C      1  0.5802380000000  0.5090940000000  0.4199800000000 1.0
C      1  0.3908640000000  0.4538920000000  0.5150920000000 1.0
C      1  0.5143810000000  0.5709410000000  0.5011940000000 1.0
C      1  0.4820510000000  0.4798750000000  0.6079870000000 1.0
C      1  0.5706410000000  0.3906500000000  0.5189490000000 1.0
C      1  0.4244940000000  0.4318240000000  0.4209800000000 1.0
C      1  0.4162240000000  0.5626720000000  0.4808810000000 1.0
C      1  0.5610330000000  0.3932610000000  0.4503860000000 1.0
C      1  0.6190060000000  0.5107300000000  0.5990750000000 1.0
C      1  0.4568200000000  0.4318520000000  0.6575000000000 1.0
C      1  0.5403640000000  0.4689400000000  0.5337800000000 1.0
C      1  0.3839100000000  0.5009240000000  0.5054360000000 1.0
C      1  0.4616960000000  0.4997980000000  0.6004520000000 1.0
C      1  0.3831470000000  0.4650600000000  0.4709430000000 1.0
C      1  0.4314240000000  0.5093180000000  0.6376500000000 1.0
C      1  0.5864100000000  0.4875930000000  0.5714180000000 1.0
C      1  0.4834140000000  0.5543270000000  0.6201280000000 1.0
C      1  0.4501160000000  0.5229370000000  0.4397530000000 1.0
C      1  0.5205960000000  0.5502750000000  0.5810780000000 1.0
C      1  0.5698340000000  0.4418350000000  0.4462930000000 1.0
C      1  0.4340510000000  0.5291340000000  0.5452090000000 1.0
C      1  0.4674150000000  0.5006730000000  0.4329660000000 1.0
C      1  0.4131080000000  0.4182130000000  0.5474010000000 1.0
C      1  0.5376350000000  0.6166220000000  0.4237030000000 1.0
C      1  0.5439730000000  0.4871940000000  0.5557350000000 1.0
C      1  0.5035320000000  0.4850510000000  0.5123870000000 1.0
C      1  0.4056890000000  0.5033730000000  0.4599340000000 1.0
C      1  0.5854640000000  0.4321900000000  0.5420750000000 1.0
C      1  0.4087060000000  0.4791140000000  0.3979740000000 1.0
C      1  0.5147880000000  0.6004280000000  0.4207520000000 1.0
C      1  0.3870170000000  0.4955260000000  0.4067690000000 1.0
C      1  0.6826360000000  0.4355940000000  0.5276350000000 1.0
C      1  0.3789020000000  0.4728670000000  0.4982730000000 1.0
C      1  0.5539620000000  0.4324910000000  0.3927120000000 1.0
C      1  0.5058200000000  0.5552580000000  0.4567650000000 1.0
C      1  0.5769300000000  0.4924660000000  0.4433430000000 1.0
C      1  0.7322050000000  0.4238940000000  0.5145860000000 1.0
C      1  0.5012320000000  0.4327040000000  0.5981800000000 1.0
C      1  0.4793280000000  0.5603980000000  0.4497100000000 1.0
C      1  0.5239860000000  0.4457440000000  0.5844380000000 1.0
C      1  0.4742340000000  0.3603180000000  0.5243240000000 1.0
C      1  0.4398420000000  0.5176930000000  0.3806640000000 1.0
C      1  0.5328140000000  0.6617910000000  0.4529330000000 1.0
C      1  0.4323990000000  0.3994850000000  0.5370100000000 1.0
C      1  0.4873970000000  0.6093710000000  0.4271400000000 1.0
C      1  0.5567770000000  0.4171420000000  0.4376320000000 1.0
C      1  0.4106080000000  0.5785280000000  0.5077260000000 1.0
C      1  0.4282890000000  0.4936840000000  0.3835390000000 1.0
C      1  0.5059210000000  0.4080750000000  0.5567720000000 1.0
C      1  0.4533230000000  0.5504270000000  0.4480710000000 1.0
C      1  0.5609360000000  0.6103570000000  0.4107930000000 1.0
C      1  0.6050390000000  0.4533880000000  0.5413040000000 1.0
C      1  0.5822640000000  0.5538030000000  0.4488270000000 1.0
C      1  0.4208010000000  0.5864670000000  0.5920580000000 1.0
C      1  0.4878950000000  0.4612500000000  0.5504130000000 1.0
C      1  0.4382100000000  0.5753030000000  0.6096820000000 1.0
C      1  0.4948420000000  0.5312590000000  0.4074260000000 1.0
C      1  0.4188110000000  0.4715190000000  0.5588950000000 1.0
C      1  0.5135380000000  0.5269880000000  0.5668430000000 1.0
C      1  0.5040140000000  0.4858010000000  0.5903550000000 1.0
C      1  0.5719110000000  0.5224560000000  0.6042170000000 1.0
C      1  0.6575290000000  0.4415350000000  0.5336750000000 1.0
C      1  0.5320040000000  0.4837120000000  0.5120910000000 1.0
C      1  0.4616200000000  0.4115510000000  0.5741640000000 1.0
C      1  0.4983790000000  0.4684960000000  0.3763270000000 1.0
C      1  0.4167470000000  0.4475270000000  0.5128910000000 1.0
C      1  0.5527960000000  0.4482430000000  0.5807360000000 1.0
C      1  0.5722780000000  0.4315680000000  0.4933580000000 1.0
C      1  0.5663690000000  0.5231110000000  0.4016960000000 1.0
C      1  0.5448870000000  0.4364210000000  0.4893950000000 1.0
C      1  0.5483950000000  0.5297320000000  0.5305440000000 1.0
C      1  0.5117950000000  0.4255710000000  0.4127080000000 1.0
C      1  0.5106050000000  0.5491800000000  0.4836130000000 1.0
C      1  0.5164040000000  0.4891100000000  0.4242830000000 1.0
C      1  0.4374000000000  0.5106740000000  0.6110400000000 1.0
C      1  0.4132370000000  0.5309050000000  0.5659190000000 1.0
C      1  0.5677840000000  0.5493320000000  0.5959700000000 1.0
C      1  0.6042140000000  0.5687440000000  0.4368450000000 1.0
C      1  0.5223100000000  0.4953930000000  0.4515670000000 1.0
C      1  0.4170450000000  0.5352410000000  0.4922700000000 1.0
C      1  0.4323170000000  0.4665690000000  0.4509970000000 1.0
C      1  0.5363310000000  0.5149630000000  0.5531770000000 1.0
C      1  0.4949550000000  0.4190030000000  0.4345420000000 1.0
C      1  0.6395620000000  0.4490510000000  0.4671950000000 1.0
C      1  0.4663300000000  0.3670200000000  0.5508750000000 1.0
C      1  0.5559920000000  0.5627700000000  0.4545770000000 1.0
C      1  0.4517810000000  0.3905770000000  0.5571970000000 1.0
C      1  0.4549490000000  0.4158480000000  0.4639300000000 1.0
C      1  0.5178420000000  0.4740370000000  0.4683380000000 1.0
C      1  0.4244050000000  0.5372320000000  0.5196730000000 1.0
C      1  0.4658370000000  0.5706070000000  0.6048710000000 1.0
C      1  0.4620840000000  0.5409470000000  0.4952520000000 1.0
C      1  0.4266120000000  0.5632540000000  0.4531420000000 1.0
C      1  0.4920150000000  0.5048410000000  0.4184080000000 1.0
C      1  0.3892970000000  0.5366580000000  0.5470760000000 1.0
C      1  0.4762250000000  0.6160270000000  0.4521140000000 1.0
C      1  0.4707580000000  0.4410640000000  0.6375040000000 1.0
C      1  0.4923620000000  0.5743930000000  0.5182040000000 1.0
C      1  0.5695090000000  0.4300140000000  0.5660900000000 1.0
C      1  0.5227930000000  0.5472160000000  0.4115980000000 1.0
C      1  0.5311250000000  0.5479690000000  0.4417350000000 1.0
C      1  0.4844370000000  0.5276640000000  0.5310770000000 1.0
C      1  0.5868660000000  0.4388200000000  0.4698520000000 1.0
C      1  0.4475430000000  0.5427290000000  0.3911300000000 1.0
C      1  0.5955770000000  0.5313320000000  0.4637620000000 1.0
C      1  0.4320950000000  0.5965630000000  0.5170980000000 1.0
C      1  0.5428800000000  0.5718220000000  0.5027320000000 1.0
C      1  0.4465350000000  0.4829070000000  0.5605510000000 1.0
C      1  0.5733050000000  0.5031940000000  0.4963280000000 1.0
C      1  0.4622170000000  0.6149090000000  0.4750580000000 1.0
C      1  0.4474920000000  0.6096190000000  0.4969440000000 1.0
C      1  0.4637950000000  0.5049090000000  0.5712160000000 1.0
C      1  0.4497320000000  0.6112160000000  0.3942220000000 1.0
C      1  0.4628190000000  0.4589150000000  0.5623340000000 1.0
C      1  0.4749890000000  0.5516060000000  0.5184060000000 1.0
C      1  0.5625330000000  0.4683460000000  0.4363200000000 1.0
C      1  0.5182170000000  0.5249970000000  0.4948340000000 1.0
C      1  0.5929190000000  0.5069820000000  0.5915530000000 1.0
C      1  0.5406380000000  0.4734940000000  0.4164650000000 1.0
C      1  0.5692950000000  0.6040530000000  0.4779680000000 1.0
C      1  0.5217130000000  0.3756610000000  0.5117770000000 1.0
C      1  0.5408770000000  0.4177260000000  0.4141690000000 1.0
C      1  0.5152580000000  0.6055680000000  0.5472830000000 1.0
C      1  0.3851230000000  0.5084840000000  0.5343980000000 1.0
C      1  0.4558330000000  0.3709610000000  0.5052930000000 1.0
C      1  0.5352950000000  0.5198780000000  0.4524630000000 1.0
C      1  0.4615840000000  0.4642650000000  0.5063190000000 1.0
C      1  0.5258250000000  0.4507450000000  0.4778990000000 1.0
C      1  0.5262190000000  0.5132420000000  0.3743080000000 1.0
C      1  0.3994560000000  0.5147660000000  0.4850600000000 1.0
C      1  0.4714750000000  0.5989490000000  0.4049180000000 1.0
C      1  0.4026000000000  0.5562670000000  0.5278040000000 1.0
C      1  0.6285850000000  0.5585290000000  0.4453800000000 1.0
C      1  0.4836440000000  0.4140790000000  0.4602430000000 1.0
C      1  0.5159990000000  0.4184130000000  0.5322470000000 1.0
C      1  0.7076320000000  0.4296930000000  0.5210830000000 1.0
C      1  0.4737110000000  0.5829040000000  0.5806400000000 1.0
C      1  0.4216760000000  0.5950980000000  0.5664400000000 1.0
C      1  0.5014230000000  0.3569160000000  0.5174610000000 1.0
C      1  0.3876040000000  0.5446020000000  0.4247570000000 1.0
C      1  0.4859740000000  0.5204080000000  0.5585940000000 1.0
C      1  0.6321260000000  0.4474980000000  0.5382060000000 1.0
C      1  0.4194480000000  0.5230070000000  0.5922500000000 1.0
C      1  0.5436350000000  0.5602860000000  0.5907980000000 1.0
C      1  0.5606090000000  0.4757480000000  0.5754630000000 1.0
C      1  0.5033680000000  0.5379750000000  0.6283240000000 1.0
C      1  0.4415000000000  0.3953290000000  0.5093290000000 1.0
C      1  0.5118290000000  0.4026210000000  0.5084350000000 1.0
C      1  0.5088350000000  0.4666240000000  0.5696870000000 1.0
C      1  0.4896580000000  0.4132220000000  0.5797430000000 1.0
C      1  0.5496300000000  0.3741380000000  0.5154420000000 1.0
C      1  0.4550030000000  0.4888540000000  0.4936410000000 1.0
C      1  0.4483690000000  0.4365130000000  0.5714690000000 1.0
C      1  0.5360140000000  0.6399340000000  0.4391030000000 1.0
C      1  0.4427460000000  0.4431460000000  0.5035310000000 1.0
C      1  0.4139120000000  0.4522990000000  0.4065380000000 1.0
C      1  0.4061500000000  0.4751650000000  0.4582120000000 1.0
C      1  0.5392350000000  0.4570580000000  0.3931920000000 1.0
C      1  0.4910740000000  0.5942040000000  0.5380870000000 1.0
C      1  0.5504450000000  0.5140900000000  0.6213020000000 1.0
C      1  0.3801290000000  0.5203570000000  0.4151100000000 1.0
C      1  0.5850960000000  0.6246550000000  0.4802440000000 1.0
C      1  0.5896370000000  0.4944400000000  0.5191830000000 1.0
C      1  0.4849220000000  0.5754480000000  0.3950080000000 1.0
C      1  0.4577110000000  0.5149630000000  0.4885240000000 1.0
C      1  0.4232140000000  0.5153600000000  0.4422510000000 1.0
C      1  0.4461830000000  0.4175080000000  0.4914760000000 1.0
C      1  0.4376870000000  0.4194610000000  0.4413030000000 1.0
C      1  0.4981910000000  0.5122670000000  0.5116310000000 1.0
C      1  0.4842730000000  0.4511240000000  0.6151650000000 1.0
C      1  0.4558510000000  0.4756870000000  0.4406100000000 1.0
C      1  0.5554230000000  0.5797360000000  0.4783430000000 1.0
C      1  0.4750080000000  0.5487010000000  0.3951570000000 1.0
C      1  0.6143120000000  0.4429190000000  0.4691680000000 1.0
C      1  0.4280280000000  0.5590490000000  0.4041040000000 1.0
C      1  0.4681830000000  0.5930990000000  0.5546460000000 1.0
C      1  0.5571050000000  0.5777540000000  0.5467900000000 1.0
C      1  0.5259340000000  0.5229840000000  0.6291220000000 1.0
C      1  0.3964240000000  0.4871590000000  0.5510240000000 1.0
C      1  0.5823720000000  0.5064890000000  0.4687560000000 1.0
C      1  0.5963750000000  0.4809290000000  0.5441870000000 1.0
C      1  0.5105020000000  0.4479420000000  0.3922130000000 1.0
C      1  0.4991790000000  0.4090860000000  0.4837790000000 1.0
C      1  0.4114230000000  0.5601480000000  0.4276540000000 1.0
C      1  0.5090650000000  0.4927330000000  0.3691370000000 1.0
C      1  0.4407140000000  0.5962740000000  0.5452120000000 1.0
C      1  0.5448620000000  0.5118450000000  0.5049600000000 1.0
C      1  0.5407390000000  0.5985970000000  0.5524430000000 1.0
C      1  0.6240890000000  0.5366520000000  0.4618670000000 1.0
C      1  0.5532690000000  0.5585350000000  0.5263310000000 1.0
C      1  0.4207810000000  0.4414960000000  0.5624430000000 1.0
C      1  0.4856090000000  0.4661600000000  0.5222030000000 1.0
C      1  0.5790350000000  0.4177800000000  0.5177870000000 1.0
C      1  0.5323560000000  0.4416120000000  0.5336050000000 1.0
END
