TITL C-612607-4507-403 4.44576900909168 125000 -204.244700647476 0 0 35 (C1) n - 1
REM
REM in /home/nfs/bkarasulu/CARBON/AIRSS/Generating-Clusters/TERSOFF/Only-C1/FIRE-HFTN
REM
REM
REM
REM
REM
REM ./C.cell (11c1c37f851c82e70ff6c80c92926a4b)
REM AIRSS Version 0.9.1 bugfix July 2018 build 013d7b7c2542+ Fri, 06 Jul 2018 19:26:36 +0100
REM compiler GCC version 9.2.1 20190827 (Red Hat 9.2.1-1)
REM options -cpp -mtune=generic -march=x86-64 -g -O0 -fpre-include=/usr/include/finclude/math-vector-fortran.h
REM seed -1041625276 -667874569 -1284608988 -415525947 -436780101 -725866133 -1541451632 369958211 -129578410 -1976086872 -1990188392 236991452 -1446890721 -1804407406 38844350 -1154589985 1362814542 404174852 -98364998 -1237006251 -679970525 -131012400 -1253782795 158530603 -622457191 1719402256 643538375 -705812006 -794651895 728611222 298044508 -526982954 1564031538
REM
CELL 1.54180   50.00000   50.00000   50.00000   90.00000   90.00000   90.00000
LATT -1
SFAC C  
C      1  0.4655340000000  0.5130150000000  0.5714710000000 1.0
C      1  0.5286280000000  0.5579990000000  0.5144930000000 1.0
C      1  0.5551550000000  0.4025450000000  0.3990880000000 1.0
C      1  0.4842580000000  0.4730350000000  0.4335020000000 1.0
C      1  0.5259930000000  0.4337620000000  0.4901900000000 1.0
C      1  0.4367280000000  0.5649810000000  0.5060330000000 1.0
C      1  0.4652100000000  0.5588500000000  0.5921340000000 1.0
C      1  0.5359090000000  0.5190280000000  0.4854510000000 1.0
C      1  0.5003440000000  0.4548130000000  0.4229520000000 1.0
C      1  0.4959700000000  0.5761470000000  0.5486510000000 1.0
C      1  0.5363640000000  0.4200010000000  0.4057500000000 1.0
C      1  0.4777190000000  0.5537600000000  0.5459050000000 1.0
C      1  0.5925560000000  0.3678140000000  0.3864690000000 1.0
C      1  0.4333190000000  0.4897660000000  0.6079530000000 1.0
C      1  0.5381050000000  0.4150490000000  0.4766740000000 1.0
C      1  0.4945640000000  0.4969010000000  0.5289340000000 1.0
C      1  0.4970610000000  0.5219450000000  0.5156610000000 1.0
C      1  0.5145250000000  0.4528700000000  0.5045390000000 1.0
C      1  0.4675340000000  0.5413450000000  0.5698890000000 1.0
C      1  0.4702000000000  0.4919060000000  0.4456860000000 1.0
C      1  0.5740070000000  0.3850390000000  0.3927060000000 1.0
C      1  0.5212240000000  0.5325100000000  0.5048210000000 1.0
C      1  0.5178960000000  0.4373200000000  0.4135690000000 1.0
C      1  0.4805240000000  0.4975130000000  0.5533480000000 1.0
C      1  0.4773160000000  0.5831930000000  0.5928640000000 1.0
C      1  0.4539090000000  0.5289520000000  0.4793200000000 1.0
C      1  0.4551680000000  0.5451740000000  0.5020960000000 1.0
C      1  0.5472630000000  0.5037010000000  0.4670600000000 1.0
C      1  0.4489100000000  0.5008240000000  0.5902380000000 1.0
C      1  0.5577460000000  0.4874850000000  0.4495460000000 1.0
C      1  0.4922350000000  0.5919000000000  0.5718570000000 1.0
C      1  0.4594800000000  0.5109120000000  0.4607270000000 1.0
C      1  0.5182730000000  0.5759770000000  0.5316010000000 1.0
C      1  0.4759190000000  0.5406560000000  0.5207790000000 1.0
C      1  0.5044550000000  0.4733130000000  0.5180420000000 1.0
END
