TITL C-612607-4507-22 9.87316843880112e-07 125000 -589.373792986682 0 0 98 (C1) n - 1
REM
REM in /home/nfs/bkarasulu/CARBON/AIRSS/Generating-Clusters/TERSOFF/Only-C1/FIRE-HFTN
REM
REM
REM
REM
REM
REM ./C.cell (11c1c37f851c82e70ff6c80c92926a4b)
REM AIRSS Version 0.9.1 bugfix July 2018 build 013d7b7c2542+ Fri, 06 Jul 2018 19:26:36 +0100
REM compiler GCC version 9.2.1 20190827 (Red Hat 9.2.1-1)
REM options -cpp -mtune=generic -march=x86-64 -g -O0 -fpre-include=/usr/include/finclude/math-vector-fortran.h
REM seed 135557610 -2045100581 -1696345163 -422397951 -1077056176 672806653 1491466074 1940948435 664738524 1040393409 -2050805050 1421917216 1310272223 -660514811 1430382673 -99462613 1215416706 672979458 -1026765424 -458124546 1876997479 549221579 764871403 1204081860 -81837821 -459523563 -1280675142 -1974549313 -1172622121 -1649001672 394251351 850798052 -1028229429
REM
CELL 1.54180   50.00000   50.00000   50.00000   90.00000   90.00000   90.00000
LATT -1
SFAC C  
C      1  0.4755590000000  0.4543940000000  0.5802820000000 1.0
C      1  0.4761570000000  0.4954610000000  0.4836850000000 1.0
C      1  0.4591280000000  0.4725920000000  0.4317170000000 1.0
C      1  0.5343990000000  0.4440580000000  0.3982770000000 1.0
C      1  0.4837280000000  0.5121560000000  0.5337690000000 1.0
C      1  0.5896830000000  0.5009280000000  0.4537530000000 1.0
C      1  0.5457770000000  0.4470900000000  0.5216370000000 1.0
C      1  0.4210800000000  0.4685590000000  0.5237540000000 1.0
C      1  0.5341120000000  0.5975710000000  0.5003780000000 1.0
C      1  0.5622050000000  0.5047990000000  0.4615980000000 1.0
C      1  0.4589690000000  0.4847490000000  0.5024650000000 1.0
C      1  0.4295230000000  0.5308760000000  0.4625300000000 1.0
C      1  0.4315400000000  0.5379560000000  0.5479550000000 1.0
C      1  0.5053670000000  0.4901920000000  0.5701700000000 1.0
C      1  0.5198060000000  0.4161270000000  0.4829530000000 1.0
C      1  0.4461530000000  0.4193530000000  0.5424320000000 1.0
C      1  0.5280880000000  0.5358560000000  0.4650440000000 1.0
C      1  0.4755690000000  0.5241420000000  0.4784710000000 1.0
C      1  0.5913990000000  0.5248650000000  0.4355730000000 1.0
C      1  0.4771530000000  0.4881600000000  0.4137210000000 1.0
C      1  0.5737690000000  0.4822110000000  0.5324410000000 1.0
C      1  0.5062580000000  0.4986790000000  0.5435360000000 1.0
C      1  0.4951410000000  0.5455390000000  0.5711490000000 1.0
C      1  0.4213450000000  0.4900300000000  0.5436670000000 1.0
C      1  0.4051640000000  0.5009300000000  0.4851390000000 1.0
C      1  0.4856380000000  0.5269670000000  0.4519240000000 1.0
C      1  0.4698050000000  0.4457720000000  0.4384450000000 1.0
C      1  0.5645290000000  0.5405700000000  0.4325460000000 1.0
C      1  0.5478060000000  0.5414720000000  0.5365730000000 1.0
C      1  0.5353140000000  0.5811750000000  0.4544230000000 1.0
C      1  0.4217250000000  0.5023420000000  0.4606220000000 1.0
C      1  0.5310260000000  0.4420280000000  0.4750690000000 1.0
C      1  0.4708630000000  0.5153190000000  0.4083370000000 1.0
C      1  0.5965010000000  0.4796360000000  0.4736370000000 1.0
C      1  0.5426490000000  0.5856880000000  0.5502640000000 1.0
C      1  0.5125100000000  0.4544020000000  0.4106980000000 1.0
C      1  0.4552690000000  0.4722540000000  0.5779000000000 1.0
C      1  0.5353180000000  0.5249290000000  0.5179520000000 1.0
C      1  0.4397090000000  0.4935860000000  0.5670840000000 1.0
C      1  0.5389290000000  0.5320580000000  0.4912770000000 1.0
C      1  0.5121070000000  0.4632880000000  0.4829470000000 1.0
C      1  0.5247530000000  0.4406830000000  0.5614340000000 1.0
C      1  0.5405770000000  0.5585430000000  0.5575400000000 1.0
C      1  0.4793020000000  0.5392900000000  0.5249580000000 1.0
C      1  0.5245530000000  0.5442830000000  0.5767870000000 1.0
C      1  0.4999610000000  0.4600220000000  0.5089240000000 1.0
C      1  0.5109390000000  0.4143870000000  0.5119610000000 1.0
C      1  0.4591760000000  0.4358180000000  0.4641910000000 1.0
C      1  0.5172280000000  0.4999870000000  0.5922510000000 1.0
C      1  0.4988240000000  0.4052880000000  0.4661020000000 1.0
C      1  0.4345530000000  0.5369920000000  0.4915080000000 1.0
C      1  0.5859020000000  0.5174930000000  0.5030770000000 1.0
C      1  0.4669230000000  0.4277180000000  0.5273280000000 1.0
C      1  0.5909350000000  0.4906750000000  0.5093470000000 1.0
C      1  0.4535600000000  0.5554940000000  0.4285850000000 1.0
C      1  0.4996830000000  0.4428880000000  0.5752350000000 1.0
C      1  0.4467140000000  0.5228630000000  0.5693330000000 1.0
C      1  0.5539910000000  0.5670260000000  0.4396810000000 1.0
C      1  0.4375550000000  0.4662410000000  0.4998560000000 1.0
C      1  0.5222500000000  0.5010610000000  0.4296070000000 1.0
C      1  0.5413580000000  0.5979110000000  0.5262060000000 1.0
C      1  0.5486320000000  0.4578150000000  0.5688640000000 1.0
C      1  0.5605130000000  0.4424000000000  0.4773560000000 1.0
C      1  0.4360240000000  0.5634250000000  0.5344120000000 1.0
C      1  0.5029860000000  0.5036380000000  0.4502950000000 1.0
C      1  0.5069310000000  0.4824480000000  0.4122070000000 1.0
C      1  0.5011920000000  0.3871470000000  0.4461040000000 1.0
C      1  0.4706290000000  0.5929740000000  0.5033580000000 1.0
C      1  0.4812330000000  0.4521820000000  0.5268440000000 1.0
C      1  0.5256400000000  0.4301160000000  0.5334150000000 1.0
C      1  0.4632120000000  0.5390900000000  0.4993500000000 1.0
C      1  0.4166150000000  0.5171750000000  0.5329830000000 1.0
C      1  0.5438440000000  0.5190190000000  0.4419580000000 1.0
C      1  0.5644420000000  0.5209370000000  0.4854840000000 1.0
C      1  0.4314470000000  0.5510010000000  0.4432510000000 1.0
C      1  0.5642810000000  0.4347750000000  0.5046430000000 1.0
C      1  0.4831210000000  0.6040000000000  0.5266520000000 1.0
C      1  0.4809120000000  0.4125370000000  0.5078580000000 1.0
C      1  0.5285880000000  0.4983160000000  0.5262730000000 1.0
C      1  0.4740610000000  0.4153660000000  0.4787250000000 1.0
C      1  0.4986700000000  0.4841170000000  0.4699550000000 1.0
C      1  0.4464630000000  0.5796630000000  0.5143500000000 1.0
C      1  0.5466120000000  0.4759680000000  0.5226670000000 1.0
C      1  0.4371860000000  0.4788300000000  0.4518510000000 1.0
C      1  0.4711610000000  0.5328080000000  0.5810680000000 1.0
C      1  0.5671730000000  0.4813800000000  0.5622390000000 1.0
C      1  0.4902700000000  0.5860870000000  0.5453810000000 1.0
C      1  0.4734770000000  0.5357980000000  0.4277430000000 1.0
C      1  0.4143450000000  0.5202470000000  0.5051030000000 1.0
C      1  0.4900770000000  0.5890080000000  0.4818890000000 1.0
C      1  0.4390350000000  0.4561700000000  0.4727650000000 1.0
C      1  0.4928470000000  0.4385410000000  0.4237730000000 1.0
C      1  0.5612010000000  0.5062180000000  0.5767490000000 1.0
C      1  0.4889190000000  0.5580430000000  0.5454170000000 1.0
C      1  0.4631770000000  0.4950100000000  0.5275820000000 1.0
C      1  0.5191600000000  0.5894670000000  0.4773590000000 1.0
C      1  0.5833230000000  0.4554030000000  0.4675930000000 1.0
C      1  0.5370890000000  0.5194560000000  0.5867800000000 1.0
END
