TITL C-612606-7351-550 0.0530692661805866 125000 -671.640121286327 0 0 110 (C1) n - 1
REM
REM in /home/nfs/bkarasulu/CARBON/AIRSS/Generating-Clusters/TERSOFF/Only-C1/FIRE-HFTN
REM
REM
REM
REM
REM
REM ./C.cell (11c1c37f851c82e70ff6c80c92926a4b)
REM AIRSS Version 0.9.1 bugfix July 2018 build 013d7b7c2542+ Fri, 06 Jul 2018 19:26:36 +0100
REM compiler GCC version 9.2.1 20190827 (Red Hat 9.2.1-1)
REM options -cpp -mtune=generic -march=x86-64 -g -O0 -fpre-include=/usr/include/finclude/math-vector-fortran.h
REM seed -1700438038 267345598 634561913 -1975287477 738137612 -936489650 -1255679158 340374440 -78280304 109806960 528933010 -1715205672 1125745229 465398803 -184171103 94162162 -991226546 -628455264 -187002200 1618698759 1793163741 -945564608 1518857053 -1867144305 -1402289330 -1731898294 1023316541 -2084374911 802756051 -1304106435 98146784 786793582 -176252139
REM
CELL 1.54180   50.00000   50.00000   50.00000   90.00000   90.00000   90.00000
LATT -1
SFAC C  
C      1  0.4875430000000  0.4931320000000  0.5963850000000 1.0
C      1  0.4707270000000  0.4972130000000  0.5311340000000 1.0
C      1  0.4382100000000  0.5125540000000  0.4283200000000 1.0
C      1  0.5584350000000  0.4529500000000  0.4903770000000 1.0
C      1  0.5876800000000  0.5603050000000  0.5001470000000 1.0
C      1  0.4555350000000  0.5347820000000  0.4348890000000 1.0
C      1  0.4538810000000  0.5353010000000  0.4791800000000 1.0
C      1  0.5072580000000  0.4757280000000  0.5803620000000 1.0
C      1  0.4839850000000  0.5332060000000  0.4379960000000 1.0
C      1  0.4563650000000  0.4252390000000  0.5386750000000 1.0
C      1  0.5242000000000  0.4845460000000  0.5191210000000 1.0
C      1  0.5703630000000  0.5188790000000  0.4275350000000 1.0
C      1  0.5281640000000  0.5460340000000  0.4270540000000 1.0
C      1  0.3960610000000  0.5070290000000  0.4958090000000 1.0
C      1  0.3900430000000  0.5490500000000  0.4617820000000 1.0
C      1  0.5712760000000  0.5216070000000  0.4784050000000 1.0
C      1  0.5020770000000  0.6284570000000  0.5360160000000 1.0
C      1  0.5069110000000  0.5486100000000  0.4471590000000 1.0
C      1  0.4940290000000  0.3967730000000  0.4937840000000 1.0
C      1  0.5390070000000  0.4122060000000  0.5418170000000 1.0
C      1  0.4312520000000  0.5708870000000  0.4422950000000 1.0
C      1  0.5214640000000  0.4965880000000  0.4892690000000 1.0
C      1  0.5294410000000  0.4871360000000  0.4107900000000 1.0
C      1  0.5761160000000  0.6133180000000  0.4401070000000 1.0
C      1  0.5216610000000  0.4572630000000  0.5244820000000 1.0
C      1  0.5080930000000  0.5056880000000  0.4113760000000 1.0
C      1  0.4016730000000  0.5365200000000  0.5390830000000 1.0
C      1  0.5251170000000  0.3905870000000  0.5341660000000 1.0
C      1  0.5084390000000  0.6034000000000  0.5418140000000 1.0
C      1  0.5401270000000  0.5418360000000  0.6144720000000 1.0
C      1  0.4948130000000  0.4305470000000  0.4591710000000 1.0
C      1  0.4651040000000  0.4023940000000  0.4921110000000 1.0
C      1  0.4369220000000  0.4435980000000  0.5005190000000 1.0
C      1  0.5731730000000  0.5128240000000  0.5602990000000 1.0
C      1  0.4455420000000  0.5507850000000  0.4567940000000 1.0
C      1  0.4236600000000  0.4812260000000  0.5531560000000 1.0
C      1  0.4820120000000  0.4573010000000  0.4966660000000 1.0
C      1  0.5624400000000  0.4025110000000  0.4847830000000 1.0
C      1  0.5788100000000  0.4685820000000  0.5427020000000 1.0
C      1  0.4154600000000  0.4555550000000  0.5409380000000 1.0
C      1  0.4887740000000  0.5041780000000  0.4332090000000 1.0
C      1  0.5560570000000  0.5431590000000  0.4328910000000 1.0
C      1  0.5458270000000  0.4422810000000  0.4676210000000 1.0
C      1  0.4885900000000  0.4609030000000  0.5622200000000 1.0
C      1  0.5095830000000  0.5602590000000  0.4726610000000 1.0
C      1  0.5872680000000  0.4463380000000  0.4949410000000 1.0
C      1  0.5253440000000  0.5695800000000  0.5720050000000 1.0
C      1  0.4507370000000  0.4193520000000  0.5103190000000 1.0
C      1  0.4816740000000  0.4390260000000  0.5435480000000 1.0
C      1  0.5074550000000  0.5294850000000  0.5344920000000 1.0
C      1  0.4271110000000  0.5396010000000  0.5817560000000 1.0
C      1  0.4561540000000  0.4039340000000  0.4648070000000 1.0
C      1  0.4035420000000  0.5682320000000  0.4479620000000 1.0
C      1  0.5112050000000  0.5633250000000  0.4993350000000 1.0
C      1  0.4261510000000  0.4977110000000  0.5295760000000 1.0
C      1  0.5387570000000  0.4384820000000  0.5364820000000 1.0
C      1  0.6009340000000  0.4915860000000  0.5040600000000 1.0
C      1  0.4209390000000  0.4794150000000  0.4632970000000 1.0
C      1  0.5365000000000  0.4633630000000  0.4516330000000 1.0
C      1  0.5151240000000  0.5767910000000  0.5470100000000 1.0
C      1  0.4414040000000  0.4897790000000  0.4459920000000 1.0
C      1  0.5472650000000  0.5152400000000  0.4916110000000 1.0
C      1  0.5723050000000  0.4912930000000  0.4353310000000 1.0
C      1  0.4315530000000  0.4334390000000  0.5508300000000 1.0
C      1  0.4958030000000  0.6530700000000  0.5301470000000 1.0
C      1  0.5776610000000  0.5493210000000  0.4759110000000 1.0
C      1  0.4469820000000  0.4845790000000  0.5703330000000 1.0
C      1  0.5477770000000  0.4771110000000  0.4301070000000 1.0
C      1  0.4941950000000  0.5112730000000  0.4931110000000 1.0
C      1  0.4054270000000  0.4796150000000  0.4886110000000 1.0
C      1  0.4062760000000  0.5153810000000  0.5212280000000 1.0
C      1  0.5390690000000  0.4146770000000  0.4724980000000 1.0
C      1  0.4696040000000  0.4935320000000  0.4536870000000 1.0
C      1  0.4492020000000  0.4895980000000  0.5142700000000 1.0
C      1  0.5286670000000  0.5101710000000  0.5341020000000 1.0
C      1  0.5902870000000  0.4828740000000  0.4570900000000 1.0
C      1  0.5691730000000  0.5611190000000  0.4514050000000 1.0
C      1  0.5364770000000  0.4792180000000  0.5744460000000 1.0
C      1  0.5731270000000  0.5879860000000  0.4454410000000 1.0
C      1  0.5113350000000  0.5569440000000  0.5271720000000 1.0
C      1  0.5722010000000  0.5294740000000  0.5369440000000 1.0
C      1  0.5065640000000  0.3846930000000  0.5157560000000 1.0
C      1  0.4716670000000  0.5122020000000  0.4765510000000 1.0
C      1  0.4901540000000  0.5526400000000  0.3958780000000 1.0
C      1  0.4950460000000  0.4563140000000  0.4719360000000 1.0
C      1  0.5633670000000  0.4852410000000  0.5614850000000 1.0
C      1  0.5123940000000  0.5347600000000  0.4040600000000 1.0
C      1  0.4079820000000  0.5497370000000  0.5633890000000 1.0
C      1  0.4584400000000  0.5000070000000  0.5924100000000 1.0
C      1  0.5467400000000  0.5248790000000  0.6331350000000 1.0
C      1  0.5847750000000  0.4159890000000  0.4949170000000 1.0
C      1  0.4873530000000  0.5162020000000  0.5205040000000 1.0
C      1  0.4709030000000  0.4198100000000  0.4481110000000 1.0
C      1  0.4450540000000  0.5247440000000  0.5953300000000 1.0
C      1  0.5931150000000  0.4668910000000  0.5173260000000 1.0
C      1  0.5331940000000  0.5574580000000  0.5942130000000 1.0
C      1  0.3951100000000  0.5732080000000  0.5693610000000 1.0
C      1  0.4468290000000  0.5774060000000  0.4180640000000 1.0
C      1  0.4955860000000  0.4472800000000  0.5194690000000 1.0
C      1  0.3880960000000  0.5268450000000  0.4770310000000 1.0
C      1  0.5984760000000  0.4568430000000  0.4675150000000 1.0
C      1  0.5162210000000  0.4752920000000  0.4678790000000 1.0
C      1  0.5106600000000  0.4104560000000  0.4737860000000 1.0
C      1  0.5872580000000  0.5505940000000  0.5256420000000 1.0
C      1  0.4118710000000  0.4570580000000  0.5097770000000 1.0
C      1  0.4704770000000  0.4816960000000  0.5540870000000 1.0
C      1  0.4553940000000  0.4658010000000  0.4993100000000 1.0
C      1  0.5510410000000  0.5209070000000  0.5202930000000 1.0
C      1  0.4683670000000  0.5684700000000  0.4027910000000 1.0
C      1  0.5912860000000  0.5017310000000  0.4789600000000 1.0
END
