TITL C-612603-7354-1006 0.000298508644062834 125000 -951.433710662527 0 0 158 (C1) n - 1
REM
REM in /home/nfs/bkarasulu/CARBON/AIRSS/Generating-Clusters/TERSOFF/Only-C1/FIRE-HFTN
REM
REM
REM
REM
REM
REM ./C.cell (11c1c37f851c82e70ff6c80c92926a4b)
REM AIRSS Version 0.9.1 bugfix July 2018 build 013d7b7c2542+ Fri, 06 Jul 2018 19:26:36 +0100
REM compiler GCC version 9.2.1 20190827 (Red Hat 9.2.1-1)
REM options -cpp -mtune=generic -march=x86-64 -g -O0 -fpre-include=/usr/include/finclude/math-vector-fortran.h
REM seed -1778920676 -1402566733 231057393 -1692050365 -1193095513 -1848488489 294301491 -2026982060 -145132926 593668846 -1316502472 1701394957 -1465616027 -1574122400 -321827300 -1018492599 -995722701 -1888760247 103415478 -154288730 -321987830 -1115789013 288765880 1387741990 1332515033 -821320541 -372349652 781375779 1358016165 -1411528099 -721479345 -1416901477 938523953
REM
CELL 1.54180   50.00000   50.00000   50.00000   90.00000   90.00000   90.00000
LATT -1
SFAC C  
C      1  0.5947050000000  0.4188480000000  0.4810360000000 1.0
C      1  0.5042770000000  0.5894870000000  0.5665190000000 1.0
C      1  0.4724470000000  0.5354700000000  0.4425770000000 1.0
C      1  0.4427350000000  0.4538350000000  0.4387890000000 1.0
C      1  0.4376380000000  0.5423860000000  0.5638810000000 1.0
C      1  0.4630480000000  0.5376540000000  0.4153330000000 1.0
C      1  0.4569830000000  0.5190200000000  0.4904820000000 1.0
C      1  0.5751900000000  0.4527740000000  0.4182230000000 1.0
C      1  0.4831490000000  0.5942180000000  0.4780670000000 1.0
C      1  0.4246240000000  0.5562510000000  0.4476110000000 1.0
C      1  0.4371510000000  0.4971030000000  0.4983520000000 1.0
C      1  0.5102770000000  0.4920330000000  0.4485950000000 1.0
C      1  0.5248430000000  0.3735540000000  0.4822190000000 1.0
C      1  0.5039510000000  0.5006380000000  0.4750860000000 1.0
C      1  0.4189770000000  0.5779430000000  0.5166430000000 1.0
C      1  0.3860840000000  0.4625120000000  0.5005520000000 1.0
C      1  0.5498480000000  0.4124710000000  0.4672970000000 1.0
C      1  0.5396720000000  0.5209700000000  0.5477230000000 1.0
C      1  0.5088910000000  0.4390800000000  0.4789710000000 1.0
C      1  0.4262450000000  0.4492980000000  0.5811360000000 1.0
C      1  0.4335470000000  0.5394360000000  0.5354390000000 1.0
C      1  0.5634570000000  0.4735030000000  0.5469010000000 1.0
C      1  0.5265110000000  0.4754380000000  0.6351660000000 1.0
C      1  0.5956080000000  0.5098470000000  0.5434040000000 1.0
C      1  0.4689620000000  0.5324270000000  0.6008390000000 1.0
C      1  0.4552060000000  0.4882320000000  0.6119330000000 1.0
C      1  0.4857940000000  0.4925060000000  0.4328160000000 1.0
C      1  0.5219690000000  0.6035690000000  0.5113930000000 1.0
C      1  0.6035720000000  0.4578450000000  0.5304990000000 1.0
C      1  0.4017140000000  0.4931340000000  0.4244390000000 1.0
C      1  0.4209170000000  0.4768430000000  0.5734700000000 1.0
C      1  0.5512070000000  0.5378450000000  0.5280190000000 1.0
C      1  0.4535960000000  0.5178590000000  0.4599410000000 1.0
C      1  0.4927900000000  0.4929560000000  0.5768760000000 1.0
C      1  0.5157610000000  0.5502240000000  0.4990710000000 1.0
C      1  0.4986750000000  0.5306020000000  0.5112870000000 1.0
C      1  0.4547590000000  0.4632440000000  0.4113840000000 1.0
C      1  0.4662770000000  0.4889340000000  0.4552940000000 1.0
C      1  0.4848200000000  0.4144510000000  0.5137950000000 1.0
C      1  0.6035210000000  0.4643630000000  0.4792890000000 1.0
C      1  0.5184240000000  0.5194480000000  0.6139130000000 1.0
C      1  0.4326290000000  0.4290500000000  0.5609290000000 1.0
C      1  0.5158590000000  0.4293600000000  0.4107110000000 1.0
C      1  0.4626100000000  0.5599470000000  0.3997460000000 1.0
C      1  0.5448700000000  0.5287350000000  0.4140530000000 1.0
C      1  0.4339090000000  0.4448720000000  0.4861290000000 1.0
C      1  0.4225420000000  0.5974710000000  0.5369760000000 1.0
C      1  0.5410520000000  0.4909870000000  0.5425560000000 1.0
C      1  0.5439260000000  0.4578560000000  0.6433340000000 1.0
C      1  0.5169640000000  0.5715580000000  0.4080820000000 1.0
C      1  0.5463330000000  0.5296560000000  0.6029770000000 1.0
C      1  0.4659510000000  0.4904610000000  0.4110350000000 1.0
C      1  0.5523680000000  0.5868630000000  0.5505980000000 1.0
C      1  0.4344360000000  0.5929000000000  0.5624990000000 1.0
C      1  0.5392310000000  0.4175940000000  0.4030510000000 1.0
C      1  0.5645180000000  0.5463550000000  0.4273510000000 1.0
C      1  0.5070220000000  0.5012500000000  0.3796890000000 1.0
C      1  0.5685380000000  0.5156050000000  0.5899960000000 1.0
C      1  0.4488720000000  0.5422610000000  0.5091700000000 1.0
C      1  0.6207300000000  0.4851640000000  0.4879650000000 1.0
C      1  0.4932440000000  0.4130990000000  0.4212920000000 1.0
C      1  0.3936650000000  0.4892500000000  0.4520250000000 1.0
C      1  0.4661770000000  0.4599560000000  0.4567660000000 1.0
C      1  0.5843420000000  0.5513270000000  0.4773000000000 1.0
C      1  0.4045500000000  0.5123690000000  0.4658240000000 1.0
C      1  0.4749560000000  0.4477380000000  0.3972450000000 1.0
C      1  0.3710470000000  0.4402380000000  0.5051570000000 1.0
C      1  0.4863240000000  0.5148340000000  0.4913550000000 1.0
C      1  0.4284210000000  0.5677530000000  0.5752250000000 1.0
C      1  0.5844210000000  0.5899670000000  0.4024320000000 1.0
C      1  0.4838050000000  0.6064840000000  0.5714320000000 1.0
C      1  0.4430820000000  0.4188770000000  0.4911500000000 1.0
C      1  0.4762360000000  0.4118300000000  0.5402630000000 1.0
C      1  0.4400630000000  0.5776720000000  0.4541230000000 1.0
C      1  0.5190040000000  0.5884660000000  0.3863160000000 1.0
C      1  0.5454430000000  0.4941640000000  0.4068240000000 1.0
C      1  0.4751560000000  0.4707430000000  0.5415110000000 1.0
C      1  0.5865780000000  0.5184860000000  0.5694020000000 1.0
C      1  0.4382360000000  0.4965830000000  0.5886720000000 1.0
C      1  0.5802880000000  0.4311040000000  0.4338370000000 1.0
C      1  0.4726360000000  0.4190930000000  0.4017630000000 1.0
C      1  0.6144230000000  0.4384480000000  0.4777670000000 1.0
C      1  0.4426940000000  0.5701210000000  0.5001250000000 1.0
C      1  0.3920320000000  0.5085730000000  0.5135610000000 1.0
C      1  0.3912280000000  0.4815410000000  0.5232800000000 1.0
C      1  0.5103790000000  0.5568120000000  0.4716500000000 1.0
C      1  0.4254720000000  0.5263580000000  0.4492620000000 1.0
C      1  0.4212070000000  0.4505040000000  0.4600920000000 1.0
C      1  0.4037240000000  0.4789040000000  0.5497470000000 1.0
C      1  0.4720730000000  0.4431490000000  0.5806530000000 1.0
C      1  0.3969150000000  0.4653170000000  0.4669950000000 1.0
C      1  0.5396860000000  0.5852090000000  0.5247130000000 1.0
C      1  0.4233980000000  0.5121030000000  0.4214920000000 1.0
C      1  0.5633570000000  0.4439840000000  0.5459290000000 1.0
C      1  0.4490330000000  0.5133700000000  0.4083380000000 1.0
C      1  0.5854130000000  0.4348860000000  0.5284210000000 1.0
C      1  0.5096380000000  0.5839520000000  0.4330430000000 1.0
C      1  0.5749530000000  0.4706980000000  0.4754210000000 1.0
C      1  0.6048630000000  0.5230050000000  0.5187160000000 1.0
C      1  0.5734010000000  0.5692780000000  0.4138260000000 1.0
C      1  0.5524460000000  0.5580500000000  0.5956040000000 1.0
C      1  0.5198600000000  0.4767160000000  0.5289550000000 1.0
C      1  0.5767350000000  0.4165230000000  0.4583040000000 1.0
C      1  0.4676540000000  0.4051920000000  0.4925860000000 1.0
C      1  0.4403790000000  0.4689220000000  0.5003900000000 1.0
C      1  0.5838030000000  0.5122850000000  0.4518360000000 1.0
C      1  0.5342960000000  0.4779470000000  0.4484450000000 1.0
C      1  0.6229380000000  0.5065950000000  0.5038970000000 1.0
C      1  0.4967270000000  0.5175560000000  0.5622550000000 1.0
C      1  0.4850620000000  0.4139580000000  0.4484480000000 1.0
C      1  0.3869780000000  0.5342640000000  0.5238910000000 1.0
C      1  0.4079450000000  0.5527140000000  0.5271720000000 1.0
C      1  0.5052820000000  0.4551120000000  0.3994760000000 1.0
C      1  0.4741470000000  0.5706130000000  0.5384440000000 1.0
C      1  0.5492180000000  0.4277000000000  0.5626310000000 1.0
C      1  0.4805030000000  0.3942510000000  0.4689550000000 1.0
C      1  0.5049260000000  0.4331620000000  0.5063770000000 1.0
C      1  0.4926300000000  0.5149380000000  0.5343540000000 1.0
C      1  0.5571000000000  0.5758420000000  0.5752000000000 1.0
C      1  0.5700130000000  0.4806710000000  0.4145190000000 1.0
C      1  0.4867950000000  0.4404360000000  0.4608200000000 1.0
C      1  0.5357710000000  0.4367570000000  0.4702730000000 1.0
C      1  0.5223540000000  0.5433100000000  0.4029070000000 1.0
C      1  0.5047560000000  0.5631720000000  0.6031990000000 1.0
C      1  0.4936200000000  0.4871260000000  0.5283030000000 1.0
C      1  0.4552690000000  0.5831130000000  0.4776040000000 1.0
C      1  0.5077170000000  0.5280060000000  0.3839930000000 1.0
C      1  0.4941790000000  0.6017060000000  0.5039400000000 1.0
C      1  0.4783090000000  0.5926130000000  0.5249980000000 1.0
C      1  0.5116010000000  0.5632630000000  0.5750010000000 1.0
C      1  0.4614190000000  0.4238020000000  0.5603930000000 1.0
C      1  0.5778090000000  0.5396270000000  0.4518250000000 1.0
C      1  0.4129350000000  0.5676020000000  0.5979180000000 1.0
C      1  0.5202340000000  0.4492470000000  0.5232600000000 1.0
C      1  0.5497910000000  0.4607090000000  0.4649890000000 1.0
C      1  0.5459990000000  0.3913050000000  0.4862740000000 1.0
C      1  0.5069320000000  0.5839320000000  0.6206620000000 1.0
C      1  0.5205510000000  0.4809200000000  0.3951080000000 1.0
C      1  0.5030930000000  0.5826890000000  0.4607560000000 1.0
C      1  0.4569190000000  0.6075610000000  0.5712420000000 1.0
C      1  0.4981150000000  0.5395430000000  0.4528850000000 1.0
C      1  0.5087790000000  0.4941210000000  0.6245080000000 1.0
C      1  0.4475790000000  0.5237090000000  0.5829770000000 1.0
C      1  0.4109470000000  0.5081940000000  0.4927060000000 1.0
C      1  0.6406620000000  0.4328850000000  0.4732740000000 1.0
C      1  0.4996060000000  0.3739870000000  0.4730600000000 1.0
C      1  0.4493840000000  0.4457470000000  0.5990990000000 1.0
C      1  0.5747200000000  0.4989090000000  0.4744880000000 1.0
C      1  0.5637450000000  0.3942050000000  0.5083090000000 1.0
C      1  0.5905480000000  0.4818930000000  0.5400710000000 1.0
C      1  0.5933450000000  0.5437540000000  0.5021550000000 1.0
C      1  0.5188000000000  0.5360340000000  0.5639730000000 1.0
C      1  0.4812760000000  0.4675570000000  0.5693990000000 1.0
C      1  0.5838660000000  0.4146380000000  0.5080130000000 1.0
C      1  0.5881860000000  0.4977700000000  0.4281840000000 1.0
C      1  0.4802230000000  0.4884140000000  0.6233000000000 1.0
C      1  0.4956470000000  0.5377270000000  0.6101250000000 1.0
C      1  0.5381340000000  0.5585690000000  0.5142200000000 1.0
END
