TITL C-612603-7354-554 0.369152616934461 125000 -585.724116256031 0 0 97 (C1) n - 1
REM
REM in /home/nfs/bkarasulu/CARBON/AIRSS/Generating-Clusters/TERSOFF/Only-C1/FIRE-HFTN
REM
REM
REM
REM
REM
REM ./C.cell (11c1c37f851c82e70ff6c80c92926a4b)
REM AIRSS Version 0.9.1 bugfix July 2018 build 013d7b7c2542+ Fri, 06 Jul 2018 19:26:36 +0100
REM compiler GCC version 9.2.1 20190827 (Red Hat 9.2.1-1)
REM options -cpp -mtune=generic -march=x86-64 -g -O0 -fpre-include=/usr/include/finclude/math-vector-fortran.h
REM seed -679015922 588179921 -200448912 1230122267 -1093511693 20584536 -831028421 1096570069 -1729973016 216890719 -1371875102 -1331845555 -1778390720 -995186095 -93972181 1867502930 1869637790 -1629094716 -1312766437 1290797678 1577757587 836784908 1401106281 300253004 -2114101626 1621357833 -1144856858 518380114 -958908923 852971367 1895704206 799673031 1074252599
REM
CELL 1.54180   50.00000   50.00000   50.00000   90.00000   90.00000   90.00000
LATT -1
SFAC C  
C      1  0.5582560000000  0.5660250000000  0.4636630000000 1.0
C      1  0.5427930000000  0.5203090000000  0.5607490000000 1.0
C      1  0.5660700000000  0.5322150000000  0.5498360000000 1.0
C      1  0.5600340000000  0.4501450000000  0.4501970000000 1.0
C      1  0.5029900000000  0.5649430000000  0.5822940000000 1.0
C      1  0.4373410000000  0.5655360000000  0.5641770000000 1.0
C      1  0.4578240000000  0.4647150000000  0.3909630000000 1.0
C      1  0.5246610000000  0.5008520000000  0.4847860000000 1.0
C      1  0.4952880000000  0.4238640000000  0.4331990000000 1.0
C      1  0.4497320000000  0.4251640000000  0.4969010000000 1.0
C      1  0.4882840000000  0.5411080000000  0.4895570000000 1.0
C      1  0.5358910000000  0.5112290000000  0.4147390000000 1.0
C      1  0.5344020000000  0.4627680000000  0.5494850000000 1.0
C      1  0.4496940000000  0.4769800000000  0.5366920000000 1.0
C      1  0.5121560000000  0.5375360000000  0.5057080000000 1.0
C      1  0.5164750000000  0.4546430000000  0.4911460000000 1.0
C      1  0.4921360000000  0.3911360000000  0.5100530000000 1.0
C      1  0.5513420000000  0.4197540000000  0.4921260000000 1.0
C      1  0.5158350000000  0.5617140000000  0.4454610000000 1.0
C      1  0.5030360000000  0.5019960000000  0.4657510000000 1.0
C      1  0.4996520000000  0.4773390000000  0.4528980000000 1.0
C      1  0.4718020000000  0.4839040000000  0.5204040000000 1.0
C      1  0.4728650000000  0.4469250000000  0.5690920000000 1.0
C      1  0.5637610000000  0.5241750000000  0.4996790000000 1.0
C      1  0.4533510000000  0.4808940000000  0.4739650000000 1.0
C      1  0.5354710000000  0.5252020000000  0.4950660000000 1.0
C      1  0.4123610000000  0.5409190000000  0.5272940000000 1.0
C      1  0.4230740000000  0.5171760000000  0.5132030000000 1.0
C      1  0.4810730000000  0.5200190000000  0.4716350000000 1.0
C      1  0.4651890000000  0.5494700000000  0.5295310000000 1.0
C      1  0.5753080000000  0.5195360000000  0.5257310000000 1.0
C      1  0.5668630000000  0.4777940000000  0.4477960000000 1.0
C      1  0.4323850000000  0.5700720000000  0.4628280000000 1.0
C      1  0.5491730000000  0.5234430000000  0.4365590000000 1.0
C      1  0.5289090000000  0.4833150000000  0.5305090000000 1.0
C      1  0.5066330000000  0.5275660000000  0.5317580000000 1.0
C      1  0.4390700000000  0.6134520000000  0.4433350000000 1.0
C      1  0.4893810000000  0.4148490000000  0.5234570000000 1.0
C      1  0.5255880000000  0.5093480000000  0.5409870000000 1.0
C      1  0.4518640000000  0.6085470000000  0.5798170000000 1.0
C      1  0.5018330000000  0.4528380000000  0.4674450000000 1.0
C      1  0.4825530000000  0.5332110000000  0.5447790000000 1.0
C      1  0.4644200000000  0.4300600000000  0.5216780000000 1.0
C      1  0.5894180000000  0.4954570000000  0.5300370000000 1.0
C      1  0.5421670000000  0.5500160000000  0.4459900000000 1.0
C      1  0.4494810000000  0.5910630000000  0.4551520000000 1.0
C      1  0.4847380000000  0.4316760000000  0.4587530000000 1.0
C      1  0.4303340000000  0.4986420000000  0.5368110000000 1.0
C      1  0.4260780000000  0.4111410000000  0.4986420000000 1.0
C      1  0.4858850000000  0.5233370000000  0.3734890000000 1.0
C      1  0.5104940000000  0.4598360000000  0.4030240000000 1.0
C      1  0.4750260000000  0.5219750000000  0.5692920000000 1.0
C      1  0.4389310000000  0.4597640000000  0.4090880000000 1.0
C      1  0.4772080000000  0.5892030000000  0.4595600000000 1.0
C      1  0.5337230000000  0.4360460000000  0.5387210000000 1.0
C      1  0.5092030000000  0.5919390000000  0.5137130000000 1.0
C      1  0.5083190000000  0.4230060000000  0.5431850000000 1.0
C      1  0.4761050000000  0.4668560000000  0.5889320000000 1.0
C      1  0.4946790000000  0.4285980000000  0.5674820000000 1.0
C      1  0.5474540000000  0.5826150000000  0.4826090000000 1.0
C      1  0.5799220000000  0.4463370000000  0.5182370000000 1.0
C      1  0.4950420000000  0.5008870000000  0.3852490000000 1.0
C      1  0.4872460000000  0.5799360000000  0.5634990000000 1.0
C      1  0.4587910000000  0.5841530000000  0.5689420000000 1.0
C      1  0.5352270000000  0.4712100000000  0.5766110000000 1.0
C      1  0.4583850000000  0.4339610000000  0.4704710000000 1.0
C      1  0.5034780000000  0.5804850000000  0.4637610000000 1.0
C      1  0.5784840000000  0.5538680000000  0.5607530000000 1.0
C      1  0.5163420000000  0.4386120000000  0.4198740000000 1.0
C      1  0.5677050000000  0.4356450000000  0.4734060000000 1.0
C      1  0.4833750000000  0.4738810000000  0.3868050000000 1.0
C      1  0.4536100000000  0.5092860000000  0.4725410000000 1.0
C      1  0.4570170000000  0.4493180000000  0.5443980000000 1.0
C      1  0.5160710000000  0.5434940000000  0.5925790000000 1.0
C      1  0.5667880000000  0.5060130000000  0.4518950000000 1.0
C      1  0.5211920000000  0.4915170000000  0.5917290000000 1.0
C      1  0.4243540000000  0.5470040000000  0.4735890000000 1.0
C      1  0.4950630000000  0.4833010000000  0.5990590000000 1.0
C      1  0.4291850000000  0.5157770000000  0.5612020000000 1.0
C      1  0.5883480000000  0.4688550000000  0.5323400000000 1.0
C      1  0.4219940000000  0.5435860000000  0.5543340000000 1.0
C      1  0.5421580000000  0.4385860000000  0.4316340000000 1.0
C      1  0.4320200000000  0.5227220000000  0.4859650000000 1.0
C      1  0.5776750000000  0.5165400000000  0.4760100000000 1.0
C      1  0.5887030000000  0.4449760000000  0.4907000000000 1.0
C      1  0.4713130000000  0.4757250000000  0.4952120000000 1.0
C      1  0.5195340000000  0.5874110000000  0.4873320000000 1.0
C      1  0.5395590000000  0.3961850000000  0.4852560000000 1.0
C      1  0.4682600000000  0.5551800000000  0.5034270000000 1.0
C      1  0.4446970000000  0.4576930000000  0.4605090000000 1.0
C      1  0.4992560000000  0.5892400000000  0.5388780000000 1.0
C      1  0.4511760000000  0.5136790000000  0.5786000000000 1.0
C      1  0.4332850000000  0.4579040000000  0.4350760000000 1.0
C      1  0.5294290000000  0.5190950000000  0.5861330000000 1.0
C      1  0.5546150000000  0.4304760000000  0.5196360000000 1.0
C      1  0.5257790000000  0.4784760000000  0.5026790000000 1.0
C      1  0.5188590000000  0.4951320000000  0.4002660000000 1.0
END
