TITL C-612600-6631-781 -0.00106111911894621 125000 -753.688479503343 0 0 125 (C1) n - 1
REM
REM in /home/nfs/bkarasulu/CARBON/AIRSS/Generating-Clusters/TERSOFF/Only-C1/FIRE-HFTN
REM
REM
REM
REM
REM
REM ./C.cell (11c1c37f851c82e70ff6c80c92926a4b)
REM AIRSS Version 0.9.1 bugfix July 2018 build 013d7b7c2542+ Fri, 06 Jul 2018 19:26:36 +0100
REM compiler GCC version 9.2.1 20190827 (Red Hat 9.2.1-1)
REM options -cpp -mtune=generic -march=x86-64 -g -O0 -fpre-include=/usr/include/finclude/math-vector-fortran.h
REM seed 121235977 1372330889 -1213947527 2110467008 810453871 -54863350 653186252 1447784214 -579013704 1161118134 -970400415 383380690 746125056 -1189524975 -620888419 -198344738 1922296149 1192842455 -1634658644 506015234 458774829 238688924 -825009890 -814278541 -1332461472 -1119686232 -1834718923 -69392705 -526064068 1611155513 779076431 -134763103 -1191035052
REM
CELL 1.54180   50.00000   50.00000   50.00000   90.00000   90.00000   90.00000
LATT -1
SFAC C  
C      1  0.4933320000000  0.5759750000000  0.4065240000000 1.0
C      1  0.5327310000000  0.4319260000000  0.5630040000000 1.0
C      1  0.4439600000000  0.5678310000000  0.6088860000000 1.0
C      1  0.5365950000000  0.5684340000000  0.4537720000000 1.0
C      1  0.4715300000000  0.5972880000000  0.5593700000000 1.0
C      1  0.5335450000000  0.4169330000000  0.5159190000000 1.0
C      1  0.4651380000000  0.4062400000000  0.5196080000000 1.0
C      1  0.4552590000000  0.4208910000000  0.4946620000000 1.0
C      1  0.4553620000000  0.4726660000000  0.6382160000000 1.0
C      1  0.5205170000000  0.4498850000000  0.4300200000000 1.0
C      1  0.3914030000000  0.4922790000000  0.4760330000000 1.0
C      1  0.4428920000000  0.5271980000000  0.5514040000000 1.0
C      1  0.4397530000000  0.5719580000000  0.4989030000000 1.0
C      1  0.4582040000000  0.4914250000000  0.4802910000000 1.0
C      1  0.5396970000000  0.5098690000000  0.3933260000000 1.0
C      1  0.5539720000000  0.5510200000000  0.5496520000000 1.0
C      1  0.4550850000000  0.5678020000000  0.5235130000000 1.0
C      1  0.4789300000000  0.5239360000000  0.5227610000000 1.0
C      1  0.5843130000000  0.4416500000000  0.4680260000000 1.0
C      1  0.5730860000000  0.4374520000000  0.5388740000000 1.0
C      1  0.5606410000000  0.4425130000000  0.4515270000000 1.0
C      1  0.4584380000000  0.5464160000000  0.5996260000000 1.0
C      1  0.4364820000000  0.5275080000000  0.4273610000000 1.0
C      1  0.5306700000000  0.5048540000000  0.5348240000000 1.0
C      1  0.5391130000000  0.4627970000000  0.5072480000000 1.0
C      1  0.4888770000000  0.4195750000000  0.5324820000000 1.0
C      1  0.5380060000000  0.4535350000000  0.5825710000000 1.0
C      1  0.5527110000000  0.4709080000000  0.4555460000000 1.0
C      1  0.5642110000000  0.5472960000000  0.4197070000000 1.0
C      1  0.5324080000000  0.5663470000000  0.5384760000000 1.0
C      1  0.4876080000000  0.5057410000000  0.4253440000000 1.0
C      1  0.5567330000000  0.5314040000000  0.3994340000000 1.0
C      1  0.4741350000000  0.4626190000000  0.4079240000000 1.0
C      1  0.4008910000000  0.5484450000000  0.5190350000000 1.0
C      1  0.4893420000000  0.6010840000000  0.4153340000000 1.0
C      1  0.5426390000000  0.4850710000000  0.4073910000000 1.0
C      1  0.4828020000000  0.6062450000000  0.5127150000000 1.0
C      1  0.4999060000000  0.4044160000000  0.4481400000000 1.0
C      1  0.4653990000000  0.4481840000000  0.5004670000000 1.0
C      1  0.4981920000000  0.4677600000000  0.3914330000000 1.0
C      1  0.4317490000000  0.4444360000000  0.5475470000000 1.0
C      1  0.4697590000000  0.4376390000000  0.4224170000000 1.0
C      1  0.4836010000000  0.5406140000000  0.6118340000000 1.0
C      1  0.5890340000000  0.4950400000000  0.5540950000000 1.0
C      1  0.4655130000000  0.4887010000000  0.4172550000000 1.0
C      1  0.4560420000000  0.4150400000000  0.4664410000000 1.0
C      1  0.5147310000000  0.4516470000000  0.5995850000000 1.0
C      1  0.5056920000000  0.4024910000000  0.4757650000000 1.0
C      1  0.5236540000000  0.4982230000000  0.5811450000000 1.0
C      1  0.3968080000000  0.4522170000000  0.5096770000000 1.0
C      1  0.3975750000000  0.5173230000000  0.4689200000000 1.0
C      1  0.5241560000000  0.5144980000000  0.5098450000000 1.0
C      1  0.5247480000000  0.4055340000000  0.4337800000000 1.0
C      1  0.4840470000000  0.5342240000000  0.6385390000000 1.0
C      1  0.4938100000000  0.4761700000000  0.5433110000000 1.0
C      1  0.5749550000000  0.5486030000000  0.5307480000000 1.0
C      1  0.5215480000000  0.5109320000000  0.4617680000000 1.0
C      1  0.5122750000000  0.5146130000000  0.3862730000000 1.0
C      1  0.4248100000000  0.5095770000000  0.5372490000000 1.0
C      1  0.5138810000000  0.4212960000000  0.4943540000000 1.0
C      1  0.5285500000000  0.5261660000000  0.5863090000000 1.0
C      1  0.4115910000000  0.4427530000000  0.5299290000000 1.0
C      1  0.5787810000000  0.5264890000000  0.5137540000000 1.0
C      1  0.4921350000000  0.6137510000000  0.4388980000000 1.0
C      1  0.4410110000000  0.5026650000000  0.4174460000000 1.0
C      1  0.4643740000000  0.4720620000000  0.6626700000000 1.0
C      1  0.4685310000000  0.5394320000000  0.4648010000000 1.0
C      1  0.4991590000000  0.4914210000000  0.3749360000000 1.0
C      1  0.4927720000000  0.5547550000000  0.4690580000000 1.0
C      1  0.5276510000000  0.5940710000000  0.4653140000000 1.0
C      1  0.4485010000000  0.5439530000000  0.4452540000000 1.0
C      1  0.4902350000000  0.4532490000000  0.5884360000000 1.0
C      1  0.4792670000000  0.6026790000000  0.4846820000000 1.0
C      1  0.4597410000000  0.5415020000000  0.5332780000000 1.0
C      1  0.4982260000000  0.5261910000000  0.4083970000000 1.0
C      1  0.5014460000000  0.5305890000000  0.5084040000000 1.0
C      1  0.5225320000000  0.4646200000000  0.4062650000000 1.0
C      1  0.4512800000000  0.4738070000000  0.5011700000000 1.0
C      1  0.4738460000000  0.4173810000000  0.4432230000000 1.0
C      1  0.5934850000000  0.4463200000000  0.5535280000000 1.0
C      1  0.5871720000000  0.4876150000000  0.4265670000000 1.0
C      1  0.5041130000000  0.5556720000000  0.4958520000000 1.0
C      1  0.5459440000000  0.4785100000000  0.4832060000000 1.0
C      1  0.5997420000000  0.5179170000000  0.4588040000000 1.0
C      1  0.4770240000000  0.4610820000000  0.5644510000000 1.0
C      1  0.5594590000000  0.4838660000000  0.4300250000000 1.0
C      1  0.5608470000000  0.5525180000000  0.4475700000000 1.0
C      1  0.5396230000000  0.5080640000000  0.4856350000000 1.0
C      1  0.4482170000000  0.4585220000000  0.5656460000000 1.0
C      1  0.4735410000000  0.5113970000000  0.4691360000000 1.0
C      1  0.4467530000000  0.4720670000000  0.6131630000000 1.0
C      1  0.5183550000000  0.4174200000000  0.5421940000000 1.0
C      1  0.4086080000000  0.4788460000000  0.5853800000000 1.0
C      1  0.5565510000000  0.4369930000000  0.5140970000000 1.0
C      1  0.5107270000000  0.4628000000000  0.5197810000000 1.0
C      1  0.5041760000000  0.4576210000000  0.4507170000000 1.0
C      1  0.6020970000000  0.4708740000000  0.5598810000000 1.0
C      1  0.4942750000000  0.4406080000000  0.5088130000000 1.0
C      1  0.5483970000000  0.4817340000000  0.5817560000000 1.0
C      1  0.5767160000000  0.5345530000000  0.4649610000000 1.0
C      1  0.4478000000000  0.5310190000000  0.5786150000000 1.0
C      1  0.4150990000000  0.5572620000000  0.4959240000000 1.0
C      1  0.4012530000000  0.5237840000000  0.5304070000000 1.0
C      1  0.5402370000000  0.4294260000000  0.4362360000000 1.0
C      1  0.5109290000000  0.5562180000000  0.4465200000000 1.0
C      1  0.5079790000000  0.5409620000000  0.5977200000000 1.0
C      1  0.4957120000000  0.5053670000000  0.4522940000000 1.0
C      1  0.4345230000000  0.4702350000000  0.5880800000000 1.0
C      1  0.5017530000000  0.5523140000000  0.4193640000000 1.0
C      1  0.4536610000000  0.5893230000000  0.4802820000000 1.0
C      1  0.5902450000000  0.5048540000000  0.5275810000000 1.0
C      1  0.5776870000000  0.4312560000000  0.4932760000000 1.0
C      1  0.5676530000000  0.5029440000000  0.5713830000000 1.0
C      1  0.5536280000000  0.5308930000000  0.5711350000000 1.0
C      1  0.5005750000000  0.6060090000000  0.4649570000000 1.0
C      1  0.4770940000000  0.4971050000000  0.5304580000000 1.0
C      1  0.4699930000000  0.5906500000000  0.5329550000000 1.0
C      1  0.5147490000000  0.4935000000000  0.5549900000000 1.0
C      1  0.3903780000000  0.4698700000000  0.4906050000000 1.0
C      1  0.5646490000000  0.5248730000000  0.4887990000000 1.0
C      1  0.5197380000000  0.5711280000000  0.5146560000000 1.0
C      1  0.6020260000000  0.4902520000000  0.4507090000000 1.0
C      1  0.4346560000000  0.4872240000000  0.5213930000000 1.0
C      1  0.4072390000000  0.5420370000000  0.4734160000000 1.0
C      1  0.6023920000000  0.4647660000000  0.4649590000000 1.0
END
