TITL C-612606-7351-1243 0.221129344632113 125000 -228.53522522002 0 0 39 (C1) n - 1
REM
REM in /home/nfs/bkarasulu/CARBON/AIRSS/Generating-Clusters/TERSOFF/Only-C1/FIRE-HFTN
REM
REM
REM
REM
REM
REM ./C.cell (11c1c37f851c82e70ff6c80c92926a4b)
REM AIRSS Version 0.9.1 bugfix July 2018 build 013d7b7c2542+ Fri, 06 Jul 2018 19:26:36 +0100
REM compiler GCC version 9.2.1 20190827 (Red Hat 9.2.1-1)
REM options -cpp -mtune=generic -march=x86-64 -g -O0 -fpre-include=/usr/include/finclude/math-vector-fortran.h
REM seed -817663298 1323423440 187643336 -125753430 -2131539462 1574887932 2096727042 -1974103611 -301721551 625081911 221910664 -530364459 1535089555 1170930395 767485334 1137184416 -318449338 1464405686 -2013603438 -1303788788 -294323314 14487729 804530797 -1349261996 -1095249090 411230121 1833793245 1765864356 1455526087 -593850280 -1600710444 -549124609 1889207921
REM
CELL 1.54180   50.00000   50.00000   50.00000   90.00000   90.00000   90.00000
LATT -1
SFAC C  
C      1  0.5450760000000  0.5597740000000  0.4200150000000 1.0
C      1  0.4249520000000  0.4979690000000  0.5430060000000 1.0
C      1  0.4169260000000  0.5393980000000  0.5152900000000 1.0
C      1  0.4996690000000  0.4997390000000  0.4402400000000 1.0
C      1  0.5380690000000  0.5674460000000  0.4457210000000 1.0
C      1  0.4140140000000  0.5204150000000  0.5337600000000 1.0
C      1  0.4676380000000  0.5029430000000  0.5036940000000 1.0
C      1  0.5420200000000  0.4636570000000  0.5799660000000 1.0
C      1  0.5597790000000  0.4743530000000  0.3956780000000 1.0
C      1  0.4593110000000  0.4320470000000  0.5541640000000 1.0
C      1  0.5244730000000  0.4172270000000  0.5817240000000 1.0
C      1  0.4323500000000  0.5475130000000  0.4951770000000 1.0
C      1  0.5316420000000  0.5942190000000  0.4530590000000 1.0
C      1  0.4642640000000  0.5637940000000  0.4630770000000 1.0
C      1  0.5393550000000  0.4822580000000  0.4098190000000 1.0
C      1  0.5032330000000  0.4133270000000  0.5659090000000 1.0
C      1  0.5377850000000  0.4266570000000  0.4628510000000 1.0
C      1  0.5157790000000  0.4906060000000  0.5422470000000 1.0
C      1  0.4691670000000  0.4857770000000  0.5257940000000 1.0
C      1  0.5513440000000  0.5520900000000  0.3959140000000 1.0
C      1  0.4982680000000  0.4460020000000  0.5297580000000 1.0
C      1  0.5189250000000  0.4907130000000  0.4244340000000 1.0
C      1  0.4943790000000  0.4742100000000  0.5328170000000 1.0
C      1  0.5254870000000  0.4305190000000  0.4855110000000 1.0
C      1  0.4454100000000  0.4791210000000  0.5404620000000 1.0
C      1  0.5318370000000  0.4819680000000  0.5635330000000 1.0
C      1  0.4550780000000  0.5437110000000  0.4792140000000 1.0
C      1  0.5363130000000  0.5493080000000  0.4676350000000 1.0
C      1  0.5244510000000  0.6010990000000  0.4784050000000 1.0
C      1  0.4685060000000  0.5185540000000  0.4804480000000 1.0
C      1  0.5261850000000  0.5358410000000  0.5141770000000 1.0
C      1  0.5401780000000  0.4381120000000  0.5876050000000 1.0
C      1  0.5228790000000  0.5827750000000  0.4984850000000 1.0
C      1  0.5285480000000  0.5551530000000  0.4944340000000 1.0
C      1  0.4432540000000  0.4532490000000  0.5510610000000 1.0
C      1  0.4866460000000  0.4282770000000  0.5490370000000 1.0
C      1  0.5125390000000  0.4361140000000  0.5079390000000 1.0
C      1  0.4827660000000  0.5092040000000  0.4583020000000 1.0
C      1  0.5215080000000  0.5148610000000  0.5296360000000 1.0
END
