TITL C-612602-9376-1194 0.236948323223178 125000 -291.226443477815 0 0 48 (C1) n - 1
REM
REM in /home/nfs/bkarasulu/CARBON/AIRSS/Generating-Clusters/TERSOFF/Only-C1/FIRE-HFTN
REM
REM
REM
REM
REM
REM ./C.cell (11c1c37f851c82e70ff6c80c92926a4b)
REM AIRSS Version 0.9.1 bugfix July 2018 build 013d7b7c2542+ Fri, 06 Jul 2018 19:26:36 +0100
REM compiler GCC version 9.2.1 20190827 (Red Hat 9.2.1-1)
REM options -cpp -mtune=generic -march=x86-64 -g -O0 -fpre-include=/usr/include/finclude/math-vector-fortran.h
REM seed 919390665 -1015145108 -1475309418 -576027216 30016990 -715910512 -1512310100 2028796504 -1532206714 1138709262 -79561961 -2035655423 1857871015 593170338 -766821550 1868037505 383978880 -1602041685 744567121 1461100453 173525642 -1562581059 -343463220 -1278117331 -1037533798 1212381543 1413243204 -2143800665 1551357219 -250407543 -1392398432 1783863365 -1762617408
REM
CELL 1.54180   50.00000   50.00000   50.00000   90.00000   90.00000   90.00000
LATT -1
SFAC C  
C      1  0.5505730000000  0.5527880000000  0.5111170000000 1.0
C      1  0.5156780000000  0.4601710000000  0.5377450000000 1.0
C      1  0.4937280000000  0.4193590000000  0.5328040000000 1.0
C      1  0.5883440000000  0.5026720000000  0.4357290000000 1.0
C      1  0.4228070000000  0.4332380000000  0.4710220000000 1.0
C      1  0.3821330000000  0.5317380000000  0.4949420000000 1.0
C      1  0.6072130000000  0.4724240000000  0.5039200000000 1.0
C      1  0.4479120000000  0.4269980000000  0.4771270000000 1.0
C      1  0.5022460000000  0.5048560000000  0.5526100000000 1.0
C      1  0.5214330000000  0.4837460000000  0.5520990000000 1.0
C      1  0.5047840000000  0.5400560000000  0.4948890000000 1.0
C      1  0.4084930000000  0.5361910000000  0.5032210000000 1.0
C      1  0.5096000000000  0.5316320000000  0.5582510000000 1.0
C      1  0.4961410000000  0.5130510000000  0.4939460000000 1.0
C      1  0.5020510000000  0.4911000000000  0.4765730000000 1.0
C      1  0.5235600000000  0.5480530000000  0.5151930000000 1.0
C      1  0.4874800000000  0.5707070000000  0.5371910000000 1.0
C      1  0.5896630000000  0.4609890000000  0.4873930000000 1.0
C      1  0.4433070000000  0.5734620000000  0.5139060000000 1.0
C      1  0.6140920000000  0.5223120000000  0.5080050000000 1.0
C      1  0.5700000000000  0.4662060000000  0.4680280000000 1.0
C      1  0.6167620000000  0.4960310000000  0.5119210000000 1.0
C      1  0.5777110000000  0.4799340000000  0.4447820000000 1.0
C      1  0.4711800000000  0.5714750000000  0.5136960000000 1.0
C      1  0.3800300000000  0.4637850000000  0.4698160000000 1.0
C      1  0.5186620000000  0.4703240000000  0.4866750000000 1.0
C      1  0.5453180000000  0.4863490000000  0.5652220000000 1.0
C      1  0.3994180000000  0.4456330000000  0.4686280000000 1.0
C      1  0.5991530000000  0.5408810000000  0.4931290000000 1.0
C      1  0.4783660000000  0.5019570000000  0.5377010000000 1.0
C      1  0.5073510000000  0.4355090000000  0.5505660000000 1.0
C      1  0.4201070000000  0.5607840000000  0.5099430000000 1.0
C      1  0.5980170000000  0.5263020000000  0.4435110000000 1.0
C      1  0.5100160000000  0.5533390000000  0.5402200000000 1.0
C      1  0.4493470000000  0.5013740000000  0.4956800000000 1.0
C      1  0.5092740000000  0.4557940000000  0.5091250000000 1.0
C      1  0.6024690000000  0.5411880000000  0.4652300000000 1.0
C      1  0.3680020000000  0.4869490000000  0.4749860000000 1.0
C      1  0.4792840000000  0.4842820000000  0.4607020000000 1.0
C      1  0.4730800000000  0.5066530000000  0.5106210000000 1.0
C      1  0.4542370000000  0.4886440000000  0.4706540000000 1.0
C      1  0.4844510000000  0.5599310000000  0.4910670000000 1.0
C      1  0.5430060000000  0.4640090000000  0.4747000000000 1.0
C      1  0.4918870000000  0.4320070000000  0.5068720000000 1.0
C      1  0.3677620000000  0.5120170000000  0.4840340000000 1.0
C      1  0.4255770000000  0.5139160000000  0.5023160000000 1.0
C      1  0.4720950000000  0.4269770000000  0.4881520000000 1.0
C      1  0.5762010000000  0.5522090000000  0.5043380000000 1.0
END
