TITL C-612603-7354-1124 12893.827984145 125000 -595.887428460117 0 0 101 (C1) n - 1
REM
REM in /home/nfs/bkarasulu/CARBON/AIRSS/Generating-Clusters/TERSOFF/Only-C1/FIRE-HFTN
REM
REM
REM
REM
REM
REM ./C.cell (11c1c37f851c82e70ff6c80c92926a4b)
REM AIRSS Version 0.9.1 bugfix July 2018 build 013d7b7c2542+ Fri, 06 Jul 2018 19:26:36 +0100
REM compiler GCC version 9.2.1 20190827 (Red Hat 9.2.1-1)
REM options -cpp -mtune=generic -march=x86-64 -g -O0 -fpre-include=/usr/include/finclude/math-vector-fortran.h
REM seed -1908905430 465278596 -496618567 1639129394 1948354644 1545692185 1987669709 -1340126442 -1755883144 -1695238773 56001707 1338017311 -828929069 -70755116 -1875207083 1558513862 -2123092271 639020476 1418692182 952158079 1991310940 -1274835189 -1602089739 -1006211113 -1966170870 1484456675 -1747596978 1315053136 1532121347 -750886254 -871930116 -1474826960 448839631
REM
CELL 1.54180   50.00000   50.00000   50.00000   90.00000   90.00000   90.00000
LATT -1
SFAC C  
C      1  0.4986430000000  0.4416190000000  0.4268400000000 1.0
C      1  0.4894380000000  0.5751850000000  0.4704090000000 1.0
C      1  0.5171620000000  0.4958480000000  0.5023030000000 1.0
C      1  0.5318880000000  0.5368220000000  0.4602150000000 1.0
C      1  0.4706170000000  0.4455640000000  0.5692260000000 1.0
C      1  0.4539670000000  0.5149420000000  0.5534480000000 1.0
C      1  0.5074070000000  0.4257990000000  0.4759380000000 1.0
C      1  0.5229740000000  0.4096570000000  0.5163390000000 1.0
C      1  0.5473340000000  0.5333570000000  0.4386770000000 1.0
C      1  0.4978220000000  0.5125710000000  0.4166970000000 1.0
C      1  0.4974860000000  0.5125540000000  0.5954300000000 1.0
C      1  0.4713690000000  0.4865250000000  0.4539850000000 1.0
C      1  0.5406720000000  0.4309640000000  0.5076510000000 1.0
C      1  0.4731380000000  0.4256410000000  0.5473380000000 1.0
C      1  0.5103410000000  0.4725280000000  0.4867520000000 1.0
C      1  0.4127310000000  0.4593500000000  0.5040630000000 1.0
C      1  0.4903290000000  0.4640180000000  0.5267010000000 1.0
C      1  0.4835440000000  0.4704970000000  0.4740880000000 1.0
C      1  0.4396980000000  0.5615110000000  0.4578250000000 1.0
C      1  0.5619920000000  0.5733610000000  0.4964720000000 1.0
C      1  0.5754430000000  0.5329710000000  0.5729840000000 1.0
C      1  0.5157030000000  0.5384640000000  0.4826980000000 1.0
C      1  0.4139550000000  0.5347930000000  0.5153960000000 1.0
C      1  0.6177240000000  0.4379410000000  0.4979900000000 1.0
C      1  0.6075890000000  0.5039070000000  0.5154930000000 1.0
C      1  0.4613220000000  0.5741570000000  0.4669720000000 1.0
C      1  0.6301120000000  0.4615360000000  0.4984470000000 1.0
C      1  0.5991150000000  0.5557790000000  0.4676530000000 1.0
C      1  0.5526870000000  0.5233640000000  0.5605510000000 1.0
C      1  0.4741170000000  0.5356950000000  0.5486640000000 1.0
C      1  0.4540600000000  0.4326160000000  0.5017360000000 1.0
C      1  0.5193210000000  0.6012980000000  0.5124080000000 1.0
C      1  0.4709290000000  0.4366400000000  0.4251160000000 1.0
C      1  0.4680050000000  0.4801580000000  0.5247170000000 1.0
C      1  0.4707570000000  0.5824000000000  0.5145500000000 1.0
C      1  0.4737340000000  0.4190730000000  0.5181060000000 1.0
C      1  0.4497610000000  0.4654340000000  0.5665060000000 1.0
C      1  0.4490940000000  0.4517470000000  0.4299080000000 1.0
C      1  0.4725600000000  0.5505060000000  0.5743550000000 1.0
C      1  0.3829780000000  0.5176710000000  0.4418510000000 1.0
C      1  0.4732860000000  0.5305260000000  0.5019210000000 1.0
C      1  0.4237690000000  0.5416940000000  0.4500460000000 1.0
C      1  0.4962020000000  0.5405020000000  0.5880810000000 1.0
C      1  0.4491800000000  0.5666620000000  0.5721750000000 1.0
C      1  0.4214250000000  0.4861590000000  0.5065970000000 1.0
C      1  0.6124560000000  0.5143340000000  0.4411110000000 1.0
C      1  0.4253170000000  0.4717860000000  0.5800210000000 1.0
C      1  0.5154240000000  0.4308740000000  0.4477580000000 1.0
C      1  0.4998480000000  0.5522260000000  0.5286710000000 1.0
C      1  0.5000740000000  0.5399860000000  0.4101870000000 1.0
C      1  0.4590420000000  0.4874050000000  0.5499380000000 1.0
C      1  0.5992070000000  0.4908760000000  0.4420750000000 1.0
C      1  0.4108850000000  0.4107960000000  0.5099780000000 1.0
C      1  0.5005660000000  0.5182200000000  0.4962720000000 1.0
C      1  0.3976060000000  0.3889230000000  0.5149170000000 1.0
C      1  0.4089920000000  0.5075040000000  0.5214940000000 1.0
C      1  0.5970660000000  0.5284140000000  0.5565240000000 1.0
C      1  0.4325860000000  0.5540660000000  0.5244340000000 1.0
C      1  0.5622780000000  0.4579350000000  0.4492330000000 1.0
C      1  0.4966680000000  0.4853110000000  0.5934990000000 1.0
C      1  0.4975030000000  0.4110810000000  0.5017520000000 1.0
C      1  0.5239880000000  0.4474590000000  0.4897980000000 1.0
C      1  0.5385210000000  0.4946920000000  0.5230750000000 1.0
C      1  0.5126380000000  0.4581730000000  0.5402260000000 1.0
C      1  0.5939790000000  0.4269790000000  0.5028160000000 1.0
C      1  0.5538070000000  0.5193490000000  0.4167690000000 1.0
C      1  0.4582370000000  0.5558080000000  0.5111190000000 1.0
C      1  0.5183580000000  0.5535420000000  0.5752120000000 1.0
C      1  0.5678940000000  0.4995990000000  0.4761990000000 1.0
C      1  0.4256860000000  0.4339480000000  0.5053060000000 1.0
C      1  0.4102060000000  0.5177430000000  0.4444960000000 1.0
C      1  0.4062050000000  0.5027260000000  0.5494890000000 1.0
C      1  0.5187620000000  0.5587040000000  0.5483270000000 1.0
C      1  0.5431080000000  0.4393290000000  0.4453630000000 1.0
C      1  0.6250130000000  0.4868070000000  0.5050910000000 1.0
C      1  0.6123930000000  0.5393990000000  0.4508340000000 1.0
C      1  0.5688760000000  0.5247000000000  0.4860700000000 1.0
C      1  0.4662690000000  0.4494010000000  0.4826340000000 1.0
C      1  0.4468180000000  0.4769640000000  0.4423570000000 1.0
C      1  0.4903800000000  0.4595970000000  0.5859480000000 1.0
C      1  0.4837890000000  0.5068620000000  0.4401090000000 1.0
C      1  0.5148630000000  0.4913060000000  0.4072420000000 1.0
C      1  0.4275980000000  0.4993580000000  0.5914660000000 1.0
C      1  0.4029720000000  0.4763010000000  0.5615520000000 1.0
C      1  0.4246780000000  0.4938530000000  0.4418810000000 1.0
C      1  0.5414750000000  0.4997450000000  0.4029660000000 1.0
C      1  0.5433310000000  0.5908870000000  0.5051970000000 1.0
C      1  0.5884090000000  0.5145030000000  0.5324710000000 1.0
C      1  0.5082780000000  0.4640710000000  0.4117310000000 1.0
C      1  0.5583560000000  0.5119940000000  0.5340040000000 1.0
C      1  0.5767500000000  0.5520830000000  0.4847000000000 1.0
C      1  0.5682030000000  0.4290080000000  0.5086740000000 1.0
C      1  0.5764440000000  0.4814340000000  0.4561380000000 1.0
C      1  0.5028130000000  0.5775250000000  0.4452960000000 1.0
C      1  0.4924330000000  0.5989790000000  0.5162230000000 1.0
C      1  0.5030080000000  0.5640200000000  0.4219460000000 1.0
C      1  0.5357000000000  0.4715520000000  0.5393300000000 1.0
C      1  0.4277030000000  0.5158840000000  0.5666630000000 1.0
C      1  0.4497210000000  0.4879650000000  0.5048330000000 1.0
C      1  0.5032600000000  0.5615650000000  0.4927300000000 1.0
C      1  0.4321820000000  0.5664410000000  0.5505350000000 1.0
END
