TITL C-612605-9286-23 2.87535811298154 125000 -1095.66669538383 0 0 178 (C1) n - 1
REM
REM in /home/nfs/bkarasulu/CARBON/AIRSS/Generating-Clusters/TERSOFF/Only-C1/FIRE-HFTN
REM
REM
REM
REM
REM
REM ./C.cell (11c1c37f851c82e70ff6c80c92926a4b)
REM AIRSS Version 0.9.1 bugfix July 2018 build 013d7b7c2542+ Fri, 06 Jul 2018 19:26:36 +0100
REM compiler GCC version 9.2.1 20190827 (Red Hat 9.2.1-1)
REM options -cpp -mtune=generic -march=x86-64 -g -O0 -fpre-include=/usr/include/finclude/math-vector-fortran.h
REM seed -613392734 1032854546 1657294856 -1483101153 1477977560 -496403283 221506236 1887615437 2030228080 507176120 1568126876 388524492 -1132338921 -819920864 -1210815930 -890031718 -161905934 22442756 -1594033404 126032417 1992209077 1607283320 1280401188 -696716628 -692420077 -1465121312 -531378912 1032973483 1409629125 -714083225 541536247 -543719214 -1981362489
REM
CELL 1.54180   50.00000   50.00000   50.00000   90.00000   90.00000   90.00000
LATT -1
SFAC C  
C      1  0.5042330000000  0.4785670000000  0.4295840000000 1.0
C      1  0.5983790000000  0.5125010000000  0.4445770000000 1.0
C      1  0.5441470000000  0.4424050000000  0.5786320000000 1.0
C      1  0.6028300000000  0.4866250000000  0.5228350000000 1.0
C      1  0.5635780000000  0.4093500000000  0.5211410000000 1.0
C      1  0.5797080000000  0.5539540000000  0.4202440000000 1.0
C      1  0.5625130000000  0.5767250000000  0.4288370000000 1.0
C      1  0.4750070000000  0.3776110000000  0.4460840000000 1.0
C      1  0.5179320000000  0.5752220000000  0.4625540000000 1.0
C      1  0.5404470000000  0.4841650000000  0.6044890000000 1.0
C      1  0.5383840000000  0.5764770000000  0.4818180000000 1.0
C      1  0.3670660000000  0.5311770000000  0.4355130000000 1.0
C      1  0.4855200000000  0.5537410000000  0.5233890000000 1.0
C      1  0.4401510000000  0.5935660000000  0.5503120000000 1.0
C      1  0.5221490000000  0.4198040000000  0.4034890000000 1.0
C      1  0.5176200000000  0.3823100000000  0.4689340000000 1.0
C      1  0.5357840000000  0.4458870000000  0.4021230000000 1.0
C      1  0.5331010000000  0.4968600000000  0.5066150000000 1.0
C      1  0.6054820000000  0.5343300000000  0.6028400000000 1.0
C      1  0.4580010000000  0.3402040000000  0.4111460000000 1.0
C      1  0.4686120000000  0.5017130000000  0.3994270000000 1.0
C      1  0.4677630000000  0.6063020000000  0.4375990000000 1.0
C      1  0.4233140000000  0.4842380000000  0.4918800000000 1.0
C      1  0.4931880000000  0.4589850000000  0.5511950000000 1.0
C      1  0.5010290000000  0.4578500000000  0.6054500000000 1.0
C      1  0.4780410000000  0.4402070000000  0.5092410000000 1.0
C      1  0.4654380000000  0.4379210000000  0.5826710000000 1.0
C      1  0.4325470000000  0.4889690000000  0.5820350000000 1.0
C      1  0.4601670000000  0.5806980000000  0.5669850000000 1.0
C      1  0.4823290000000  0.4246130000000  0.4862450000000 1.0
C      1  0.4570490000000  0.5654600000000  0.4211980000000 1.0
C      1  0.4796070000000  0.5849590000000  0.4214550000000 1.0
C      1  0.4771010000000  0.4224150000000  0.5324850000000 1.0
C      1  0.4664030000000  0.5462680000000  0.4843090000000 1.0
C      1  0.6336090000000  0.5106080000000  0.4103710000000 1.0
C      1  0.4944250000000  0.4989650000000  0.4116000000000 1.0
C      1  0.6062140000000  0.5626360000000  0.4140390000000 1.0
C      1  0.5493880000000  0.5810050000000  0.6041030000000 1.0
C      1  0.4775770000000  0.4354600000000  0.5574050000000 1.0
C      1  0.4798590000000  0.4692160000000  0.5026060000000 1.0
C      1  0.3754540000000  0.4390510000000  0.6033240000000 1.0
C      1  0.4661980000000  0.3581930000000  0.4281260000000 1.0
C      1  0.4674520000000  0.5229650000000  0.4449550000000 1.0
C      1  0.5249820000000  0.5021910000000  0.6201390000000 1.0
C      1  0.5193040000000  0.4551200000000  0.5404220000000 1.0
C      1  0.6198400000000  0.5813430000000  0.4307050000000 1.0
C      1  0.5115290000000  0.5400830000000  0.5676790000000 1.0
C      1  0.5476100000000  0.4542420000000  0.4273180000000 1.0
C      1  0.5971670000000  0.4512670000000  0.4344080000000 1.0
C      1  0.5325150000000  0.4967850000000  0.3867980000000 1.0
C      1  0.3870700000000  0.5152370000000  0.5256150000000 1.0
C      1  0.5553410000000  0.5271530000000  0.5392900000000 1.0
C      1  0.4969580000000  0.6053100000000  0.5370970000000 1.0
C      1  0.4205400000000  0.4024680000000  0.5275450000000 1.0
C      1  0.4572950000000  0.3885170000000  0.4661870000000 1.0
C      1  0.4887980000000  0.4576010000000  0.4392890000000 1.0
C      1  0.3832090000000  0.5720780000000  0.4807410000000 1.0
C      1  0.4112030000000  0.5766470000000  0.4822790000000 1.0
C      1  0.5730480000000  0.5673030000000  0.6078580000000 1.0
C      1  0.5107630000000  0.5412510000000  0.5209470000000 1.0
C      1  0.3433950000000  0.5339740000000  0.4249850000000 1.0
C      1  0.4129770000000  0.4432130000000  0.5641430000000 1.0
C      1  0.4843920000000  0.5360340000000  0.6198950000000 1.0
C      1  0.4653560000000  0.5494670000000  0.6066410000000 1.0
C      1  0.5422370000000  0.4974220000000  0.4539310000000 1.0
C      1  0.4441620000000  0.5322770000000  0.5240600000000 1.0
C      1  0.4502570000000  0.5252000000000  0.4968600000000 1.0
C      1  0.3915240000000  0.5143150000000  0.4739390000000 1.0
C      1  0.4224780000000  0.5255520000000  0.4062090000000 1.0
C      1  0.5748780000000  0.4095510000000  0.4748000000000 1.0
C      1  0.5394930000000  0.4112390000000  0.5365860000000 1.0
C      1  0.5338760000000  0.4339690000000  0.5531300000000 1.0
C      1  0.5560880000000  0.3995660000000  0.4938690000000 1.0
C      1  0.4741890000000  0.6146800000000  0.5227020000000 1.0
C      1  0.4489160000000  0.4377090000000  0.4563640000000 1.0
C      1  0.5305450000000  0.4694550000000  0.5187040000000 1.0
C      1  0.5283670000000  0.4589310000000  0.5974750000000 1.0
C      1  0.4286520000000  0.4669610000000  0.5633720000000 1.0
C      1  0.4215170000000  0.5501250000000  0.5268440000000 1.0
C      1  0.4361580000000  0.5922470000000  0.5217950000000 1.0
C      1  0.5735060000000  0.5240060000000  0.4961520000000 1.0
C      1  0.5980720000000  0.5755290000000  0.6198720000000 1.0
C      1  0.4457340000000  0.5060070000000  0.4518580000000 1.0
C      1  0.5498290000000  0.5207800000000  0.4392860000000 1.0
C      1  0.5379190000000  0.5878230000000  0.4146400000000 1.0
C      1  0.6167650000000  0.4414580000000  0.4520320000000 1.0
C      1  0.5093580000000  0.5786130000000  0.4186360000000 1.0
C      1  0.5319960000000  0.5606290000000  0.5236070000000 1.0
C      1  0.5164120000000  0.6060240000000  0.5151410000000 1.0
C      1  0.5263890000000  0.5810550000000  0.5909440000000 1.0
C      1  0.4146570000000  0.5392830000000  0.4309260000000 1.0
C      1  0.5401300000000  0.5292240000000  0.5642040000000 1.0
C      1  0.4655960000000  0.4607490000000  0.4551200000000 1.0
C      1  0.4747780000000  0.4823480000000  0.5456930000000 1.0
C      1  0.4459840000000  0.6034040000000  0.4543800000000 1.0
C      1  0.3994450000000  0.4871430000000  0.4772550000000 1.0
C      1  0.4352970000000  0.4907480000000  0.4307730000000 1.0
C      1  0.4321530000000  0.5613250000000  0.4373350000000 1.0
C      1  0.4765910000000  0.5006910000000  0.5694920000000 1.0
C      1  0.4447340000000  0.4725160000000  0.5401730000000 1.0
C      1  0.4892630000000  0.5864290000000  0.5597420000000 1.0
C      1  0.6040390000000  0.4730770000000  0.4184980000000 1.0
C      1  0.4405960000000  0.3768740000000  0.4858310000000 1.0
C      1  0.3708070000000  0.5520780000000  0.4943720000000 1.0
C      1  0.5697980000000  0.4138970000000  0.4473680000000 1.0
C      1  0.5272510000000  0.5331320000000  0.4257840000000 1.0
C      1  0.5172540000000  0.5153420000000  0.4040560000000 1.0
C      1  0.5898800000000  0.4200040000000  0.5175250000000 1.0
C      1  0.5188780000000  0.3962250000000  0.5209760000000 1.0
C      1  0.4280310000000  0.3853860000000  0.5081940000000 1.0
C      1  0.6455760000000  0.4282000000000  0.4885690000000 1.0
C      1  0.4849170000000  0.5266580000000  0.5620510000000 1.0
C      1  0.5212000000000  0.4034220000000  0.3815260000000 1.0
C      1  0.5303990000000  0.5830150000000  0.5081010000000 1.0
C      1  0.4920090000000  0.3984980000000  0.5291340000000 1.0
C      1  0.5325480000000  0.4761870000000  0.4381070000000 1.0
C      1  0.6170670000000  0.5555840000000  0.6164980000000 1.0
C      1  0.3397810000000  0.4368160000000  0.6418820000000 1.0
C      1  0.5759120000000  0.5831390000000  0.4550900000000 1.0
C      1  0.4610320000000  0.5940970000000  0.5082670000000 1.0
C      1  0.5933120000000  0.4838320000000  0.5482780000000 1.0
C      1  0.3987030000000  0.5098060000000  0.5502280000000 1.0
C      1  0.5076610000000  0.6169920000000  0.4893950000000 1.0
C      1  0.5764680000000  0.5291800000000  0.4351380000000 1.0
C      1  0.5038240000000  0.4343140000000  0.4451560000000 1.0
C      1  0.5154550000000  0.5577950000000  0.4384050000000 1.0
C      1  0.4684700000000  0.5379770000000  0.5401000000000 1.0
C      1  0.6045270000000  0.5032470000000  0.4713530000000 1.0
C      1  0.6069590000000  0.4925740000000  0.4964560000000 1.0
C      1  0.5592440000000  0.5227090000000  0.5847960000000 1.0
C      1  0.5774320000000  0.5401240000000  0.5969500000000 1.0
C      1  0.5340140000000  0.4691160000000  0.3846430000000 1.0
C      1  0.5590660000000  0.5531490000000  0.5266500000000 1.0
C      1  0.5707890000000  0.4405960000000  0.4367170000000 1.0
C      1  0.5062060000000  0.4295520000000  0.4726010000000 1.0
C      1  0.4728920000000  0.5681700000000  0.5018570000000 1.0
C      1  0.4200440000000  0.5729220000000  0.5094910000000 1.0
C      1  0.4462320000000  0.4993250000000  0.4806100000000 1.0
C      1  0.4669200000000  0.4769720000000  0.4788390000000 1.0
C      1  0.5085270000000  0.5114550000000  0.5185770000000 1.0
C      1  0.5024610000000  0.3875900000000  0.4447910000000 1.0
C      1  0.4164900000000  0.4222700000000  0.5452130000000 1.0
C      1  0.5052590000000  0.5198340000000  0.6243590000000 1.0
C      1  0.5735350000000  0.5524380000000  0.5002450000000 1.0
C      1  0.3850910000000  0.4661720000000  0.4674780000000 1.0
C      1  0.5578290000000  0.5099150000000  0.5159960000000 1.0
C      1  0.3925650000000  0.5283890000000  0.4476650000000 1.0
C      1  0.4128330000000  0.5542010000000  0.5535080000000 1.0
C      1  0.3574690000000  0.4379230000000  0.6227620000000 1.0
C      1  0.6031720000000  0.5907840000000  0.4518200000000 1.0
C      1  0.5278560000000  0.5030320000000  0.4774890000000 1.0
C      1  0.4406750000000  0.5030660000000  0.4054600000000 1.0
C      1  0.6208540000000  0.4298870000000  0.4772150000000 1.0
C      1  0.6126060000000  0.4992630000000  0.4235210000000 1.0
C      1  0.4830600000000  0.5345490000000  0.4649260000000 1.0
C      1  0.4612600000000  0.4871080000000  0.5902940000000 1.0
C      1  0.5045390000000  0.6009190000000  0.4670780000000 1.0
C      1  0.4271920000000  0.5417920000000  0.5752010000000 1.0
C      1  0.5065370000000  0.5214570000000  0.4728280000000 1.0
C      1  0.3934890000000  0.4403780000000  0.5839730000000 1.0
C      1  0.5095020000000  0.4118320000000  0.4286300000000 1.0
C      1  0.4299570000000  0.4722970000000  0.5162330000000 1.0
C      1  0.5675010000000  0.3924720000000  0.4304340000000 1.0
C      1  0.6456100000000  0.5891420000000  0.4269500000000 1.0
C      1  0.4187660000000  0.5132760000000  0.5729400000000 1.0
C      1  0.5089920000000  0.5692260000000  0.5724770000000 1.0
C      1  0.5783060000000  0.4774930000000  0.5720130000000 1.0
C      1  0.5977460000000  0.4201830000000  0.4897880000000 1.0
C      1  0.4602540000000  0.4161650000000  0.4704010000000 1.0
C      1  0.4867810000000  0.4917570000000  0.5200140000000 1.0
C      1  0.3815760000000  0.5261820000000  0.4988530000000 1.0
C      1  0.5716650000000  0.4502000000000  0.5770610000000 1.0
C      1  0.5656640000000  0.5707330000000  0.4789060000000 1.0
C      1  0.4503200000000  0.5578780000000  0.5841180000000 1.0
C      1  0.4734670000000  0.4609590000000  0.5982990000000 1.0
C      1  0.5619340000000  0.4948480000000  0.5886420000000 1.0
C      1  0.4283010000000  0.5809050000000  0.4587660000000 1.0
C      1  0.5291390000000  0.3896050000000  0.4938370000000 1.0
END
