TITL C-612607-4507-1219 2517.93119318901 125000 -1022.60002808852 0 0 167 (C1) n - 1
REM
REM in /home/nfs/bkarasulu/CARBON/AIRSS/Generating-Clusters/TERSOFF/Only-C1/FIRE-HFTN
REM
REM
REM
REM
REM
REM ./C.cell (11c1c37f851c82e70ff6c80c92926a4b)
REM AIRSS Version 0.9.1 bugfix July 2018 build 013d7b7c2542+ Fri, 06 Jul 2018 19:26:36 +0100
REM compiler GCC version 9.2.1 20190827 (Red Hat 9.2.1-1)
REM options -cpp -mtune=generic -march=x86-64 -g -O0 -fpre-include=/usr/include/finclude/math-vector-fortran.h
REM seed -655277670 -1126440170 -2055600679 527608699 -1769319621 1644135081 -2012663658 1443523602 -885212410 449993554 728915374 -907641360 -528592663 -1647226800 -2114059504 -1747738378 2003347768 1648246423 -2075707177 -121316835 1740465621 206996197 -1064780891 -1337402277 691920058 1019504358 -1763298274 -593195959 1641409938 -251368967 -658013798 828592236 349999822
REM
CELL 1.54180   50.00000   50.00000   50.00000   90.00000   90.00000   90.00000
LATT -1
SFAC C  
C      1  0.5755680000000  0.5342660000000  0.4513340000000 1.0
C      1  0.5159130000000  0.4389690000000  0.5519600000000 1.0
C      1  0.4992650000000  0.5292950000000  0.3869410000000 1.0
C      1  0.4031010000000  0.4656970000000  0.4850650000000 1.0
C      1  0.4018240000000  0.5691460000000  0.5336040000000 1.0
C      1  0.5426960000000  0.3900880000000  0.4303190000000 1.0
C      1  0.5043750000000  0.5437430000000  0.5751860000000 1.0
C      1  0.5032900000000  0.4720560000000  0.4600120000000 1.0
C      1  0.5611640000000  0.5178680000000  0.5627890000000 1.0
C      1  0.5628320000000  0.3735550000000  0.4255260000000 1.0
C      1  0.4885300000000  0.4153660000000  0.5840830000000 1.0
C      1  0.4337740000000  0.5418040000000  0.5624660000000 1.0
C      1  0.4502040000000  0.4543970000000  0.5198570000000 1.0
C      1  0.5269870000000  0.5692740000000  0.4014210000000 1.0
C      1  0.3781170000000  0.5819960000000  0.5416360000000 1.0
C      1  0.5246950000000  0.4366150000000  0.4291760000000 1.0
C      1  0.5315570000000  0.5889770000000  0.4483890000000 1.0
C      1  0.5484840000000  0.5429440000000  0.5558540000000 1.0
C      1  0.4468840000000  0.4009950000000  0.5136240000000 1.0
C      1  0.5116630000000  0.4344150000000  0.4908270000000 1.0
C      1  0.5550920000000  0.4998240000000  0.4966350000000 1.0
C      1  0.6074760000000  0.5303420000000  0.4859770000000 1.0
C      1  0.4693750000000  0.3846470000000  0.5518700000000 1.0
C      1  0.5900900000000  0.5759470000000  0.4941430000000 1.0
C      1  0.5394110000000  0.5238050000000  0.4123810000000 1.0
C      1  0.5168420000000  0.5481340000000  0.5468850000000 1.0
C      1  0.4560120000000  0.5410190000000  0.5797310000000 1.0
C      1  0.3492520000000  0.5180270000000  0.4933530000000 1.0
C      1  0.5616720000000  0.3992440000000  0.5575110000000 1.0
C      1  0.5807810000000  0.5491720000000  0.4070530000000 1.0
C      1  0.4579520000000  0.5491880000000  0.5120600000000 1.0
C      1  0.5470420000000  0.5936350000000  0.4743120000000 1.0
C      1  0.4958980000000  0.5700480000000  0.5377480000000 1.0
C      1  0.6012630000000  0.5360400000000  0.4589400000000 1.0
C      1  0.6015940000000  0.5531750000000  0.3896130000000 1.0
C      1  0.4831860000000  0.5953450000000  0.4312950000000 1.0
C      1  0.4149150000000  0.4766010000000  0.5497030000000 1.0
C      1  0.5775980000000  0.4766430000000  0.5303450000000 1.0
C      1  0.5226040000000  0.3845460000000  0.5209750000000 1.0
C      1  0.4725250000000  0.4583460000000  0.5404670000000 1.0
C      1  0.4330420000000  0.6023060000000  0.5187260000000 1.0
C      1  0.5445680000000  0.4659690000000  0.3969930000000 1.0
C      1  0.4429640000000  0.5105630000000  0.4254660000000 1.0
C      1  0.5077940000000  0.4952220000000  0.6310780000000 1.0
C      1  0.4330190000000  0.4627630000000  0.4216710000000 1.0
C      1  0.5029010000000  0.5870460000000  0.4493090000000 1.0
C      1  0.5656060000000  0.4741990000000  0.5891390000000 1.0
C      1  0.5169000000000  0.5321420000000  0.5220520000000 1.0
C      1  0.4786820000000  0.4191090000000  0.4380000000000 1.0
C      1  0.5462240000000  0.3977260000000  0.5324300000000 1.0
C      1  0.3895410000000  0.5260410000000  0.5506050000000 1.0
C      1  0.5745660000000  0.5645080000000  0.5900690000000 1.0
C      1  0.4742520000000  0.4835810000000  0.3984840000000 1.0
C      1  0.4972980000000  0.4937450000000  0.5044410000000 1.0
C      1  0.4237580000000  0.5121280000000  0.4984810000000 1.0
C      1  0.5622730000000  0.4434150000000  0.5884400000000 1.0
C      1  0.5828500000000  0.3575080000000  0.4209020000000 1.0
C      1  0.4688920000000  0.4753970000000  0.5640950000000 1.0
C      1  0.4594350000000  0.5621490000000  0.5985280000000 1.0
C      1  0.4392760000000  0.4193790000000  0.5725750000000 1.0
C      1  0.5973390000000  0.4564060000000  0.5267330000000 1.0
C      1  0.5681150000000  0.5228830000000  0.4088310000000 1.0
C      1  0.5138420000000  0.4806130000000  0.4869570000000 1.0
C      1  0.4695430000000  0.3868230000000  0.5234680000000 1.0
C      1  0.3995250000000  0.4200140000000  0.5321910000000 1.0
C      1  0.3781220000000  0.5465190000000  0.4617550000000 1.0
C      1  0.4157780000000  0.5810900000000  0.5114880000000 1.0
C      1  0.4935880000000  0.4395260000000  0.5350350000000 1.0
C      1  0.5950470000000  0.5450630000000  0.5936480000000 1.0
C      1  0.6034140000000  0.5535170000000  0.5018430000000 1.0
C      1  0.4370600000000  0.4429110000000  0.4415850000000 1.0
C      1  0.5100820000000  0.4971060000000  0.4433730000000 1.0
C      1  0.4957140000000  0.5945610000000  0.5529890000000 1.0
C      1  0.4704710000000  0.4905900000000  0.4997150000000 1.0
C      1  0.5847360000000  0.5831030000000  0.4456430000000 1.0
C      1  0.6014260000000  0.5029050000000  0.4915960000000 1.0
C      1  0.5351460000000  0.6008610000000  0.5008510000000 1.0
C      1  0.5373410000000  0.4828550000000  0.5879980000000 1.0
C      1  0.5098820000000  0.5703400000000  0.5927510000000 1.0
C      1  0.4116760000000  0.5728880000000  0.4844670000000 1.0
C      1  0.4155430000000  0.4850450000000  0.5019890000000 1.0
C      1  0.6025430000000  0.4841310000000  0.4683370000000 1.0
C      1  0.5909050000000  0.4612300000000  0.3849780000000 1.0
C      1  0.6074240000000  0.4488080000000  0.5026090000000 1.0
C      1  0.5311280000000  0.5684380000000  0.6132880000000 1.0
C      1  0.4846480000000  0.4990780000000  0.5663400000000 1.0
C      1  0.5752260000000  0.5867560000000  0.4725030000000 1.0
C      1  0.4215520000000  0.4262210000000  0.4591350000000 1.0
C      1  0.5970360000000  0.5178840000000  0.5931830000000 1.0
C      1  0.3555010000000  0.5930300000000  0.5484090000000 1.0
C      1  0.4782580000000  0.5686540000000  0.5157430000000 1.0
C      1  0.5716320000000  0.4745200000000  0.3993640000000 1.0
C      1  0.4095230000000  0.5457970000000  0.5485910000000 1.0
C      1  0.5442900000000  0.5900880000000  0.5563220000000 1.0
C      1  0.4647830000000  0.4042750000000  0.5721740000000 1.0
C      1  0.4044490000000  0.4374070000000  0.4808140000000 1.0
C      1  0.5493370000000  0.4569810000000  0.4688030000000 1.0
C      1  0.4584250000000  0.5277850000000  0.4700900000000 1.0
C      1  0.4026350000000  0.4173200000000  0.5030800000000 1.0
C      1  0.4646070000000  0.4408450000000  0.4478090000000 1.0
C      1  0.4223980000000  0.5301970000000  0.4238930000000 1.0
C      1  0.5795360000000  0.4967450000000  0.5097420000000 1.0
C      1  0.4949120000000  0.3930720000000  0.5081550000000 1.0
C      1  0.5511910000000  0.4710220000000  0.5422860000000 1.0
C      1  0.4823400000000  0.5753900000000  0.6043980000000 1.0
C      1  0.5799560000000  0.4966840000000  0.4161290000000 1.0
C      1  0.5182790000000  0.5872100000000  0.3826630000000 1.0
C      1  0.5180800000000  0.5915550000000  0.5707420000000 1.0
C      1  0.5073470000000  0.5066130000000  0.5260570000000 1.0
C      1  0.5430770000000  0.5780210000000  0.4236810000000 1.0
C      1  0.4870570000000  0.3898170000000  0.4734640000000 1.0
C      1  0.5989260000000  0.4565980000000  0.4765860000000 1.0
C      1  0.4576810000000  0.5905900000000  0.4248340000000 1.0
C      1  0.5314830000000  0.5153060000000  0.4383420000000 1.0
C      1  0.4032390000000  0.5590890000000  0.4608550000000 1.0
C      1  0.3590820000000  0.5315280000000  0.4726400000000 1.0
C      1  0.5604030000000  0.5674230000000  0.5649490000000 1.0
C      1  0.5783230000000  0.5005120000000  0.5804620000000 1.0
C      1  0.5229410000000  0.4086310000000  0.4361630000000 1.0
C      1  0.4871050000000  0.5858520000000  0.4945610000000 1.0
C      1  0.5499420000000  0.5253130000000  0.4578050000000 1.0
C      1  0.5457920000000  0.5983070000000  0.5280370000000 1.0
C      1  0.5580170000000  0.5699790000000  0.6123940000000 1.0
C      1  0.4265910000000  0.4727510000000  0.5253660000000 1.0
C      1  0.5126650000000  0.4295720000000  0.5788390000000 1.0
C      1  0.4756960000000  0.4585910000000  0.4665250000000 1.0
C      1  0.5717280000000  0.4200180000000  0.5732100000000 1.0
C      1  0.5453780000000  0.5232860000000  0.4851760000000 1.0
C      1  0.5208200000000  0.4526240000000  0.4054880000000 1.0
C      1  0.4586770000000  0.3867550000000  0.4668400000000 1.0
C      1  0.5501280000000  0.4243190000000  0.5220220000000 1.0
C      1  0.4242230000000  0.4222320000000  0.5478970000000 1.0
C      1  0.4804390000000  0.5261760000000  0.5755320000000 1.0
C      1  0.4831190000000  0.5079510000000  0.3866920000000 1.0
C      1  0.4986730000000  0.4024950000000  0.4501480000000 1.0
C      1  0.4484320000000  0.4852190000000  0.4126010000000 1.0
C      1  0.3525460000000  0.5111590000000  0.5188740000000 1.0
C      1  0.5060050000000  0.5475790000000  0.4767990000000 1.0
C      1  0.5403250000000  0.4452480000000  0.5379760000000 1.0
C      1  0.4333270000000  0.4001560000000  0.4686540000000 1.0
C      1  0.4740970000000  0.6117770000000  0.5490040000000 1.0
C      1  0.5417280000000  0.4767880000000  0.4881710000000 1.0
C      1  0.5347150000000  0.4351270000000  0.5959560000000 1.0
C      1  0.5710360000000  0.5713840000000  0.4234890000000 1.0
C      1  0.4349090000000  0.5770300000000  0.4277390000000 1.0
C      1  0.5219540000000  0.5412220000000  0.3984360000000 1.0
C      1  0.4432260000000  0.4262020000000  0.5261530000000 1.0
C      1  0.5241260000000  0.5377870000000  0.4956790000000 1.0
C      1  0.4622300000000  0.4641440000000  0.4923360000000 1.0
C      1  0.4189120000000  0.5557130000000  0.4368570000000 1.0
C      1  0.4944800000000  0.4630560000000  0.3997830000000 1.0
C      1  0.5330510000000  0.4858890000000  0.5599520000000 1.0
C      1  0.5950410000000  0.4908410000000  0.4406570000000 1.0
C      1  0.3680570000000  0.5141600000000  0.5403130000000 1.0
C      1  0.5087400000000  0.4963540000000  0.5515210000000 1.0
C      1  0.4513490000000  0.6134310000000  0.5348230000000 1.0
C      1  0.4396300000000  0.4423050000000  0.5892880000000 1.0
C      1  0.4529360000000  0.4653670000000  0.5850270000000 1.0
C      1  0.4970950000000  0.4240230000000  0.5110470000000 1.0
C      1  0.4453390000000  0.5305770000000  0.4947280000000 1.0
C      1  0.5746670000000  0.4455870000000  0.4672840000000 1.0
C      1  0.4609100000000  0.5169510000000  0.4461020000000 1.0
C      1  0.4244910000000  0.3981220000000  0.4961170000000 1.0
C      1  0.4937270000000  0.5718080000000  0.4711090000000 1.0
C      1  0.5216840000000  0.4889960000000  0.6099260000000 1.0
C      1  0.5265680000000  0.4531180000000  0.4517430000000 1.0
C      1  0.5067790000000  0.6056950000000  0.5002540000000 1.0
END
