TITL C-612606-7351-994 9.22854374038181e-07 125000 -349.134854388825 0 0 57 (C1) n - 1
REM
REM in /home/nfs/bkarasulu/CARBON/AIRSS/Generating-Clusters/TERSOFF/Only-C1/FIRE-HFTN
REM
REM
REM
REM
REM
REM ./C.cell (11c1c37f851c82e70ff6c80c92926a4b)
REM AIRSS Version 0.9.1 bugfix July 2018 build 013d7b7c2542+ Fri, 06 Jul 2018 19:26:36 +0100
REM compiler GCC version 9.2.1 20190827 (Red Hat 9.2.1-1)
REM options -cpp -mtune=generic -march=x86-64 -g -O0 -fpre-include=/usr/include/finclude/math-vector-fortran.h
REM seed 2074943581 -2070347571 850091125 -866023044 -1684841065 1253800026 -1241803532 -1594388363 -1284017858 1630351994 1185571106 2034468619 1632579465 1825662769 217821138 1257934942 -2127236793 1836377892 126082009 1050745633 -422175207 -333765442 1106289420 -591035878 -1819029888 -176355268 2046080456 -1828033279 -1804790395 -802678904 -1611953499 157346989 1697230720
REM
CELL 1.54180   50.00000   50.00000   50.00000   90.00000   90.00000   90.00000
LATT -1
SFAC C  
C      1  0.5849830000000  0.4980330000000  0.5228680000000 1.0
C      1  0.5299170000000  0.5577930000000  0.5043040000000 1.0
C      1  0.4593180000000  0.5070620000000  0.5336790000000 1.0
C      1  0.4450440000000  0.5159880000000  0.4365150000000 1.0
C      1  0.4483130000000  0.4828370000000  0.5443200000000 1.0
C      1  0.4834650000000  0.4066410000000  0.5103390000000 1.0
C      1  0.5890120000000  0.5224510000000  0.5122440000000 1.0
C      1  0.4432020000000  0.4341150000000  0.5076950000000 1.0
C      1  0.4828180000000  0.5484340000000  0.4930730000000 1.0
C      1  0.4272270000000  0.4726780000000  0.5287580000000 1.0
C      1  0.5386600000000  0.5069900000000  0.4289350000000 1.0
C      1  0.5240480000000  0.5371330000000  0.5516130000000 1.0
C      1  0.4400510000000  0.5277440000000  0.5260720000000 1.0
C      1  0.4948400000000  0.5046190000000  0.5801400000000 1.0
C      1  0.4346280000000  0.4610250000000  0.5040400000000 1.0
C      1  0.5385480000000  0.4915840000000  0.5329260000000 1.0
C      1  0.4695100000000  0.4661030000000  0.5549990000000 1.0
C      1  0.5188210000000  0.5620210000000  0.4585530000000 1.0
C      1  0.4705980000000  0.4644780000000  0.4718750000000 1.0
C      1  0.5579420000000  0.4571300000000  0.4814150000000 1.0
C      1  0.4673520000000  0.5064600000000  0.4240090000000 1.0
C      1  0.5056420000000  0.5281290000000  0.5716780000000 1.0
C      1  0.5634210000000  0.4794680000000  0.5250880000000 1.0
C      1  0.4949530000000  0.5710610000000  0.5335590000000 1.0
C      1  0.5150550000000  0.4412660000000  0.4974500000000 1.0
C      1  0.5063510000000  0.4141870000000  0.4978640000000 1.0
C      1  0.5044490000000  0.4575200000000  0.5199170000000 1.0
C      1  0.5169770000000  0.4675990000000  0.4541390000000 1.0
C      1  0.5419900000000  0.5168470000000  0.5448770000000 1.0
C      1  0.5537960000000  0.5523870000000  0.4872100000000 1.0
C      1  0.5667930000000  0.4812820000000  0.4697000000000 1.0
C      1  0.5182100000000  0.4869330000000  0.4312150000000 1.0
C      1  0.5775680000000  0.5425880000000  0.4986650000000 1.0
C      1  0.5202230000000  0.5578260000000  0.5318690000000 1.0
C      1  0.4178740000000  0.5260440000000  0.5078150000000 1.0
C      1  0.4494860000000  0.4772740000000  0.4854980000000 1.0
C      1  0.4811030000000  0.4477580000000  0.5352410000000 1.0
C      1  0.5272520000000  0.5100490000000  0.4823350000000 1.0
C      1  0.5112620000000  0.4847010000000  0.5262090000000 1.0
C      1  0.5523780000000  0.5032530000000  0.4757940000000 1.0
C      1  0.5000780000000  0.5042210000000  0.4794000000000 1.0
C      1  0.5491060000000  0.5303790000000  0.4382320000000 1.0
C      1  0.4666630000000  0.4264330000000  0.5216870000000 1.0
C      1  0.4346410000000  0.5178850000000  0.4628740000000 1.0
C      1  0.4776660000000  0.5207130000000  0.4852250000000 1.0
C      1  0.4881580000000  0.5032720000000  0.5283140000000 1.0
C      1  0.5645870000000  0.4560760000000  0.5091220000000 1.0
C      1  0.4919860000000  0.4952550000000  0.4213900000000 1.0
C      1  0.4945640000000  0.4782120000000  0.4687780000000 1.0
C      1  0.4737480000000  0.5615330000000  0.5173050000000 1.0
C      1  0.5307510000000  0.4510650000000  0.4747050000000 1.0
C      1  0.4142470000000  0.5273970000000  0.4805560000000 1.0
C      1  0.4530360000000  0.5058950000000  0.4814440000000 1.0
C      1  0.5075490000000  0.5597070000000  0.4844160000000 1.0
C      1  0.4847460000000  0.4798600000000  0.5750830000000 1.0
C      1  0.5456250000000  0.5506640000000  0.4579850000000 1.0
C      1  0.4497690000000  0.5539410000000  0.5289950000000 1.0
END
