TITL C-612606-7351-195 7658.47506204791 125000 -723.975508572511 0 0 117 (C1) n - 1
REM
REM in /home/nfs/bkarasulu/CARBON/AIRSS/Generating-Clusters/TERSOFF/Only-C1/FIRE-HFTN
REM
REM
REM
REM
REM
REM ./C.cell (11c1c37f851c82e70ff6c80c92926a4b)
REM AIRSS Version 0.9.1 bugfix July 2018 build 013d7b7c2542+ Fri, 06 Jul 2018 19:26:36 +0100
REM compiler GCC version 9.2.1 20190827 (Red Hat 9.2.1-1)
REM options -cpp -mtune=generic -march=x86-64 -g -O0 -fpre-include=/usr/include/finclude/math-vector-fortran.h
REM seed 1484875068 510411606 -1584734597 1231149148 -244351742 1952928236 -1235051806 440104813 1391896606 -217670121 -444452626 1443264887 1236888826 613704281 -2033402333 -508640906 -1639427793 -1774567446 -1441590203 -1693105195 572570891 1865741079 1751856033 -686078776 97669980 1801473312 -594219008 -1158368565 -837574936 -982652289 -1999011761 204010162 95726146
REM
CELL 1.54180   50.00000   50.00000   50.00000   90.00000   90.00000   90.00000
LATT -1
SFAC C  
C      1  0.3977240000000  0.4867520000000  0.4275340000000 1.0
C      1  0.5708230000000  0.5094460000000  0.4708050000000 1.0
C      1  0.4851670000000  0.4291860000000  0.4707650000000 1.0
C      1  0.3830790000000  0.5223540000000  0.4572950000000 1.0
C      1  0.4623840000000  0.5703420000000  0.4333160000000 1.0
C      1  0.4698390000000  0.5021250000000  0.4356200000000 1.0
C      1  0.5792700000000  0.4123170000000  0.5325620000000 1.0
C      1  0.6245120000000  0.4441130000000  0.5019670000000 1.0
C      1  0.5737130000000  0.5824930000000  0.4929980000000 1.0
C      1  0.3745900000000  0.5341330000000  0.5293970000000 1.0
C      1  0.4987010000000  0.4793190000000  0.6075370000000 1.0
C      1  0.5156660000000  0.4807640000000  0.5571320000000 1.0
C      1  0.5483040000000  0.5228760000000  0.4613040000000 1.0
C      1  0.5318170000000  0.4278420000000  0.4790710000000 1.0
C      1  0.5324430000000  0.6030960000000  0.4824110000000 1.0
C      1  0.5529590000000  0.6151960000000  0.4334440000000 1.0
C      1  0.6015680000000  0.4451560000000  0.4843740000000 1.0
C      1  0.4849460000000  0.5011000000000  0.5941830000000 1.0
C      1  0.4291780000000  0.5410720000000  0.4773010000000 1.0
C      1  0.5213990000000  0.6065800000000  0.5080640000000 1.0
C      1  0.5226570000000  0.5247860000000  0.5798810000000 1.0
C      1  0.4214340000000  0.5227020000000  0.5284570000000 1.0
C      1  0.5217310000000  0.5133230000000  0.4590400000000 1.0
C      1  0.4781210000000  0.5690530000000  0.5627330000000 1.0
C      1  0.5194860000000  0.4376420000000  0.5817850000000 1.0
C      1  0.5368230000000  0.5205160000000  0.5196940000000 1.0
C      1  0.5072010000000  0.4882670000000  0.4984060000000 1.0
C      1  0.3928250000000  0.4433020000000  0.5421050000000 1.0
C      1  0.4255790000000  0.3854460000000  0.4531040000000 1.0
C      1  0.4904680000000  0.4356570000000  0.5223940000000 1.0
C      1  0.4966370000000  0.5399050000000  0.4004920000000 1.0
C      1  0.4355550000000  0.4213850000000  0.5410620000000 1.0
C      1  0.6075470000000  0.5145760000000  0.5022150000000 1.0
C      1  0.4806570000000  0.5283720000000  0.4405670000000 1.0
C      1  0.5667180000000  0.4749790000000  0.4374470000000 1.0
C      1  0.6186000000000  0.5635760000000  0.5098980000000 1.0
C      1  0.5203350000000  0.5899010000000  0.4587380000000 1.0
C      1  0.5909670000000  0.4234280000000  0.5538710000000 1.0
C      1  0.5152860000000  0.5191280000000  0.4000710000000 1.0
C      1  0.3961710000000  0.3873050000000  0.4946150000000 1.0
C      1  0.5295110000000  0.5014970000000  0.5678830000000 1.0
C      1  0.5613360000000  0.6044210000000  0.4799410000000 1.0
C      1  0.5578180000000  0.5586770000000  0.4923090000000 1.0
C      1  0.5020780000000  0.5129420000000  0.5111220000000 1.0
C      1  0.4756180000000  0.5908200000000  0.4771310000000 1.0
C      1  0.3797380000000  0.5030500000000  0.4390150000000 1.0
C      1  0.5996970000000  0.5813060000000  0.5031830000000 1.0
C      1  0.4082430000000  0.4212530000000  0.5335020000000 1.0
C      1  0.4772630000000  0.4489400000000  0.5446660000000 1.0
C      1  0.4401690000000  0.4728690000000  0.4901080000000 1.0
C      1  0.5799500000000  0.5187860000000  0.4964800000000 1.0
C      1  0.4305900000000  0.5805870000000  0.5041850000000 1.0
C      1  0.4765680000000  0.4365990000000  0.4971590000000 1.0
C      1  0.5695070000000  0.6159490000000  0.4552300000000 1.0
C      1  0.5815540000000  0.4861010000000  0.4591670000000 1.0
C      1  0.4847870000000  0.4816210000000  0.4236990000000 1.0
C      1  0.5778650000000  0.4303850000000  0.4854610000000 1.0
C      1  0.3969270000000  0.4668950000000  0.5570590000000 1.0
C      1  0.4440680000000  0.4954650000000  0.4745830000000 1.0
C      1  0.4162540000000  0.4645430000000  0.5776040000000 1.0
C      1  0.4721230000000  0.5642850000000  0.6103240000000 1.0
C      1  0.5514930000000  0.4517650000000  0.4438420000000 1.0
C      1  0.4527760000000  0.4387370000000  0.5553260000000 1.0
C      1  0.3895670000000  0.4919810000000  0.5473360000000 1.0
C      1  0.4060560000000  0.3812590000000  0.4706800000000 1.0
C      1  0.3947840000000  0.5165630000000  0.5348260000000 1.0
C      1  0.5040800000000  0.5357240000000  0.4549700000000 1.0
C      1  0.5934720000000  0.4484060000000  0.5631290000000 1.0
C      1  0.5105010000000  0.4907630000000  0.4708800000000 1.0
C      1  0.4518540000000  0.5736070000000  0.5519370000000 1.0
C      1  0.5687000000000  0.4865290000000  0.5400700000000 1.0
C      1  0.5234560000000  0.4273520000000  0.5568050000000 1.0
C      1  0.4027680000000  0.5341610000000  0.4708090000000 1.0
C      1  0.5220500000000  0.4529550000000  0.4393550000000 1.0
C      1  0.4984930000000  0.5825580000000  0.5476650000000 1.0
C      1  0.4884270000000  0.4727870000000  0.5558240000000 1.0
C      1  0.4686740000000  0.5259510000000  0.5089300000000 1.0
C      1  0.6176360000000  0.4894560000000  0.4941780000000 1.0
C      1  0.6009210000000  0.4732360000000  0.4753420000000 1.0
C      1  0.4520490000000  0.4503850000000  0.4974830000000 1.0
C      1  0.5014560000000  0.5918300000000  0.5208610000000 1.0
C      1  0.4453620000000  0.4936450000000  0.4464760000000 1.0
C      1  0.4962400000000  0.5280970000000  0.5899620000000 1.0
C      1  0.6223370000000  0.5370260000000  0.5100640000000 1.0
C      1  0.3976750000000  0.4014770000000  0.5170200000000 1.0
C      1  0.5171610000000  0.4261370000000  0.5285270000000 1.0
C      1  0.4353440000000  0.5686210000000  0.4784410000000 1.0
C      1  0.4766450000000  0.5486600000000  0.4203680000000 1.0
C      1  0.4489060000000  0.5211980000000  0.4851790000000 1.0
C      1  0.4566180000000  0.5084960000000  0.5556790000000 1.0
C      1  0.5195730000000  0.5611390000000  0.4594260000000 1.0
C      1  0.4759580000000  0.5541590000000  0.5079020000000 1.0
C      1  0.4724030000000  0.4915870000000  0.5702390000000 1.0
C      1  0.4241180000000  0.4840940000000  0.4310570000000 1.0
C      1  0.4493690000000  0.5196520000000  0.5316890000000 1.0
C      1  0.4400570000000  0.4518370000000  0.5770360000000 1.0
C      1  0.4838790000000  0.5800220000000  0.5020120000000 1.0
C      1  0.5463930000000  0.4930950000000  0.5248000000000 1.0
C      1  0.4484850000000  0.3977870000000  0.4476780000000 1.0
C      1  0.5573490000000  0.4346360000000  0.4660220000000 1.0
C      1  0.4687400000000  0.4135110000000  0.4544920000000 1.0
C      1  0.4823880000000  0.5534170000000  0.5870690000000 1.0
C      1  0.5846830000000  0.4726000000000  0.5561000000000 1.0
C      1  0.5360410000000  0.4216690000000  0.5073370000000 1.0
C      1  0.5106520000000  0.4367840000000  0.4618460000000 1.0
C      1  0.6335750000000  0.4696180000000  0.5078020000000 1.0
C      1  0.5456910000000  0.5509720000000  0.4676850000000 1.0
C      1  0.5105760000000  0.4556480000000  0.6002950000000 1.0
C      1  0.5289780000000  0.4750960000000  0.5114380000000 1.0
C      1  0.5283290000000  0.4947120000000  0.4099450000000 1.0
C      1  0.4363910000000  0.5800280000000  0.5306530000000 1.0
C      1  0.5284290000000  0.6030710000000  0.4346040000000 1.0
C      1  0.5115660000000  0.4738440000000  0.4220220000000 1.0
C      1  0.5653430000000  0.4195390000000  0.5095770000000 1.0
C      1  0.5592870000000  0.5357360000000  0.5093320000000 1.0
C      1  0.4557730000000  0.5789660000000  0.4603360000000 1.0
C      1  0.5559340000000  0.4909200000000  0.4161750000000 1.0
END
