TITL C-612603-7354-534 -1918.26393977848 125000 -834.732043178827 0 0 136 (C1) n - 1
REM
REM in /home/nfs/bkarasulu/CARBON/AIRSS/Generating-Clusters/TERSOFF/Only-C1/FIRE-HFTN
REM
REM
REM
REM
REM
REM ./C.cell (11c1c37f851c82e70ff6c80c92926a4b)
REM AIRSS Version 0.9.1 bugfix July 2018 build 013d7b7c2542+ Fri, 06 Jul 2018 19:26:36 +0100
REM compiler GCC version 9.2.1 20190827 (Red Hat 9.2.1-1)
REM options -cpp -mtune=generic -march=x86-64 -g -O0 -fpre-include=/usr/include/finclude/math-vector-fortran.h
REM seed 493379212 -1745698768 -1062963531 1054465795 -675669438 1449405454 -1527059135 857026761 1645419041 1496404789 -1162786044 596741808 1298213135 612320845 1448922991 356827995 1483614224 -545680146 2129797772 -396778268 1112563232 -558407444 -475773194 896004594 -471432758 -49823255 -451076438 683592348 1092113392 -554916734 2036705352 1365373832 -1400958283
REM
CELL 1.54180   50.00000   50.00000   50.00000   90.00000   90.00000   90.00000
LATT -1
SFAC C  
C      1  0.4032590000000  0.4667890000000  0.4656050000000 1.0
C      1  0.5238870000000  0.4051080000000  0.5206210000000 1.0
C      1  0.4246430000000  0.5730630000000  0.5499720000000 1.0
C      1  0.5435560000000  0.4925500000000  0.4613630000000 1.0
C      1  0.4507840000000  0.5028020000000  0.5357280000000 1.0
C      1  0.5418930000000  0.5955990000000  0.5509340000000 1.0
C      1  0.5219340000000  0.5559150000000  0.4767990000000 1.0
C      1  0.3981350000000  0.4928950000000  0.4813790000000 1.0
C      1  0.6036750000000  0.5239940000000  0.5070030000000 1.0
C      1  0.4403350000000  0.5310770000000  0.5146520000000 1.0
C      1  0.4374370000000  0.4724010000000  0.4209040000000 1.0
C      1  0.4793610000000  0.5071010000000  0.5448190000000 1.0
C      1  0.4936730000000  0.5205730000000  0.5238590000000 1.0
C      1  0.4670440000000  0.4729680000000  0.5806620000000 1.0
C      1  0.5626770000000  0.5528160000000  0.5536790000000 1.0
C      1  0.5386760000000  0.4464410000000  0.5402610000000 1.0
C      1  0.5069280000000  0.4572510000000  0.4096940000000 1.0
C      1  0.4589820000000  0.4541560000000  0.4298710000000 1.0
C      1  0.4656400000000  0.5552800000000  0.5772560000000 1.0
C      1  0.4557530000000  0.4574510000000  0.4578350000000 1.0
C      1  0.4362090000000  0.5708210000000  0.4758240000000 1.0
C      1  0.4931460000000  0.4599260000000  0.5344150000000 1.0
C      1  0.5178820000000  0.4197470000000  0.5720170000000 1.0
C      1  0.5093970000000  0.5819930000000  0.4383410000000 1.0
C      1  0.5485220000000  0.4456270000000  0.4930480000000 1.0
C      1  0.5040870000000  0.5317860000000  0.4173420000000 1.0
C      1  0.5561840000000  0.5255880000000  0.5500700000000 1.0
C      1  0.5585510000000  0.4446470000000  0.5857390000000 1.0
C      1  0.4177190000000  0.5257330000000  0.5567400000000 1.0
C      1  0.5443030000000  0.4968100000000  0.3999110000000 1.0
C      1  0.5992200000000  0.5005100000000  0.4917740000000 1.0
C      1  0.5746960000000  0.5426070000000  0.4530630000000 1.0
C      1  0.5608820000000  0.5895510000000  0.4907100000000 1.0
C      1  0.5701450000000  0.4923110000000  0.4483120000000 1.0
C      1  0.4803680000000  0.5360100000000  0.5936660000000 1.0
C      1  0.4223660000000  0.5240480000000  0.4469320000000 1.0
C      1  0.4406440000000  0.4377250000000  0.4708460000000 1.0
C      1  0.5231150000000  0.4758810000000  0.4532630000000 1.0
C      1  0.4334950000000  0.5020330000000  0.5602890000000 1.0
C      1  0.5368030000000  0.4309200000000  0.4509870000000 1.0
C      1  0.5143730000000  0.4010420000000  0.5495430000000 1.0
C      1  0.4361870000000  0.3741390000000  0.4842080000000 1.0
C      1  0.5864560000000  0.4809320000000  0.4730350000000 1.0
C      1  0.5394620000000  0.4372220000000  0.5671280000000 1.0
C      1  0.4783390000000  0.4489590000000  0.5902860000000 1.0
C      1  0.5035800000000  0.4906840000000  0.4384270000000 1.0
C      1  0.4641790000000  0.5753370000000  0.4672410000000 1.0
C      1  0.5632250000000  0.4635360000000  0.4278590000000 1.0
C      1  0.5096900000000  0.5378650000000  0.5905900000000 1.0
C      1  0.4785020000000  0.5930970000000  0.5184710000000 1.0
C      1  0.4477940000000  0.5176360000000  0.4365940000000 1.0
C      1  0.5412150000000  0.5700040000000  0.5629870000000 1.0
C      1  0.5158690000000  0.5622790000000  0.5760810000000 1.0
C      1  0.4493800000000  0.4980820000000  0.4153010000000 1.0
C      1  0.4523090000000  0.3930100000000  0.5876090000000 1.0
C      1  0.5248290000000  0.5548700000000  0.5053880000000 1.0
C      1  0.4143400000000  0.3902490000000  0.4838980000000 1.0
C      1  0.5246210000000  0.4507560000000  0.4717740000000 1.0
C      1  0.5697120000000  0.5203530000000  0.4351660000000 1.0
C      1  0.6077080000000  0.4812550000000  0.6362000000000 1.0
C      1  0.4667320000000  0.4532360000000  0.5253080000000 1.0
C      1  0.5729210000000  0.4532560000000  0.4755260000000 1.0
C      1  0.5000320000000  0.3948450000000  0.5054660000000 1.0
C      1  0.5955350000000  0.5518620000000  0.5166290000000 1.0
C      1  0.4831970000000  0.5661370000000  0.5113170000000 1.0
C      1  0.4980580000000  0.6054570000000  0.5349020000000 1.0
C      1  0.4314220000000  0.5796370000000  0.5235940000000 1.0
C      1  0.5226030000000  0.5717920000000  0.4143470000000 1.0
C      1  0.4846290000000  0.4400760000000  0.4229320000000 1.0
C      1  0.5755360000000  0.4552170000000  0.6030970000000 1.0
C      1  0.4127910000000  0.4710620000000  0.4371310000000 1.0
C      1  0.5291770000000  0.5435030000000  0.4107810000000 1.0
C      1  0.5252690000000  0.5143990000000  0.5875700000000 1.0
C      1  0.4864010000000  0.3864200000000  0.4813370000000 1.0
C      1  0.4599750000000  0.4230580000000  0.4841680000000 1.0
C      1  0.4321350000000  0.5583190000000  0.5034780000000 1.0
C      1  0.4790440000000  0.4098770000000  0.4659210000000 1.0
C      1  0.4630830000000  0.3694080000000  0.4834500000000 1.0
C      1  0.3952830000000  0.5020050000000  0.5100450000000 1.0
C      1  0.5633680000000  0.4430780000000  0.4477480000000 1.0
C      1  0.4510500000000  0.5998510000000  0.5197800000000 1.0
C      1  0.5194320000000  0.4123500000000  0.4401630000000 1.0
C      1  0.4738910000000  0.4034100000000  0.5750090000000 1.0
C      1  0.5776170000000  0.5649280000000  0.4975050000000 1.0
C      1  0.4990000000000  0.5197340000000  0.4436790000000 1.0
C      1  0.4409550000000  0.4807780000000  0.4949000000000 1.0
C      1  0.4730770000000  0.4958980000000  0.3992920000000 1.0
C      1  0.4609800000000  0.4779880000000  0.4754250000000 1.0
C      1  0.4020810000000  0.4145340000000  0.4812610000000 1.0
C      1  0.4405300000000  0.4824170000000  0.5791090000000 1.0
C      1  0.4775610000000  0.4037380000000  0.5235790000000 1.0
C      1  0.5377990000000  0.6059520000000  0.5026210000000 1.0
C      1  0.5500430000000  0.5134950000000  0.5746750000000 1.0
C      1  0.5417430000000  0.4691110000000  0.4091150000000 1.0
C      1  0.4871760000000  0.5099100000000  0.4973940000000 1.0
C      1  0.5266830000000  0.6051200000000  0.5293180000000 1.0
C      1  0.5698710000000  0.5413910000000  0.4819200000000 1.0
C      1  0.5917470000000  0.4679200000000  0.6197700000000 1.0
C      1  0.5540320000000  0.5221320000000  0.4970690000000 1.0
C      1  0.6233870000000  0.4944290000000  0.6523330000000 1.0
C      1  0.4642650000000  0.4265810000000  0.5126110000000 1.0
C      1  0.4035530000000  0.5153410000000  0.4639440000000 1.0
C      1  0.5326240000000  0.4913290000000  0.5272780000000 1.0
C      1  0.5884180000000  0.5587760000000  0.5432800000000 1.0
C      1  0.5021710000000  0.4593060000000  0.4893420000000 1.0
C      1  0.5505250000000  0.5228360000000  0.4123500000000 1.0
C      1  0.5178800000000  0.5304960000000  0.4652680000000 1.0
C      1  0.4900340000000  0.6014530000000  0.5620310000000 1.0
C      1  0.4857990000000  0.4911080000000  0.5684760000000 1.0
C      1  0.4741860000000  0.5047560000000  0.3729850000000 1.0
C      1  0.4764990000000  0.5136910000000  0.3486160000000 1.0
C      1  0.5498570000000  0.5135590000000  0.5246280000000 1.0
C      1  0.4960350000000  0.6141020000000  0.4693290000000 1.0
C      1  0.5097030000000  0.4921150000000  0.5826670000000 1.0
C      1  0.5736820000000  0.5703640000000  0.4458290000000 1.0
C      1  0.5205280000000  0.4676650000000  0.5353600000000 1.0
C      1  0.4707430000000  0.5231680000000  0.4524830000000 1.0
C      1  0.5357290000000  0.5125880000000  0.4777330000000 1.0
C      1  0.3994940000000  0.5177000000000  0.5332980000000 1.0
C      1  0.4763730000000  0.5570310000000  0.4855580000000 1.0
C      1  0.4489360000000  0.4764370000000  0.5214330000000 1.0
C      1  0.4125510000000  0.4401680000000  0.4745200000000 1.0
C      1  0.4336130000000  0.5503560000000  0.5641600000000 1.0
C      1  0.4849570000000  0.5920430000000  0.4534480000000 1.0
C      1  0.5026700000000  0.5480120000000  0.5220540000000 1.0
C      1  0.4947310000000  0.4830900000000  0.4123180000000 1.0
C      1  0.5285970000000  0.5767690000000  0.4593530000000 1.0
C      1  0.5554950000000  0.5859340000000  0.4615320000000 1.0
C      1  0.4741980000000  0.5294880000000  0.4800600000000 1.0
C      1  0.4862800000000  0.4830160000000  0.4872430000000 1.0
C      1  0.4916490000000  0.4180280000000  0.4410760000000 1.0
C      1  0.4885510000000  0.5750500000000  0.5719570000000 1.0
C      1  0.4915110000000  0.4246950000000  0.5845470000000 1.0
C      1  0.5188350000000  0.6177790000000  0.4838970000000 1.0
C      1  0.5407970000000  0.4295210000000  0.5168040000000 1.0
C      1  0.4849060000000  0.3961090000000  0.5499000000000 1.0
END
