TITL C-612605-9286-876 238700.3770209 125000 -946.475662883507 0 0 157 (C1) n - 1
REM
REM in /home/nfs/bkarasulu/CARBON/AIRSS/Generating-Clusters/TERSOFF/Only-C1/FIRE-HFTN
REM
REM
REM
REM
REM
REM ./C.cell (11c1c37f851c82e70ff6c80c92926a4b)
REM AIRSS Version 0.9.1 bugfix July 2018 build 013d7b7c2542+ Fri, 06 Jul 2018 19:26:36 +0100
REM compiler GCC version 9.2.1 20190827 (Red Hat 9.2.1-1)
REM options -cpp -mtune=generic -march=x86-64 -g -O0 -fpre-include=/usr/include/finclude/math-vector-fortran.h
REM seed -1500076971 -1861158749 -1473572706 -189737510 -1288224532 1437113449 559208350 -1299328027 -954232090 1259892981 1729471891 159415642 -1209456602 -56969193 -187604055 -547437017 335125577 1275854912 339508216 817196630 1225174174 -1367856316 -1082347229 -151718818 641709048 -1115095538 -1903374968 -657546767 1116346505 -669413007 1511983698 558727959 -2067918450
REM
CELL 1.54180   50.00000   50.00000   50.00000   90.00000   90.00000   90.00000
LATT -1
SFAC C  
C      1  0.4958060000000  0.5027740000000  0.5616660000000 1.0
C      1  0.5351720000000  0.4894360000000  0.3900100000000 1.0
C      1  0.6028280000000  0.4666380000000  0.4681960000000 1.0
C      1  0.5077420000000  0.4641950000000  0.5244620000000 1.0
C      1  0.5078670000000  0.4425620000000  0.5933200000000 1.0
C      1  0.4510640000000  0.5125200000000  0.5435060000000 1.0
C      1  0.5102150000000  0.4795960000000  0.4594300000000 1.0
C      1  0.5380270000000  0.5462370000000  0.4779300000000 1.0
C      1  0.5990420000000  0.4433900000000  0.4888540000000 1.0
C      1  0.3896720000000  0.4733870000000  0.5597490000000 1.0
C      1  0.4135040000000  0.5792340000000  0.4451850000000 1.0
C      1  0.4144330000000  0.4738130000000  0.5735230000000 1.0
C      1  0.4767660000000  0.4882810000000  0.4176800000000 1.0
C      1  0.4633830000000  0.4549240000000  0.5758580000000 1.0
C      1  0.5100990000000  0.3868840000000  0.4843150000000 1.0
C      1  0.4903020000000  0.5501260000000  0.3983250000000 1.0
C      1  0.4421200000000  0.4171820000000  0.5454850000000 1.0
C      1  0.5874090000000  0.5679410000000  0.4954410000000 1.0
C      1  0.4217300000000  0.4437980000000  0.5081030000000 1.0
C      1  0.4482480000000  0.4864470000000  0.5430880000000 1.0
C      1  0.4913530000000  0.5532690000000  0.4562310000000 1.0
C      1  0.4331010000000  0.5970270000000  0.4504460000000 1.0
C      1  0.5740560000000  0.4186970000000  0.4525030000000 1.0
C      1  0.5184550000000  0.4479300000000  0.4216860000000 1.0
C      1  0.5522350000000  0.4985460000000  0.5634650000000 1.0
C      1  0.4555280000000  0.6069540000000  0.4617740000000 1.0
C      1  0.5375510000000  0.4423230000000  0.4657390000000 1.0
C      1  0.5768610000000  0.4616140000000  0.5693170000000 1.0
C      1  0.5375570000000  0.5112040000000  0.4418480000000 1.0
C      1  0.4277310000000  0.4272780000000  0.4617890000000 1.0
C      1  0.5275680000000  0.6198710000000  0.5366960000000 1.0
C      1  0.4951990000000  0.5316930000000  0.5055690000000 1.0
C      1  0.5372120000000  0.5384230000000  0.4290570000000 1.0
C      1  0.4558560000000  0.4776480000000  0.4349450000000 1.0
C      1  0.5530740000000  0.4979390000000  0.4617030000000 1.0
C      1  0.4363090000000  0.4979460000000  0.4746260000000 1.0
C      1  0.5435150000000  0.4569600000000  0.4893570000000 1.0
C      1  0.4663360000000  0.5974780000000  0.5089430000000 1.0
C      1  0.5484410000000  0.6031180000000  0.5378900000000 1.0
C      1  0.4231270000000  0.5636410000000  0.5090960000000 1.0
C      1  0.5275770000000  0.4193460000000  0.5152890000000 1.0
C      1  0.5063420000000  0.5983650000000  0.4725920000000 1.0
C      1  0.5219840000000  0.4350960000000  0.3992070000000 1.0
C      1  0.4656020000000  0.5346290000000  0.3960900000000 1.0
C      1  0.4179010000000  0.4942520000000  0.5929800000000 1.0
C      1  0.4636620000000  0.4535580000000  0.4469640000000 1.0
C      1  0.6017230000000  0.5159610000000  0.4623980000000 1.0
C      1  0.5215280000000  0.5536680000000  0.4507000000000 1.0
C      1  0.4822850000000  0.5758570000000  0.4374480000000 1.0
C      1  0.4543380000000  0.5366710000000  0.4805480000000 1.0
C      1  0.5881610000000  0.5287010000000  0.5856190000000 1.0
C      1  0.5946970000000  0.4695770000000  0.5451480000000 1.0
C      1  0.5514300000000  0.5761690000000  0.5449450000000 1.0
C      1  0.4684730000000  0.5317210000000  0.4501510000000 1.0
C      1  0.4222910000000  0.5217740000000  0.5986380000000 1.0
C      1  0.4293340000000  0.5476320000000  0.4865520000000 1.0
C      1  0.4806530000000  0.5980870000000  0.5343180000000 1.0
C      1  0.5076650000000  0.4885040000000  0.4859160000000 1.0
C      1  0.4770160000000  0.6045550000000  0.4809060000000 1.0
C      1  0.4099950000000  0.5408840000000  0.5809750000000 1.0
C      1  0.4924240000000  0.4190050000000  0.5511340000000 1.0
C      1  0.5607010000000  0.5289460000000  0.5181870000000 1.0
C      1  0.4444740000000  0.5291930000000  0.6147380000000 1.0
C      1  0.4274790000000  0.4771720000000  0.4270520000000 1.0
C      1  0.5162560000000  0.5125740000000  0.4967450000000 1.0
C      1  0.4298050000000  0.5025950000000  0.4086320000000 1.0
C      1  0.3789320000000  0.4846860000000  0.5380010000000 1.0
C      1  0.5458650000000  0.4156210000000  0.4589710000000 1.0
C      1  0.5798580000000  0.4925630000000  0.4251060000000 1.0
C      1  0.5641490000000  0.5091060000000  0.5391870000000 1.0
C      1  0.4095910000000  0.5083690000000  0.4752170000000 1.0
C      1  0.5542010000000  0.4081040000000  0.5108180000000 1.0
C      1  0.4946170000000  0.5175660000000  0.6086950000000 1.0
C      1  0.5074650000000  0.5405330000000  0.5317530000000 1.0
C      1  0.4894090000000  0.5089320000000  0.4314460000000 1.0
C      1  0.4294220000000  0.4417060000000  0.5370840000000 1.0
C      1  0.4929100000000  0.4731030000000  0.5034470000000 1.0
C      1  0.4587930000000  0.5091830000000  0.3840620000000 1.0
C      1  0.5095480000000  0.4810510000000  0.5474320000000 1.0
C      1  0.4358530000000  0.4229600000000  0.4912210000000 1.0
C      1  0.4866980000000  0.4366910000000  0.5739290000000 1.0
C      1  0.5085040000000  0.4890550000000  0.3824340000000 1.0
C      1  0.4490290000000  0.5320360000000  0.4202630000000 1.0
C      1  0.5215240000000  0.4162390000000  0.5436550000000 1.0
C      1  0.5574730000000  0.4816330000000  0.4850730000000 1.0
C      1  0.5231820000000  0.3975860000000  0.4595960000000 1.0
C      1  0.5277910000000  0.4479040000000  0.5113890000000 1.0
C      1  0.5303660000000  0.5846190000000  0.4489900000000 1.0
C      1  0.4012660000000  0.5555120000000  0.4505000000000 1.0
C      1  0.5810580000000  0.4894740000000  0.4991530000000 1.0
C      1  0.5670520000000  0.4847570000000  0.5858810000000 1.0
C      1  0.5617170000000  0.5784080000000  0.4501820000000 1.0
C      1  0.4159180000000  0.4562400000000  0.4561650000000 1.0
C      1  0.4186920000000  0.5471650000000  0.5547420000000 1.0
C      1  0.3958490000000  0.4898350000000  0.4922750000000 1.0
C      1  0.5411390000000  0.5256210000000  0.4969710000000 1.0
C      1  0.5855310000000  0.5208030000000  0.4382440000000 1.0
C      1  0.4681400000000  0.4664500000000  0.4932080000000 1.0
C      1  0.4540100000000  0.4920600000000  0.4963080000000 1.0
C      1  0.4904270000000  0.5559890000000  0.5696480000000 1.0
C      1  0.4676360000000  0.5190730000000  0.5001020000000 1.0
C      1  0.4885600000000  0.4976410000000  0.5890100000000 1.0
C      1  0.5279980000000  0.5592630000000  0.5444880000000 1.0
C      1  0.4814370000000  0.4003230000000  0.4264850000000 1.0
C      1  0.5506400000000  0.4513800000000  0.5614640000000 1.0
C      1  0.5211840000000  0.5286320000000  0.6092020000000 1.0
C      1  0.5806650000000  0.4398570000000  0.4336000000000 1.0
C      1  0.4069170000000  0.4630910000000  0.4876370000000 1.0
C      1  0.4801760000000  0.4903610000000  0.3895450000000 1.0
C      1  0.5814740000000  0.4895830000000  0.5269400000000 1.0
C      1  0.4715240000000  0.4462020000000  0.4722930000000 1.0
C      1  0.5488660000000  0.4248400000000  0.5535490000000 1.0
C      1  0.5914060000000  0.4412630000000  0.5226590000000 1.0
C      1  0.4848920000000  0.5753760000000  0.4105120000000 1.0
C      1  0.6067230000000  0.5114490000000  0.5751080000000 1.0
C      1  0.4854880000000  0.4019990000000  0.4906560000000 1.0
C      1  0.4710210000000  0.5289230000000  0.6197220000000 1.0
C      1  0.3852410000000  0.5013600000000  0.5163010000000 1.0
C      1  0.5009450000000  0.6174430000000  0.5369780000000 1.0
C      1  0.4988820000000  0.4090990000000  0.4466040000000 1.0
C      1  0.5135780000000  0.5798450000000  0.4936940000000 1.0
C      1  0.4855210000000  0.4217570000000  0.4697650000000 1.0
C      1  0.4082930000000  0.5366030000000  0.4702610000000 1.0
C      1  0.4397430000000  0.5864940000000  0.5114050000000 1.0
C      1  0.5591500000000  0.4899850000000  0.4037820000000 1.0
C      1  0.5656990000000  0.5468210000000  0.5840630000000 1.0
C      1  0.4681520000000  0.4109740000000  0.5352280000000 1.0
C      1  0.3885530000000  0.5294430000000  0.5212850000000 1.0
C      1  0.5180360000000  0.5413270000000  0.4042430000000 1.0
C      1  0.6020490000000  0.4933010000000  0.4800750000000 1.0
C      1  0.4382320000000  0.4624650000000  0.5577420000000 1.0
C      1  0.5367490000000  0.5452870000000  0.5918400000000 1.0
C      1  0.5488090000000  0.4745240000000  0.6062300000000 1.0
C      1  0.5920550000000  0.4190090000000  0.4748090000000 1.0
C      1  0.5122200000000  0.5009480000000  0.4422520000000 1.0
C      1  0.4445480000000  0.5371840000000  0.5504460000000 1.0
C      1  0.4703410000000  0.4767030000000  0.5933000000000 1.0
C      1  0.5709060000000  0.4208850000000  0.5314520000000 1.0
C      1  0.5899890000000  0.4665810000000  0.4404410000000 1.0
C      1  0.4342680000000  0.4096300000000  0.4409010000000 1.0
C      1  0.5350180000000  0.4759490000000  0.5571870000000 1.0
C      1  0.5672050000000  0.5802330000000  0.4798290000000 1.0
C      1  0.4530650000000  0.5004280000000  0.4537450000000 1.0
C      1  0.5410650000000  0.5726560000000  0.4908840000000 1.0
C      1  0.4944500000000  0.5571200000000  0.4880330000000 1.0
C      1  0.4634740000000  0.4072000000000  0.5068550000000 1.0
C      1  0.4544870000000  0.4002060000000  0.4260210000000 1.0
C      1  0.6138640000000  0.4892230000000  0.5603000000000 1.0
C      1  0.5202550000000  0.4557120000000  0.4484330000000 1.0
C      1  0.5821550000000  0.5471720000000  0.5123110000000 1.0
C      1  0.4060730000000  0.5507220000000  0.5292010000000 1.0
C      1  0.5192090000000  0.5598240000000  0.5736560000000 1.0
C      1  0.5699750000000  0.5677900000000  0.5646810000000 1.0
C      1  0.4780000000000  0.5783340000000  0.5555770000000 1.0
C      1  0.5272980000000  0.4573060000000  0.6057210000000 1.0
C      1  0.4922530000000  0.5303900000000  0.5542670000000 1.0
C      1  0.5673230000000  0.5478320000000  0.4355070000000 1.0
END
