TITL C-612600-6631-892 0.000853824172904062 125000 -177.939112910525 0 0 30 (C1) n - 1
REM
REM in /home/nfs/bkarasulu/CARBON/AIRSS/Generating-Clusters/TERSOFF/Only-C1/FIRE-HFTN
REM
REM
REM
REM
REM
REM ./C.cell (11c1c37f851c82e70ff6c80c92926a4b)
REM AIRSS Version 0.9.1 bugfix July 2018 build 013d7b7c2542+ Fri, 06 Jul 2018 19:26:36 +0100
REM compiler GCC version 9.2.1 20190827 (Red Hat 9.2.1-1)
REM options -cpp -mtune=generic -march=x86-64 -g -O0 -fpre-include=/usr/include/finclude/math-vector-fortran.h
REM seed -164767538 -1103326354 1267378112 -175640241 -1812779932 1025245386 -1473823491 -834093164 524030540 1941314945 1657396820 2030473379 603105788 1416175827 899787757 -1212253222 -1375292868 1025757792 1935680634 1930998091 580400184 -1990102437 550230947 1208419289 449120273 -1174855602 -1987333251 1244588779 -1003302940 641247755 -823684118 752387881 -207155395
REM
CELL 1.54180   50.00000   50.00000   50.00000   90.00000   90.00000   90.00000
LATT -1
SFAC C  
C      1  0.4161030000000  0.5206380000000  0.4488790000000 1.0
C      1  0.4731240000000  0.5131310000000  0.5694120000000 1.0
C      1  0.5095690000000  0.4606590000000  0.5065680000000 1.0
C      1  0.4764260000000  0.5304260000000  0.5164670000000 1.0
C      1  0.4598790000000  0.5058800000000  0.4773880000000 1.0
C      1  0.5714380000000  0.4812440000000  0.5195380000000 1.0
C      1  0.5502160000000  0.5253820000000  0.5305020000000 1.0
C      1  0.5338330000000  0.4589210000000  0.4915830000000 1.0
C      1  0.5682540000000  0.5056790000000  0.5298880000000 1.0
C      1  0.3951770000000  0.5281660000000  0.4352740000000 1.0
C      1  0.4667670000000  0.4790970000000  0.4823070000000 1.0
C      1  0.4775010000000  0.5253070000000  0.4884360000000 1.0
C      1  0.5340460000000  0.4582800000000  0.4153590000000 1.0
C      1  0.5104310000000  0.4659750000000  0.5341210000000 1.0
C      1  0.5233880000000  0.4755150000000  0.5796470000000 1.0
C      1  0.5286960000000  0.4714010000000  0.4386960000000 1.0
C      1  0.5581950000000  0.4632710000000  0.5048710000000 1.0
C      1  0.4373850000000  0.5130800000000  0.4627280000000 1.0
C      1  0.5330040000000  0.4591690000000  0.4635930000000 1.0
C      1  0.5006220000000  0.5244200000000  0.5317440000000 1.0
C      1  0.4968460000000  0.5075340000000  0.5546840000000 1.0
C      1  0.5253020000000  0.5323660000000  0.5200130000000 1.0
C      1  0.4850230000000  0.4629950000000  0.4931670000000 1.0
C      1  0.5186610000000  0.4976160000000  0.4387010000000 1.0
C      1  0.5092910000000  0.5192130000000  0.4511160000000 1.0
C      1  0.5104450000000  0.4827180000000  0.5566970000000 1.0
C      1  0.5227540000000  0.5402940000000  0.4929170000000 1.0
C      1  0.4519570000000  0.5259640000000  0.5580670000000 1.0
C      1  0.4532350000000  0.5344680000000  0.5322400000000 1.0
C      1  0.5024280000000  0.5311910000000  0.4753990000000 1.0
END
