TITL C-612602-9376-1236 8.90350565021758e-05 125000 -708.249132778051 0 0 114 (C1) n - 1
REM
REM in /home/nfs/bkarasulu/CARBON/AIRSS/Generating-Clusters/TERSOFF/Only-C1/FIRE-HFTN
REM
REM
REM
REM
REM
REM ./C.cell (11c1c37f851c82e70ff6c80c92926a4b)
REM AIRSS Version 0.9.1 bugfix July 2018 build 013d7b7c2542+ Fri, 06 Jul 2018 19:26:36 +0100
REM compiler GCC version 9.2.1 20190827 (Red Hat 9.2.1-1)
REM options -cpp -mtune=generic -march=x86-64 -g -O0 -fpre-include=/usr/include/finclude/math-vector-fortran.h
REM seed -1306030337 -1968630164 -1438288357 1217214712 -1580069497 421084254 -1940833718 138756956 -255837360 1813318658 -1759803661 -1499511246 -1943755941 -482250643 -655439054 592825505 1059450115 1021938890 105274211 265087937 -1867712682 658286113 1082871022 1477007575 138346537 -1963573933 -1960445022 -285231295 415493793 -353917293 389079593 -2010324881 -250486876
REM
CELL 1.54180   50.00000   50.00000   50.00000   90.00000   90.00000   90.00000
LATT -1
SFAC C  
C      1  0.5405030000000  0.5063470000000  0.5910100000000 1.0
C      1  0.4897810000000  0.5574280000000  0.5712180000000 1.0
C      1  0.4290260000000  0.5541520000000  0.5838860000000 1.0
C      1  0.4047900000000  0.4642810000000  0.4770020000000 1.0
C      1  0.4789140000000  0.5009880000000  0.5306020000000 1.0
C      1  0.5682260000000  0.4531090000000  0.5737320000000 1.0
C      1  0.5557390000000  0.5196790000000  0.4446650000000 1.0
C      1  0.4415260000000  0.5720430000000  0.5681380000000 1.0
C      1  0.3819090000000  0.5032610000000  0.4604850000000 1.0
C      1  0.3917100000000  0.5012390000000  0.5078200000000 1.0
C      1  0.5567840000000  0.5067570000000  0.5194980000000 1.0
C      1  0.4811980000000  0.5594220000000  0.5441330000000 1.0
C      1  0.5677400000000  0.5101520000000  0.4938050000000 1.0
C      1  0.5013830000000  0.5709710000000  0.5911990000000 1.0
C      1  0.5093250000000  0.5005910000000  0.4556230000000 1.0
C      1  0.5719420000000  0.4298040000000  0.5324740000000 1.0
C      1  0.4705420000000  0.4641760000000  0.4907100000000 1.0
C      1  0.5034320000000  0.5279230000000  0.4554390000000 1.0
C      1  0.4522590000000  0.5038780000000  0.5212200000000 1.0
C      1  0.4949610000000  0.5419420000000  0.4782220000000 1.0
C      1  0.5295250000000  0.5919130000000  0.4731500000000 1.0
C      1  0.4252880000000  0.4914060000000  0.4394800000000 1.0
C      1  0.4831470000000  0.5933270000000  0.4161790000000 1.0
C      1  0.4511460000000  0.4480710000000  0.5029700000000 1.0
C      1  0.5245610000000  0.5859270000000  0.4460350000000 1.0
C      1  0.5141040000000  0.4829350000000  0.4971110000000 1.0
C      1  0.5937380000000  0.4990110000000  0.4897240000000 1.0
C      1  0.5491850000000  0.4672180000000  0.4604990000000 1.0
C      1  0.4334480000000  0.5622010000000  0.5230610000000 1.0
C      1  0.4499150000000  0.4834620000000  0.4507160000000 1.0
C      1  0.4593730000000  0.4859160000000  0.4767970000000 1.0
C      1  0.4891160000000  0.4562900000000  0.4187630000000 1.0
C      1  0.4386220000000  0.4299550000000  0.4844160000000 1.0
C      1  0.5510270000000  0.5107830000000  0.4716650000000 1.0
C      1  0.4796140000000  0.4352490000000  0.4333180000000 1.0
C      1  0.5932750000000  0.4478300000000  0.5244170000000 1.0
C      1  0.5643470000000  0.4769780000000  0.5620560000000 1.0
C      1  0.4302060000000  0.4807140000000  0.5795210000000 1.0
C      1  0.4181070000000  0.4276560000000  0.5643080000000 1.0
C      1  0.3765860000000  0.5112490000000  0.4859280000000 1.0
C      1  0.5214230000000  0.5888180000000  0.5895620000000 1.0
C      1  0.4141830000000  0.4375230000000  0.4724560000000 1.0
C      1  0.4686810000000  0.5729180000000  0.4065530000000 1.0
C      1  0.5579320000000  0.5481100000000  0.4436740000000 1.0
C      1  0.5350490000000  0.4295530000000  0.4408650000000 1.0
C      1  0.5689690000000  0.4294740000000  0.5606510000000 1.0
C      1  0.5047030000000  0.5991540000000  0.4310340000000 1.0
C      1  0.4024690000000  0.4842560000000  0.4554900000000 1.0
C      1  0.4277480000000  0.5114140000000  0.4196750000000 1.0
C      1  0.5759140000000  0.4594050000000  0.4676580000000 1.0
C      1  0.5328290000000  0.4239080000000  0.4686330000000 1.0
C      1  0.5570750000000  0.5257120000000  0.5818760000000 1.0
C      1  0.6000420000000  0.5482790000000  0.5103200000000 1.0
C      1  0.4479370000000  0.5534310000000  0.4726640000000 1.0
C      1  0.4934470000000  0.5316590000000  0.4097730000000 1.0
C      1  0.4769040000000  0.4069700000000  0.5039090000000 1.0
C      1  0.4114060000000  0.5466260000000  0.5200100000000 1.0
C      1  0.5741490000000  0.5386750000000  0.5632640000000 1.0
C      1  0.4441040000000  0.5298390000000  0.4088650000000 1.0
C      1  0.5673540000000  0.5616300000000  0.5469930000000 1.0
C      1  0.4720990000000  0.4173890000000  0.4526220000000 1.0
C      1  0.5866180000000  0.5672820000000  0.5269470000000 1.0
C      1  0.4533140000000  0.5671820000000  0.5424980000000 1.0
C      1  0.5248930000000  0.5732210000000  0.5237350000000 1.0
C      1  0.4606920000000  0.4119470000000  0.4788230000000 1.0
C      1  0.5791620000000  0.5575840000000  0.4606960000000 1.0
C      1  0.5008280000000  0.4240090000000  0.5439730000000 1.0
C      1  0.5325760000000  0.5602250000000  0.4360560000000 1.0
C      1  0.5102660000000  0.5415560000000  0.4313180000000 1.0
C      1  0.5956830000000  0.4788930000000  0.4704780000000 1.0
C      1  0.4384280000000  0.5296050000000  0.4805180000000 1.0
C      1  0.4960250000000  0.5042050000000  0.4024060000000 1.0
C      1  0.5488410000000  0.5021300000000  0.4227140000000 1.0
C      1  0.3997050000000  0.4200430000000  0.4572360000000 1.0
C      1  0.3998460000000  0.4733420000000  0.5046090000000 1.0
C      1  0.4680050000000  0.5447580000000  0.4062750000000 1.0
C      1  0.5559520000000  0.4920890000000  0.5417080000000 1.0
C      1  0.6082490000000  0.4979100000000  0.5140550000000 1.0
C      1  0.4985590000000  0.4590840000000  0.4909920000000 1.0
C      1  0.5311500000000  0.4887670000000  0.4725200000000 1.0
C      1  0.5403870000000  0.4567140000000  0.4350980000000 1.0
C      1  0.4277710000000  0.5045840000000  0.5664950000000 1.0
C      1  0.5952120000000  0.5527330000000  0.4822690000000 1.0
C      1  0.5055020000000  0.4785820000000  0.4102210000000 1.0
C      1  0.5296250000000  0.5869410000000  0.4994390000000 1.0
C      1  0.5175120000000  0.4605470000000  0.5813190000000 1.0
C      1  0.6074710000000  0.4712200000000  0.5248180000000 1.0
C      1  0.5334250000000  0.4778730000000  0.4177550000000 1.0
C      1  0.4510780000000  0.4383110000000  0.5298500000000 1.0
C      1  0.5185680000000  0.4883980000000  0.5877690000000 1.0
C      1  0.5021760000000  0.5551740000000  0.5245640000000 1.0
C      1  0.4738880000000  0.5603260000000  0.4742340000000 1.0
C      1  0.5551530000000  0.4201530000000  0.4868970000000 1.0
C      1  0.4489620000000  0.5067460000000  0.4929170000000 1.0
C      1  0.5430430000000  0.5760390000000  0.5459010000000 1.0
C      1  0.5217100000000  0.4154970000000  0.5241320000000 1.0
C      1  0.5784470000000  0.4330470000000  0.4773330000000 1.0
C      1  0.5007440000000  0.5055330000000  0.5120160000000 1.0
C      1  0.4822330000000  0.5020900000000  0.5580730000000 1.0
C      1  0.4240820000000  0.5279660000000  0.5817480000000 1.0
C      1  0.4072070000000  0.5188090000000  0.5240800000000 1.0
C      1  0.5019010000000  0.5339140000000  0.5047690000000 1.0
C      1  0.5371150000000  0.5923500000000  0.5680510000000 1.0
C      1  0.5982290000000  0.5259240000000  0.5537060000000 1.0
C      1  0.4253720000000  0.4411290000000  0.5417270000000 1.0
C      1  0.6075830000000  0.5240860000000  0.5264480000000 1.0
C      1  0.5099880000000  0.4336270000000  0.4826590000000 1.0
C      1  0.5078230000000  0.4403740000000  0.5661020000000 1.0
C      1  0.5501160000000  0.4199440000000  0.5160780000000 1.0
C      1  0.4293510000000  0.5069230000000  0.5381180000000 1.0
C      1  0.4731490000000  0.4196140000000  0.5315010000000 1.0
C      1  0.4067670000000  0.4569210000000  0.5267570000000 1.0
C      1  0.5048160000000  0.4119630000000  0.5004600000000 1.0
C      1  0.4943660000000  0.5011370000000  0.5815920000000 1.0
END
