TITL C-612605-9286-1433 40.8991051631229 125000 -900.15438218849 0 0 146 (C1) n - 1
REM
REM in /home/nfs/bkarasulu/CARBON/AIRSS/Generating-Clusters/TERSOFF/Only-C1/FIRE-HFTN
REM
REM
REM
REM
REM
REM ./C.cell (11c1c37f851c82e70ff6c80c92926a4b)
REM AIRSS Version 0.9.1 bugfix July 2018 build 013d7b7c2542+ Fri, 06 Jul 2018 19:26:36 +0100
REM compiler GCC version 9.2.1 20190827 (Red Hat 9.2.1-1)
REM options -cpp -mtune=generic -march=x86-64 -g -O0 -fpre-include=/usr/include/finclude/math-vector-fortran.h
REM seed -1248678595 1145093150 169424497 -942232781 1722366891 429094595 -1463864763 652374893 -797011967 1292545414 726923446 -1411546276 899017035 -154690236 -2039589111 -1316409978 -1509262479 1727503957 -1760634510 -358020032 -1262141337 1849254261 -232445078 -1265278742 670537320 344462034 -170603823 1401259859 -375196955 -762825139 -1419939928 1023336831 1881206957
REM
CELL 1.54180   50.00000   50.00000   50.00000   90.00000   90.00000   90.00000
LATT -1
SFAC C  
C      1  0.5554990000000  0.4765840000000  0.4775330000000 1.0
C      1  0.4784530000000  0.5087560000000  0.3927740000000 1.0
C      1  0.5653890000000  0.5921120000000  0.4804030000000 1.0
C      1  0.4346580000000  0.5328560000000  0.5760580000000 1.0
C      1  0.4396820000000  0.4916780000000  0.4851430000000 1.0
C      1  0.5519610000000  0.4971960000000  0.5922320000000 1.0
C      1  0.5446800000000  0.6053580000000  0.4694330000000 1.0
C      1  0.5056040000000  0.4147420000000  0.5099090000000 1.0
C      1  0.4049600000000  0.4814390000000  0.5443720000000 1.0
C      1  0.4459580000000  0.5130330000000  0.5967470000000 1.0
C      1  0.5877330000000  0.5062000000000  0.4442720000000 1.0
C      1  0.5236380000000  0.3432180000000  0.5068120000000 1.0
C      1  0.4853020000000  0.4806200000000  0.4530660000000 1.0
C      1  0.4066990000000  0.5404560000000  0.5039880000000 1.0
C      1  0.4725020000000  0.4297700000000  0.5730050000000 1.0
C      1  0.5332040000000  0.3195810000000  0.5121900000000 1.0
C      1  0.5152940000000  0.4623350000000  0.5258590000000 1.0
C      1  0.5712590000000  0.4887590000000  0.4980770000000 1.0
C      1  0.4025150000000  0.5529210000000  0.5307200000000 1.0
C      1  0.4078940000000  0.5213590000000  0.5712520000000 1.0
C      1  0.4992140000000  0.4977780000000  0.4705390000000 1.0
C      1  0.5264020000000  0.4901220000000  0.4349880000000 1.0
C      1  0.5801780000000  0.5686160000000  0.4860940000000 1.0
C      1  0.4893070000000  0.5393700000000  0.4904790000000 1.0
C      1  0.5292480000000  0.5107280000000  0.5074600000000 1.0
C      1  0.5147160000000  0.4261860000000  0.4843580000000 1.0
C      1  0.4578710000000  0.5860980000000  0.4995740000000 1.0
C      1  0.5102260000000  0.5851480000000  0.5080560000000 1.0
C      1  0.3947010000000  0.5296900000000  0.5472990000000 1.0
C      1  0.5137720000000  0.3685340000000  0.5011530000000 1.0
C      1  0.4985640000000  0.5692400000000  0.3971480000000 1.0
C      1  0.5785660000000  0.5000940000000  0.4190900000000 1.0
C      1  0.3924320000000  0.5150720000000  0.5037130000000 1.0
C      1  0.5177380000000  0.4254210000000  0.5591140000000 1.0
C      1  0.5716240000000  0.4321300000000  0.4232690000000 1.0
C      1  0.5691490000000  0.5559490000000  0.6310240000000 1.0
C      1  0.5244680000000  0.5964540000000  0.6064160000000 1.0
C      1  0.5277820000000  0.4835440000000  0.5822630000000 1.0
C      1  0.5302760000000  0.5317680000000  0.4631410000000 1.0
C      1  0.4343840000000  0.4415070000000  0.4661300000000 1.0
C      1  0.3779660000000  0.5116600000000  0.4558160000000 1.0
C      1  0.4782480000000  0.4252580000000  0.5209530000000 1.0
C      1  0.5300950000000  0.5269770000000  0.5614790000000 1.0
C      1  0.4424660000000  0.5300680000000  0.4203330000000 1.0
C      1  0.5305390000000  0.4402430000000  0.5391150000000 1.0
C      1  0.4917740000000  0.6033520000000  0.4682130000000 1.0
C      1  0.5849400000000  0.5575780000000  0.5121600000000 1.0
C      1  0.5424620000000  0.4248640000000  0.4809120000000 1.0
C      1  0.4731850000000  0.5930340000000  0.4496710000000 1.0
C      1  0.4522440000000  0.5316370000000  0.5186760000000 1.0
C      1  0.5324860000000  0.5387590000000  0.5164310000000 1.0
C      1  0.4812640000000  0.4115610000000  0.4526410000000 1.0
C      1  0.5285330000000  0.4636400000000  0.4262590000000 1.0
C      1  0.4845950000000  0.5320850000000  0.5874650000000 1.0
C      1  0.5152250000000  0.5037420000000  0.5669480000000 1.0
C      1  0.5714590000000  0.4630570000000  0.5411120000000 1.0
C      1  0.3925020000000  0.5042750000000  0.5304530000000 1.0
C      1  0.4342230000000  0.4370670000000  0.5420270000000 1.0
C      1  0.4602800000000  0.5516270000000  0.4283200000000 1.0
C      1  0.4709130000000  0.5193930000000  0.6096700000000 1.0
C      1  0.5556500000000  0.5467280000000  0.4221120000000 1.0
C      1  0.5134100000000  0.5487970000000  0.4780280000000 1.0
C      1  0.4609190000000  0.4268540000000  0.5464120000000 1.0
C      1  0.4407860000000  0.5026130000000  0.4585910000000 1.0
C      1  0.5215110000000  0.5442280000000  0.5418770000000 1.0
C      1  0.5602220000000  0.4815940000000  0.5230290000000 1.0
C      1  0.5834330000000  0.4379100000000  0.4950800000000 1.0
C      1  0.4853350000000  0.5507810000000  0.4139050000000 1.0
C      1  0.5643770000000  0.5819500000000  0.6283580000000 1.0
C      1  0.4884250000000  0.5099440000000  0.5689690000000 1.0
C      1  0.4879150000000  0.4380380000000  0.4111540000000 1.0
C      1  0.5454800000000  0.5109760000000  0.6169240000000 1.0
C      1  0.4458870000000  0.4683170000000  0.4257560000000 1.0
C      1  0.5602190000000  0.4476620000000  0.4784300000000 1.0
C      1  0.4912570000000  0.3730160000000  0.4839860000000 1.0
C      1  0.4950340000000  0.5238650000000  0.4101980000000 1.0
C      1  0.5337700000000  0.5356350000000  0.4358570000000 1.0
C      1  0.5250670000000  0.3925000000000  0.5119600000000 1.0
C      1  0.5557100000000  0.6291680000000  0.6232810000000 1.0
C      1  0.5417630000000  0.5512600000000  0.3769860000000 1.0
C      1  0.5294040000000  0.5013040000000  0.4718280000000 1.0
C      1  0.4505380000000  0.5094930000000  0.4000500000000 1.0
C      1  0.4486190000000  0.5262080000000  0.5487910000000 1.0
C      1  0.4261090000000  0.5198290000000  0.4414580000000 1.0
C      1  0.4864760000000  0.4563470000000  0.4664160000000 1.0
C      1  0.5738200000000  0.5007470000000  0.5713670000000 1.0
C      1  0.5890830000000  0.5225800000000  0.4684480000000 1.0
C      1  0.5258980000000  0.5621360000000  0.4998870000000 1.0
C      1  0.4433820000000  0.4887540000000  0.5786670000000 1.0
C      1  0.4983740000000  0.4319780000000  0.4634080000000 1.0
C      1  0.5185560000000  0.5087020000000  0.6276000000000 1.0
C      1  0.5417360000000  0.4890480000000  0.3841940000000 1.0
C      1  0.4923830000000  0.4907260000000  0.3761900000000 1.0
C      1  0.4830320000000  0.4576050000000  0.5172920000000 1.0
C      1  0.5197020000000  0.5665580000000  0.3804640000000 1.0
C      1  0.5483680000000  0.6031630000000  0.6194480000000 1.0
C      1  0.5568790000000  0.5360210000000  0.3953460000000 1.0
C      1  0.5856310000000  0.5127640000000  0.4959120000000 1.0
C      1  0.4927100000000  0.5585230000000  0.5893270000000 1.0
C      1  0.5118440000000  0.4608880000000  0.5886240000000 1.0
C      1  0.3983120000000  0.5195740000000  0.4404380000000 1.0
C      1  0.5762130000000  0.5577440000000  0.4377720000000 1.0
C      1  0.4571620000000  0.4240050000000  0.5950320000000 1.0
C      1  0.5188780000000  0.6098180000000  0.4630660000000 1.0
C      1  0.4859000000000  0.5949470000000  0.4954130000000 1.0
C      1  0.4345210000000  0.4183960000000  0.4833240000000 1.0
C      1  0.5702210000000  0.4216540000000  0.5163170000000 1.0
C      1  0.4946810000000  0.5531670000000  0.5389120000000 1.0
C      1  0.5625960000000  0.5304830000000  0.6272410000000 1.0
C      1  0.4449730000000  0.4420310000000  0.4377640000000 1.0
C      1  0.5182820000000  0.5147010000000  0.4234520000000 1.0
C      1  0.5314130000000  0.4862630000000  0.5218450000000 1.0
C      1  0.4149950000000  0.4918000000000  0.5696050000000 1.0
C      1  0.4386580000000  0.4831280000000  0.4025940000000 1.0
C      1  0.4596310000000  0.4866760000000  0.4433250000000 1.0
C      1  0.4182270000000  0.5767270000000  0.5336750000000 1.0
C      1  0.5503550000000  0.4053580000000  0.5027050000000 1.0
C      1  0.6099140000000  0.4415410000000  0.4907310000000 1.0
C      1  0.3766750000000  0.5074290000000  0.4821790000000 1.0
C      1  0.4636790000000  0.4980340000000  0.5559690000000 1.0
C      1  0.4594770000000  0.5035550000000  0.5054130000000 1.0
C      1  0.5835470000000  0.4746490000000  0.5634750000000 1.0
C      1  0.4152000000000  0.4558770000000  0.5378780000000 1.0
C      1  0.5803070000000  0.5205880000000  0.5489110000000 1.0
C      1  0.4396160000000  0.5892120000000  0.5218040000000 1.0
C      1  0.4912090000000  0.5102800000000  0.6276330000000 1.0
C      1  0.4475860000000  0.5651390000000  0.4800100000000 1.0
C      1  0.4341480000000  0.5442100000000  0.4963240000000 1.0
C      1  0.4710720000000  0.4586140000000  0.4896590000000 1.0
C      1  0.4575670000000  0.5687980000000  0.4519630000000 1.0
C      1  0.4829470000000  0.5121530000000  0.4876930000000 1.0
C      1  0.4743500000000  0.3941480000000  0.4752800000000 1.0
C      1  0.5849530000000  0.5508610000000  0.4639190000000 1.0
C      1  0.5613750000000  0.5070740000000  0.3963680000000 1.0
C      1  0.5855100000000  0.5299130000000  0.5203590000000 1.0
C      1  0.4997570000000  0.4379620000000  0.5766390000000 1.0
C      1  0.4582470000000  0.4083160000000  0.4949380000000 1.0
C      1  0.5152870000000  0.4757940000000  0.3839850000000 1.0
C      1  0.4686030000000  0.4255900000000  0.4301650000000 1.0
C      1  0.5097730000000  0.4562070000000  0.4053860000000 1.0
C      1  0.4432490000000  0.4632150000000  0.4837950000000 1.0
C      1  0.5593070000000  0.4379760000000  0.5371740000000 1.0
C      1  0.5057570000000  0.5805250000000  0.5963850000000 1.0
C      1  0.4684910000000  0.4840620000000  0.5290230000000 1.0
C      1  0.5511590000000  0.4474410000000  0.4284950000000 1.0
C      1  0.4785990000000  0.5468560000000  0.5165500000000 1.0
END
