TITL C-612607-4507-446 -0.00126017182332803 125000 -837.172337807569 0 0 137 (C1) n - 1
REM
REM in /home/nfs/bkarasulu/CARBON/AIRSS/Generating-Clusters/TERSOFF/Only-C1/FIRE-HFTN
REM
REM
REM
REM
REM
REM ./C.cell (11c1c37f851c82e70ff6c80c92926a4b)
REM AIRSS Version 0.9.1 bugfix July 2018 build 013d7b7c2542+ Fri, 06 Jul 2018 19:26:36 +0100
REM compiler GCC version 9.2.1 20190827 (Red Hat 9.2.1-1)
REM options -cpp -mtune=generic -march=x86-64 -g -O0 -fpre-include=/usr/include/finclude/math-vector-fortran.h
REM seed 195323702 1274834896 123499026 1961328703 -2079770790 954373211 -1132320522 492697676 160368026 -417724680 1491972963 -1973948648 -1519831752 1984852890 -946860035 1130341416 -1111457379 374501421 172644720 -2029473998 -1112768857 669128168 1544598614 -248300661 -1404446973 499569041 -2141518801 -1263056411 502949456 -395378263 1682403114 -1329871148 1412174542
REM
CELL 1.54180   50.00000   50.00000   50.00000   90.00000   90.00000   90.00000
LATT -1
SFAC C  
C      1  0.4551760000000  0.4620230000000  0.5635290000000 1.0
C      1  0.5062160000000  0.6026300000000  0.5061240000000 1.0
C      1  0.5600310000000  0.4230230000000  0.4467720000000 1.0
C      1  0.5107860000000  0.5475550000000  0.4487740000000 1.0
C      1  0.5489270000000  0.4979360000000  0.4990650000000 1.0
C      1  0.4052760000000  0.5036580000000  0.4701010000000 1.0
C      1  0.4173490000000  0.5704830000000  0.5350240000000 1.0
C      1  0.5048290000000  0.5920930000000  0.5555200000000 1.0
C      1  0.4306190000000  0.5470030000000  0.4127510000000 1.0
C      1  0.4340490000000  0.4960360000000  0.4158360000000 1.0
C      1  0.5415900000000  0.4827360000000  0.4100140000000 1.0
C      1  0.3870020000000  0.4656800000000  0.4861540000000 1.0
C      1  0.4928340000000  0.4824830000000  0.4537210000000 1.0
C      1  0.4806880000000  0.4688150000000  0.5811990000000 1.0
C      1  0.4680770000000  0.3828650000000  0.5485280000000 1.0
C      1  0.5424910000000  0.5289310000000  0.6316590000000 1.0
C      1  0.5219780000000  0.5930220000000  0.4574830000000 1.0
C      1  0.5431340000000  0.5810590000000  0.5260440000000 1.0
C      1  0.5496310000000  0.5590730000000  0.5902700000000 1.0
C      1  0.6338830000000  0.5373300000000  0.5026800000000 1.0
C      1  0.5049930000000  0.3810000000000  0.5148090000000 1.0
C      1  0.6326620000000  0.5118210000000  0.4934010000000 1.0
C      1  0.5317700000000  0.5669170000000  0.4497870000000 1.0
C      1  0.5776390000000  0.5667400000000  0.4334360000000 1.0
C      1  0.5056510000000  0.4558790000000  0.5676250000000 1.0
C      1  0.5262760000000  0.5973970000000  0.4852640000000 1.0
C      1  0.5475220000000  0.5578820000000  0.5414190000000 1.0
C      1  0.5109430000000  0.4690340000000  0.6468780000000 1.0
C      1  0.5080110000000  0.6055690000000  0.4366350000000 1.0
C      1  0.3844600000000  0.4805230000000  0.5828680000000 1.0
C      1  0.4746920000000  0.4457570000000  0.5135600000000 1.0
C      1  0.3835240000000  0.5379180000000  0.5434130000000 1.0
C      1  0.5887860000000  0.5469920000000  0.5656340000000 1.0
C      1  0.4432700000000  0.4536030000000  0.4221140000000 1.0
C      1  0.4778900000000  0.6009570000000  0.5030890000000 1.0
C      1  0.4910440000000  0.4587290000000  0.6324900000000 1.0
C      1  0.5672870000000  0.5657430000000  0.4814250000000 1.0
C      1  0.5203230000000  0.4975280000000  0.4904910000000 1.0
C      1  0.4982600000000  0.5426980000000  0.4221820000000 1.0
C      1  0.5202750000000  0.4417290000000  0.4736370000000 1.0
C      1  0.4035860000000  0.5075580000000  0.4988770000000 1.0
C      1  0.4856310000000  0.3730060000000  0.5311200000000 1.0
C      1  0.4968660000000  0.4775590000000  0.4245800000000 1.0
C      1  0.4601580000000  0.4063690000000  0.5580590000000 1.0
C      1  0.4199290000000  0.5265730000000  0.5129840000000 1.0
C      1  0.4248550000000  0.4594980000000  0.5666860000000 1.0
C      1  0.4668750000000  0.5453380000000  0.4671070000000 1.0
C      1  0.4136090000000  0.5422960000000  0.4336760000000 1.0
C      1  0.4269250000000  0.4308370000000  0.4950930000000 1.0
C      1  0.4067970000000  0.5448810000000  0.5307830000000 1.0
C      1  0.4552260000000  0.4857650000000  0.5438600000000 1.0
C      1  0.4540630000000  0.5366780000000  0.4036760000000 1.0
C      1  0.5661340000000  0.4094560000000  0.4953600000000 1.0
C      1  0.3751020000000  0.4824820000000  0.5573940000000 1.0
C      1  0.4717830000000  0.4004410000000  0.4595950000000 1.0
C      1  0.4965280000000  0.4581530000000  0.4726550000000 1.0
C      1  0.4983900000000  0.3985600000000  0.4615680000000 1.0
C      1  0.4584680000000  0.5203380000000  0.4795420000000 1.0
C      1  0.5513080000000  0.4057730000000  0.4687570000000 1.0
C      1  0.5351780000000  0.5344160000000  0.5313930000000 1.0
C      1  0.4504120000000  0.5265060000000  0.5093980000000 1.0
C      1  0.3896180000000  0.4836290000000  0.5089490000000 1.0
C      1  0.5199570000000  0.4652870000000  0.4136170000000 1.0
C      1  0.5081260000000  0.4229220000000  0.3921090000000 1.0
C      1  0.4532090000000  0.5678780000000  0.4580040000000 1.0
C      1  0.4525290000000  0.4275860000000  0.4251740000000 1.0
C      1  0.5749300000000  0.5165630000000  0.4154370000000 1.0
C      1  0.4786000000000  0.4575720000000  0.6089110000000 1.0
C      1  0.4890640000000  0.6129790000000  0.3924740000000 1.0
C      1  0.5172550000000  0.4991530000000  0.4620850000000 1.0
C      1  0.5523270000000  0.5137920000000  0.5231680000000 1.0
C      1  0.5439030000000  0.5058500000000  0.4517250000000 1.0
C      1  0.6055310000000  0.5301990000000  0.5778430000000 1.0
C      1  0.4681730000000  0.5537670000000  0.5127300000000 1.0
C      1  0.5244240000000  0.4374950000000  0.4093980000000 1.0
C      1  0.5209500000000  0.4106810000000  0.4758610000000 1.0
C      1  0.5507890000000  0.5034480000000  0.6400880000000 1.0
C      1  0.4645440000000  0.5077920000000  0.5293270000000 1.0
C      1  0.4844120000000  0.4986030000000  0.5835810000000 1.0
C      1  0.4624720000000  0.5812010000000  0.5175930000000 1.0
C      1  0.5406210000000  0.4247270000000  0.5410280000000 1.0
C      1  0.4330380000000  0.4335500000000  0.4676700000000 1.0
C      1  0.5544030000000  0.4691200000000  0.5017010000000 1.0
C      1  0.5321570000000  0.4848700000000  0.6494720000000 1.0
C      1  0.5930610000000  0.4475840000000  0.4751270000000 1.0
C      1  0.4779940000000  0.4919470000000  0.4089410000000 1.0
C      1  0.4385210000000  0.5862340000000  0.5310290000000 1.0
C      1  0.6093280000000  0.5004410000000  0.4818220000000 1.0
C      1  0.5497790000000  0.5825450000000  0.4976120000000 1.0
C      1  0.5460840000000  0.4546530000000  0.4784730000000 1.0
C      1  0.5216420000000  0.4006290000000  0.5044460000000 1.0
C      1  0.4951400000000  0.5473030000000  0.4728540000000 1.0
C      1  0.5677550000000  0.4470770000000  0.4608480000000 1.0
C      1  0.6129100000000  0.5544790000000  0.5006240000000 1.0
C      1  0.4787540000000  0.5227700000000  0.4107790000000 1.0
C      1  0.5458880000000  0.4100990000000  0.5172830000000 1.0
C      1  0.5184970000000  0.5955580000000  0.5314250000000 1.0
C      1  0.4935870000000  0.4094730000000  0.3751710000000 1.0
C      1  0.4171850000000  0.5204420000000  0.4512250000000 1.0
C      1  0.4928550000000  0.5079260000000  0.5258980000000 1.0
C      1  0.4611900000000  0.4328450000000  0.5576930000000 1.0
C      1  0.4982850000000  0.5959250000000  0.4116870000000 1.0
C      1  0.4087580000000  0.4692990000000  0.5877900000000 1.0
C      1  0.5909230000000  0.4243920000000  0.4928610000000 1.0
C      1  0.5885320000000  0.5475190000000  0.4879770000000 1.0
C      1  0.4392540000000  0.5045740000000  0.4419640000000 1.0
C      1  0.4957120000000  0.5484210000000  0.5023540000000 1.0
C      1  0.5536440000000  0.5027360000000  0.4253810000000 1.0
C      1  0.5010700000000  0.4877930000000  0.5083540000000 1.0
C      1  0.4036990000000  0.4743040000000  0.4638460000000 1.0
C      1  0.6065160000000  0.4723900000000  0.4775200000000 1.0
C      1  0.5082730000000  0.5321940000000  0.5224010000000 1.0
C      1  0.4232290000000  0.4566170000000  0.4519610000000 1.0
C      1  0.5984160000000  0.4999840000000  0.6185550000000 1.0
C      1  0.4650590000000  0.6101040000000  0.4796170000000 1.0
C      1  0.5689140000000  0.4611830000000  0.5234520000000 1.0
C      1  0.5427580000000  0.5486180000000  0.6137600000000 1.0
C      1  0.4880820000000  0.4644000000000  0.4993920000000 1.0
C      1  0.5595110000000  0.5645420000000  0.4536880000000 1.0
C      1  0.3899390000000  0.4734860000000  0.5350210000000 1.0
C      1  0.4509890000000  0.4172110000000  0.4518030000000 1.0
C      1  0.5245890000000  0.4403510000000  0.5562700000000 1.0
C      1  0.5874340000000  0.5196150000000  0.4786680000000 1.0
C      1  0.4199780000000  0.4377180000000  0.5201740000000 1.0
C      1  0.4984190000000  0.5677950000000  0.4077050000000 1.0
C      1  0.5624160000000  0.5566700000000  0.5653850000000 1.0
C      1  0.5618470000000  0.5089960000000  0.4741310000000 1.0
C      1  0.4525600000000  0.4767060000000  0.4076330000000 1.0
C      1  0.6089590000000  0.5126060000000  0.5975790000000 1.0
C      1  0.4845290000000  0.5250920000000  0.5858860000000 1.0
C      1  0.4112030000000  0.4547590000000  0.5410880000000 1.0
C      1  0.5460830000000  0.4250730000000  0.4226350000000 1.0
C      1  0.5773380000000  0.4962810000000  0.6344510000000 1.0
C      1  0.4863420000000  0.5514010000000  0.5823120000000 1.0
C      1  0.4530900000000  0.5945340000000  0.4611280000000 1.0
C      1  0.4932390000000  0.5752340000000  0.5726340000000 1.0
C      1  0.4615390000000  0.4994720000000  0.4601750000000 1.0
END
