TITL C-612606-7351-67 3.02747054959727e-06 125000 -164.496300458721 0 0 30 (C1) n - 1
REM
REM in /home/nfs/bkarasulu/CARBON/AIRSS/Generating-Clusters/TERSOFF/Only-C1/FIRE-HFTN
REM
REM
REM
REM
REM
REM ./C.cell (11c1c37f851c82e70ff6c80c92926a4b)
REM AIRSS Version 0.9.1 bugfix July 2018 build 013d7b7c2542+ Fri, 06 Jul 2018 19:26:36 +0100
REM compiler GCC version 9.2.1 20190827 (Red Hat 9.2.1-1)
REM options -cpp -mtune=generic -march=x86-64 -g -O0 -fpre-include=/usr/include/finclude/math-vector-fortran.h
REM seed 2012912804 -2024533955 1714606395 -1021316628 -1856628911 -631992789 1007106375 648823271 -1981918138 718867399 -1333347812 -1193659330 1013655273 -334936518 983867178 1799627905 869940697 -1791963691 -2026807364 -1188661465 -1373046251 -1485627520 -710969712 -17136738 942296959 -43539951 -1975903248 -1248004764 1705801460 -552498109 -1098727858 -232198325 -682322579
REM
CELL 1.54180   50.00000   50.00000   50.00000   90.00000   90.00000   90.00000
LATT -1
SFAC C  
C      1  0.4895830000000  0.5716540000000  0.4834640000000 1.0
C      1  0.4628680000000  0.4723910000000  0.5100670000000 1.0
C      1  0.5635000000000  0.5043350000000  0.5064580000000 1.0
C      1  0.5304090000000  0.5331890000000  0.5352670000000 1.0
C      1  0.4931410000000  0.5113320000000  0.5664720000000 1.0
C      1  0.5155480000000  0.5251390000000  0.5585250000000 1.0
C      1  0.4542200000000  0.4643310000000  0.4645440000000 1.0
C      1  0.5288020000000  0.4744430000000  0.5446830000000 1.0
C      1  0.5091850000000  0.4542940000000  0.5054660000000 1.0
C      1  0.4401330000000  0.4866940000000  0.4720250000000 1.0
C      1  0.4778310000000  0.4505560000000  0.4667020000000 1.0
C      1  0.4821660000000  0.5011890000000  0.4413550000000 1.0
C      1  0.5493220000000  0.4715810000000  0.4680950000000 1.0
C      1  0.4404210000000  0.5091880000000  0.4877550000000 1.0
C      1  0.4544720000000  0.5226540000000  0.5071850000000 1.0
C      1  0.5087480000000  0.5292130000000  0.4700460000000 1.0
C      1  0.4847220000000  0.4911090000000  0.4902830000000 1.0
C      1  0.5277410000000  0.4564540000000  0.4623270000000 1.0
C      1  0.5301420000000  0.5314310000000  0.4528550000000 1.0
C      1  0.5139030000000  0.4774420000000  0.5219920000000 1.0
C      1  0.5178450000000  0.5485950000000  0.5149470000000 1.0
C      1  0.5535290000000  0.5194360000000  0.5263060000000 1.0
C      1  0.5616760000000  0.4881460000000  0.4851870000000 1.0
C      1  0.5051870000000  0.5499680000000  0.4896320000000 1.0
C      1  0.4609300000000  0.4776940000000  0.5376060000000 1.0
C      1  0.5045880000000  0.4500580000000  0.4774260000000 1.0
C      1  0.4908470000000  0.5065890000000  0.4668040000000 1.0
C      1  0.4720950000000  0.5021520000000  0.5492910000000 1.0
C      1  0.4993330000000  0.5012050000000  0.5126320000000 1.0
C      1  0.4771120000000  0.5175400000000  0.5246030000000 1.0
END
