TITL C-612601-4209-561 0.0448328687653025 125000 -359.582497812227 0 0 59 (C1) n - 1
REM
REM in /home/nfs/bkarasulu/CARBON/AIRSS/Generating-Clusters/TERSOFF/Only-C1/FIRE-HFTN
REM
REM
REM
REM
REM
REM ./C.cell (11c1c37f851c82e70ff6c80c92926a4b)
REM AIRSS Version 0.9.1 bugfix July 2018 build 013d7b7c2542+ Fri, 06 Jul 2018 19:26:36 +0100
REM compiler GCC version 9.2.1 20190827 (Red Hat 9.2.1-1)
REM options -cpp -mtune=generic -march=x86-64 -g -O0 -fpre-include=/usr/include/finclude/math-vector-fortran.h
REM seed -1086943515 -1527902193 1970848720 499044024 -2115812787 -1129769167 -821814169 1010910583 381514482 545160680 -1590055651 -1058572360 -54409608 1765105032 1294265746 -1283326411 1067257912 -1279530163 -1833919151 1495177588 -1568573353 -83537320 979538873 -1416878702 -818401462 486020111 314136993 424598705 -567825573 -168682367 1551777261 -1636797911 393682731
REM
CELL 1.54180   50.00000   50.00000   50.00000   90.00000   90.00000   90.00000
LATT -1
SFAC C  
C      1  0.5465370000000  0.4648640000000  0.5001450000000 1.0
C      1  0.4297530000000  0.4667340000000  0.3730030000000 1.0
C      1  0.5142580000000  0.5738920000000  0.5548710000000 1.0
C      1  0.5569180000000  0.5122770000000  0.4303030000000 1.0
C      1  0.5493130000000  0.4629810000000  0.4203960000000 1.0
C      1  0.4328960000000  0.4931980000000  0.5132800000000 1.0
C      1  0.5372770000000  0.4399730000000  0.5395690000000 1.0
C      1  0.4633280000000  0.4721800000000  0.4130770000000 1.0
C      1  0.4573020000000  0.5856270000000  0.4816130000000 1.0
C      1  0.5291820000000  0.4207150000000  0.4938910000000 1.0
C      1  0.5494180000000  0.5086870000000  0.5188140000000 1.0
C      1  0.5846770000000  0.4938980000000  0.4907780000000 1.0
C      1  0.4464050000000  0.4694690000000  0.3928740000000 1.0
C      1  0.4278160000000  0.4080180000000  0.5198370000000 1.0
C      1  0.4812400000000  0.5091260000000  0.5012580000000 1.0
C      1  0.4441740000000  0.5694620000000  0.4990440000000 1.0
C      1  0.4566150000000  0.4955300000000  0.5012310000000 1.0
C      1  0.4847420000000  0.5339040000000  0.5798550000000 1.0
C      1  0.4868520000000  0.4513530000000  0.4502930000000 1.0
C      1  0.5290920000000  0.5676270000000  0.4710070000000 1.0
C      1  0.4203630000000  0.5156690000000  0.5567090000000 1.0
C      1  0.4561140000000  0.4345640000000  0.4915470000000 1.0
C      1  0.5463350000000  0.5157530000000  0.5457350000000 1.0
C      1  0.4187190000000  0.5006100000000  0.5346800000000 1.0
C      1  0.4563320000000  0.5509620000000  0.5166810000000 1.0
C      1  0.4811600000000  0.4743610000000  0.4344750000000 1.0
C      1  0.4542660000000  0.4431100000000  0.5391810000000 1.0
C      1  0.4622890000000  0.5441580000000  0.5661010000000 1.0
C      1  0.4799800000000  0.5370190000000  0.5050480000000 1.0
C      1  0.5656120000000  0.5383610000000  0.4837110000000 1.0
C      1  0.5147890000000  0.4796570000000  0.5643870000000 1.0
C      1  0.5313390000000  0.4574760000000  0.5589880000000 1.0
C      1  0.5060750000000  0.5735930000000  0.4856130000000 1.0
C      1  0.5599490000000  0.4874290000000  0.4209300000000 1.0
C      1  0.4673920000000  0.5596050000000  0.5426920000000 1.0
C      1  0.5310570000000  0.4457760000000  0.4293330000000 1.0
C      1  0.5321590000000  0.4887380000000  0.5072650000000 1.0
C      1  0.5459150000000  0.5459820000000  0.4650310000000 1.0
C      1  0.5195220000000  0.4204550000000  0.4689530000000 1.0
C      1  0.4933620000000  0.4989940000000  0.4399910000000 1.0
C      1  0.5517770000000  0.5423810000000  0.5553320000000 1.0
C      1  0.4682430000000  0.4426670000000  0.4693800000000 1.0
C      1  0.4458860000000  0.4283420000000  0.5168900000000 1.0
C      1  0.5703500000000  0.5164900000000  0.5006150000000 1.0
C      1  0.4872750000000  0.4740620000000  0.5649880000000 1.0
C      1  0.4946200000000  0.5688370000000  0.5355310000000 1.0
C      1  0.5121380000000  0.5298310000000  0.5753100000000 1.0
C      1  0.5284210000000  0.5534510000000  0.5679750000000 1.0
C      1  0.4669950000000  0.4596520000000  0.5555970000000 1.0
C      1  0.5004160000000  0.5580140000000  0.5087690000000 1.0
C      1  0.5055170000000  0.4950290000000  0.5016440000000 1.0
C      1  0.5119080000000  0.4378210000000  0.4481820000000 1.0
C      1  0.4836840000000  0.5880460000000  0.4758490000000 1.0
C      1  0.4369660000000  0.5324940000000  0.5692180000000 1.0
C      1  0.5382050000000  0.5270870000000  0.4451600000000 1.0
C      1  0.5387790000000  0.4401100000000  0.5115610000000 1.0
C      1  0.5115940000000  0.5180730000000  0.4433910000000 1.0
C      1  0.5724020000000  0.4696200000000  0.4893330000000 1.0
C      1  0.5243020000000  0.5062030000000  0.5630850000000 1.0
END
