TITL C-612604-1799-648 -0.248902943089316 125000 -404.729984285394 0 0 67 (C1) n - 1
REM
REM in /home/nfs/bkarasulu/CARBON/AIRSS/Generating-Clusters/TERSOFF/Only-C1/FIRE-HFTN
REM
REM
REM
REM
REM
REM ./C.cell (11c1c37f851c82e70ff6c80c92926a4b)
REM AIRSS Version 0.9.1 bugfix July 2018 build 013d7b7c2542+ Fri, 06 Jul 2018 19:26:36 +0100
REM compiler GCC version 9.2.1 20190827 (Red Hat 9.2.1-1)
REM options -cpp -mtune=generic -march=x86-64 -g -O0 -fpre-include=/usr/include/finclude/math-vector-fortran.h
REM seed -1542515143 1647381516 2045325360 1316171507 -2050568389 -347364383 -1438797825 -370177057 -1139696823 1801728868 -141221245 1159243079 -489277588 1489842812 1006392792 792086617 1838109238 -423551417 485950772 1250263411 -1462294252 1064563496 272868434 858965056 1586981488 118110776 -963676613 307076679 -797680138 -1553235081 -1583581534 -974962877 1445131354
REM
CELL 1.54180   50.00000   50.00000   50.00000   90.00000   90.00000   90.00000
LATT -1
SFAC C  
C      1  0.5128170000000  0.5167940000000  0.4906030000000 1.0
C      1  0.5150300000000  0.4381180000000  0.5206980000000 1.0
C      1  0.4888370000000  0.4699180000000  0.5538650000000 1.0
C      1  0.4997400000000  0.5336090000000  0.5487050000000 1.0
C      1  0.4325240000000  0.5099530000000  0.5720130000000 1.0
C      1  0.4339820000000  0.5200630000000  0.4387050000000 1.0
C      1  0.5771000000000  0.4974420000000  0.4842430000000 1.0
C      1  0.4550600000000  0.4816480000000  0.3858000000000 1.0
C      1  0.5698280000000  0.5277490000000  0.5602040000000 1.0
C      1  0.5254210000000  0.5269220000000  0.5389500000000 1.0
C      1  0.4811000000000  0.5222090000000  0.4371280000000 1.0
C      1  0.4759900000000  0.5887120000000  0.4846990000000 1.0
C      1  0.4511570000000  0.5769230000000  0.4850240000000 1.0
C      1  0.5029350000000  0.5061530000000  0.4429040000000 1.0
C      1  0.4579590000000  0.5094890000000  0.4269620000000 1.0
C      1  0.5483990000000  0.5684130000000  0.4964220000000 1.0
C      1  0.4807570000000  0.4339270000000  0.5303050000000 1.0
C      1  0.4899570000000  0.4903210000000  0.6030180000000 1.0
C      1  0.5448150000000  0.5158850000000  0.5569640000000 1.0
C      1  0.4215080000000  0.4857350000000  0.5765060000000 1.0
C      1  0.4718270000000  0.5117870000000  0.5992860000000 1.0
C      1  0.5032580000000  0.4471340000000  0.5944600000000 1.0
C      1  0.5531660000000  0.5408540000000  0.5010110000000 1.0
C      1  0.5026180000000  0.5822470000000  0.4761740000000 1.0
C      1  0.4585190000000  0.4516830000000  0.5812970000000 1.0
C      1  0.4739890000000  0.4919670000000  0.5097780000000 1.0
C      1  0.4826340000000  0.5437790000000  0.4551660000000 1.0
C      1  0.4587920000000  0.4661020000000  0.4693960000000 1.0
C      1  0.4813740000000  0.4648940000000  0.4247710000000 1.0
C      1  0.4711590000000  0.4467990000000  0.5546350000000 1.0
C      1  0.5375240000000  0.4473510000000  0.5377750000000 1.0
C      1  0.5307960000000  0.4538740000000  0.4443550000000 1.0
C      1  0.5439840000000  0.5080820000000  0.4236150000000 1.0
C      1  0.5573260000000  0.4676910000000  0.4464130000000 1.0
C      1  0.5104950000000  0.4589770000000  0.5697510000000 1.0
C      1  0.4282430000000  0.5372590000000  0.4594250000000 1.0
C      1  0.5357590000000  0.4662100000000  0.5598030000000 1.0
C      1  0.5732990000000  0.5229340000000  0.4923380000000 1.0
C      1  0.5037260000000  0.5632610000000  0.4545060000000 1.0
C      1  0.4772890000000  0.5170560000000  0.5522280000000 1.0
C      1  0.4594880000000  0.5179540000000  0.5744730000000 1.0
C      1  0.4644490000000  0.4853290000000  0.4118040000000 1.0
C      1  0.4795480000000  0.4920040000000  0.5383320000000 1.0
C      1  0.5111380000000  0.4661430000000  0.4254510000000 1.0
C      1  0.5179940000000  0.4958650000000  0.5944940000000 1.0
C      1  0.5376510000000  0.4928760000000  0.5720660000000 1.0
C      1  0.5631050000000  0.4871600000000  0.4259760000000 1.0
C      1  0.5211390000000  0.5157670000000  0.4632200000000 1.0
C      1  0.4637590000000  0.4680630000000  0.4967040000000 1.0
C      1  0.4682670000000  0.4543990000000  0.4473300000000 1.0
C      1  0.4449230000000  0.5493710000000  0.4794280000000 1.0
C      1  0.5289500000000  0.5558080000000  0.4422660000000 1.0
C      1  0.4320600000000  0.4615380000000  0.5819220000000 1.0
C      1  0.5299300000000  0.5273630000000  0.5109440000000 1.0
C      1  0.4650440000000  0.4424490000000  0.5088760000000 1.0
C      1  0.4700780000000  0.5353800000000  0.4805780000000 1.0
C      1  0.5185380000000  0.4493830000000  0.4944060000000 1.0
C      1  0.5220360000000  0.4398130000000  0.4678920000000 1.0
C      1  0.4463640000000  0.4782930000000  0.3614640000000 1.0
C      1  0.5230320000000  0.4765330000000  0.4963230000000 1.0
C      1  0.5700710000000  0.4749890000000  0.4708820000000 1.0
C      1  0.5179230000000  0.4940460000000  0.4216900000000 1.0
C      1  0.4839650000000  0.5149880000000  0.4948890000000 1.0
C      1  0.4790710000000  0.4620750000000  0.6011860000000 1.0
C      1  0.5270090000000  0.5840800000000  0.4905780000000 1.0
C      1  0.5405140000000  0.5294470000000  0.4446490000000 1.0
C      1  0.5932610000000  0.5389620000000  0.5622770000000 1.0
END
