TITL C-612600-6631-1096 0.0423994291619339 125000 -518.043394611019 0 0 86 (C1) n - 1
REM
REM in /home/nfs/bkarasulu/CARBON/AIRSS/Generating-Clusters/TERSOFF/Only-C1/FIRE-HFTN
REM
REM
REM
REM
REM
REM ./C.cell (11c1c37f851c82e70ff6c80c92926a4b)
REM AIRSS Version 0.9.1 bugfix July 2018 build 013d7b7c2542+ Fri, 06 Jul 2018 19:26:36 +0100
REM compiler GCC version 9.2.1 20190827 (Red Hat 9.2.1-1)
REM options -cpp -mtune=generic -march=x86-64 -g -O0 -fpre-include=/usr/include/finclude/math-vector-fortran.h
REM seed -1245814547 -1574163132 -533579969 -1442946649 554767384 -269415038 -342272763 560992713 -1292330892 1690243554 -1048400504 -1694159437 -7938105 -340502132 1693102041 -1207183436 1797985589 1955357872 -1903069404 387543064 -449849932 657532681 2103128320 420782651 -178686634 21001766 -2102536219 -1186602270 -2133901447 -251933739 1638495128 484640758 -587891781
REM
CELL 1.54180   50.00000   50.00000   50.00000   90.00000   90.00000   90.00000
LATT -1
SFAC C  
C      1  0.4950370000000  0.4584410000000  0.5003120000000 1.0
C      1  0.4370490000000  0.4164580000000  0.5300570000000 1.0
C      1  0.5707980000000  0.5239890000000  0.5047940000000 1.0
C      1  0.5750370000000  0.5932890000000  0.4213590000000 1.0
C      1  0.4236800000000  0.4509870000000  0.4872610000000 1.0
C      1  0.4695080000000  0.5883690000000  0.3765470000000 1.0
C      1  0.5673630000000  0.5061030000000  0.4390910000000 1.0
C      1  0.4998100000000  0.5029590000000  0.4140740000000 1.0
C      1  0.5129070000000  0.4660290000000  0.5574580000000 1.0
C      1  0.4709060000000  0.4397640000000  0.5011860000000 1.0
C      1  0.4121110000000  0.4252380000000  0.4882490000000 1.0
C      1  0.4306720000000  0.5012140000000  0.4592810000000 1.0
C      1  0.5149690000000  0.5360160000000  0.4753730000000 1.0
C      1  0.5075860000000  0.5059930000000  0.5135570000000 1.0
C      1  0.4928840000000  0.5387740000000  0.5751950000000 1.0
C      1  0.4859400000000  0.5940280000000  0.4594480000000 1.0
C      1  0.4278150000000  0.5242440000000  0.5013760000000 1.0
C      1  0.4475920000000  0.6112020000000  0.5183480000000 1.0
C      1  0.4524760000000  0.5631590000000  0.5200500000000 1.0
C      1  0.5639330000000  0.5388020000000  0.4836990000000 1.0
C      1  0.4337100000000  0.4242770000000  0.4207300000000 1.0
C      1  0.5135140000000  0.5768030000000  0.5181160000000 1.0
C      1  0.5399160000000  0.5501550000000  0.4751650000000 1.0
C      1  0.4870940000000  0.3934720000000  0.4892600000000 1.0
C      1  0.5288190000000  0.4728540000000  0.6488200000000 1.0
C      1  0.4074660000000  0.4129290000000  0.4635760000000 1.0
C      1  0.4741150000000  0.5002950000000  0.5535030000000 1.0
C      1  0.5534290000000  0.5790150000000  0.4298050000000 1.0
C      1  0.5204150000000  0.4507060000000  0.4915840000000 1.0
C      1  0.4879660000000  0.4865470000000  0.5037340000000 1.0
C      1  0.4860720000000  0.5816490000000  0.3955090000000 1.0
C      1  0.4678710000000  0.4506130000000  0.5494570000000 1.0
C      1  0.5065560000000  0.5893420000000  0.4403590000000 1.0
C      1  0.5740680000000  0.4760730000000  0.4799470000000 1.0
C      1  0.5405010000000  0.4528300000000  0.5118700000000 1.0
C      1  0.5560910000000  0.5108500000000  0.5226730000000 1.0
C      1  0.5980950000000  0.4506540000000  0.6678040000000 1.0
C      1  0.4479820000000  0.5508990000000  0.4478850000000 1.0
C      1  0.5264820000000  0.4505880000000  0.4641450000000 1.0
C      1  0.4592960000000  0.4868670000000  0.4954480000000 1.0
C      1  0.5418730000000  0.4651640000000  0.4475470000000 1.0
C      1  0.5186090000000  0.5495020000000  0.4155770000000 1.0
C      1  0.5271630000000  0.4838430000000  0.5743590000000 1.0
C      1  0.5341790000000  0.5889230000000  0.4491360000000 1.0
C      1  0.4054000000000  0.4912520000000  0.4142880000000 1.0
C      1  0.5378770000000  0.4772830000000  0.5992690000000 1.0
C      1  0.5630480000000  0.4827460000000  0.4544150000000 1.0
C      1  0.5295800000000  0.4526480000000  0.5382830000000 1.0
C      1  0.5773540000000  0.4588310000000  0.6512410000000 1.0
C      1  0.5621570000000  0.5292910000000  0.4263820000000 1.0
C      1  0.6175570000000  0.4429810000000  0.6833470000000 1.0
C      1  0.5301300000000  0.5070760000000  0.5328850000000 1.0
C      1  0.4870020000000  0.4803920000000  0.4082890000000 1.0
C      1  0.4971320000000  0.5317070000000  0.4536490000000 1.0
C      1  0.5227130000000  0.4781860000000  0.6231360000000 1.0
C      1  0.4167120000000  0.4122920000000  0.5128510000000 1.0
C      1  0.5647540000000  0.4692140000000  0.6026970000000 1.0
C      1  0.5377100000000  0.5787030000000  0.4752370000000 1.0
C      1  0.5652790000000  0.4628410000000  0.5020960000000 1.0
C      1  0.4739890000000  0.5491510000000  0.5326410000000 1.0
C      1  0.4526600000000  0.4402240000000  0.4110200000000 1.0
C      1  0.4702330000000  0.5394480000000  0.4554100000000 1.0
C      1  0.5062410000000  0.5266890000000  0.4271400000000 1.0
C      1  0.4843430000000  0.4053620000000  0.5348900000000 1.0
C      1  0.4755730000000  0.5296430000000  0.5543810000000 1.0
C      1  0.5514590000000  0.4647650000000  0.6609650000000 1.0
C      1  0.5189350000000  0.5314860000000  0.5754530000000 1.0
C      1  0.4300860000000  0.5476500000000  0.5138060000000 1.0
C      1  0.5052210000000  0.5315600000000  0.5013840000000 1.0
C      1  0.5291460000000  0.5891960000000  0.4999060000000 1.0
C      1  0.4708680000000  0.4592760000000  0.4074900000000 1.0
C      1  0.5469080000000  0.5524990000000  0.4204450000000 1.0
C      1  0.4404860000000  0.5053760000000  0.4852830000000 1.0
C      1  0.4569800000000  0.5882720000000  0.5064440000000 1.0
C      1  0.5028630000000  0.5739280000000  0.4162270000000 1.0
C      1  0.4928350000000  0.3883830000000  0.5153510000000 1.0
C      1  0.4750430000000  0.4168870000000  0.4821890000000 1.0
C      1  0.4182840000000  0.4957420000000  0.4365000000000 1.0
C      1  0.4649230000000  0.4281620000000  0.5300610000000 1.0
C      1  0.4493360000000  0.4596880000000  0.4939410000000 1.0
C      1  0.4707000000000  0.5906610000000  0.4814920000000 1.0
C      1  0.4984690000000  0.5530200000000  0.5185710000000 1.0
C      1  0.5804010000000  0.4619010000000  0.6233020000000 1.0
C      1  0.4844920000000  0.4727920000000  0.5546310000000 1.0
C      1  0.5288120000000  0.5090630000000  0.5616810000000 1.0
C      1  0.4169540000000  0.4138270000000  0.4386070000000 1.0
END
