TITL C-612600-6631-936 0.000475774695492922 125000 -329.255968862232 0 0 54 (C1) n - 1
REM
REM in /home/nfs/bkarasulu/CARBON/AIRSS/Generating-Clusters/TERSOFF/Only-C1/FIRE-HFTN
REM
REM
REM
REM
REM
REM ./C.cell (11c1c37f851c82e70ff6c80c92926a4b)
REM AIRSS Version 0.9.1 bugfix July 2018 build 013d7b7c2542+ Fri, 06 Jul 2018 19:26:36 +0100
REM compiler GCC version 9.2.1 20190827 (Red Hat 9.2.1-1)
REM options -cpp -mtune=generic -march=x86-64 -g -O0 -fpre-include=/usr/include/finclude/math-vector-fortran.h
REM seed -491880154 1170805043 1588617438 -1186406704 -46939753 -668474061 946566721 -1246071090 -166144786 -9023138 -185674342 -335389763 189533249 -1306706248 724434703 1422986424 568079322 548376005 -810284574 347372045 -1101788436 540744946 -89011375 -141605878 -316559463 62264818 1655679766 -798296761 1977948360 1134171900 -630287968 1231088978 -1621979048
REM
CELL 1.54180   50.00000   50.00000   50.00000   90.00000   90.00000   90.00000
LATT -1
SFAC C  
C      1  0.4760810000000  0.4239510000000  0.5057010000000 1.0
C      1  0.6277400000000  0.5445700000000  0.4423340000000 1.0
C      1  0.5554840000000  0.4915220000000  0.5201170000000 1.0
C      1  0.5198480000000  0.5844180000000  0.4843130000000 1.0
C      1  0.4631070000000  0.4477350000000  0.5676380000000 1.0
C      1  0.4705630000000  0.5109300000000  0.4467600000000 1.0
C      1  0.4653690000000  0.5184350000000  0.5825210000000 1.0
C      1  0.4804940000000  0.5272520000000  0.4965120000000 1.0
C      1  0.5210100000000  0.5763330000000  0.4589420000000 1.0
C      1  0.5025710000000  0.4756470000000  0.5739530000000 1.0
C      1  0.4893000000000  0.5116770000000  0.5196950000000 1.0
C      1  0.5799340000000  0.5240140000000  0.4933730000000 1.0
C      1  0.5586810000000  0.4710240000000  0.4992720000000 1.0
C      1  0.4926460000000  0.4842940000000  0.4809110000000 1.0
C      1  0.4652420000000  0.5503740000000  0.4989600000000 1.0
C      1  0.4990910000000  0.5146740000000  0.5459020000000 1.0
C      1  0.5828780000000  0.5256530000000  0.4654610000000 1.0
C      1  0.5191160000000  0.4448740000000  0.4850310000000 1.0
C      1  0.4882510000000  0.5044570000000  0.4257340000000 1.0
C      1  0.4411930000000  0.5605930000000  0.5042110000000 1.0
C      1  0.5111230000000  0.4901390000000  0.4258550000000 1.0
C      1  0.4985690000000  0.4267480000000  0.4915570000000 1.0
C      1  0.4340380000000  0.4479270000000  0.5093970000000 1.0
C      1  0.4154320000000  0.5545400000000  0.5076810000000 1.0
C      1  0.4606100000000  0.4924710000000  0.5885190000000 1.0
C      1  0.5608100000000  0.5166560000000  0.4494390000000 1.0
C      1  0.4902380000000  0.4847430000000  0.5093210000000 1.0
C      1  0.5264710000000  0.5792960000000  0.5096230000000 1.0
C      1  0.4448110000000  0.4042100000000  0.5588610000000 1.0
C      1  0.3966240000000  0.5089590000000  0.4970870000000 1.0
C      1  0.5300990000000  0.5582150000000  0.4416450000000 1.0
C      1  0.4192460000000  0.4657140000000  0.4962950000000 1.0
C      1  0.5330680000000  0.4533370000000  0.5322030000000 1.0
C      1  0.5523430000000  0.5398700000000  0.5292130000000 1.0
C      1  0.3982430000000  0.5342070000000  0.5056230000000 1.0
C      1  0.5367920000000  0.4812870000000  0.5403390000000 1.0
C      1  0.5528490000000  0.4894690000000  0.4528590000000 1.0
C      1  0.5386240000000  0.5625590000000  0.5264330000000 1.0
C      1  0.4223840000000  0.4963790000000  0.4586420000000 1.0
C      1  0.5668720000000  0.4752910000000  0.4729220000000 1.0
C      1  0.4541640000000  0.4282110000000  0.5495330000000 1.0
C      1  0.5266520000000  0.4796450000000  0.4469790000000 1.0
C      1  0.4752620000000  0.4701000000000  0.5791420000000 1.0
C      1  0.5157660000000  0.4927680000000  0.5554270000000 1.0
C      1  0.6061680000000  0.5353740000000  0.4537020000000 1.0
C      1  0.4546440000000  0.4331300000000  0.5214140000000 1.0
C      1  0.4428900000000  0.5069600000000  0.4452440000000 1.0
C      1  0.5119850000000  0.4676490000000  0.4687410000000 1.0
C      1  0.5396190000000  0.4494340000000  0.5043280000000 1.0
C      1  0.5639500000000  0.5181440000000  0.5158350000000 1.0
C      1  0.4111620000000  0.4892250000000  0.4833980000000 1.0
C      1  0.5445550000000  0.5361790000000  0.4377040000000 1.0
C      1  0.4833550000000  0.5284370000000  0.5649760000000 1.0
C      1  0.4819840000000  0.5102990000000  0.4727210000000 1.0
END
