TITL C-612603-7354-1136 0.0104712739939836 125000 -118.293545705869 0 0 21 (C1) n - 1
REM
REM in /home/nfs/bkarasulu/CARBON/AIRSS/Generating-Clusters/TERSOFF/Only-C1/FIRE-HFTN
REM
REM
REM
REM
REM
REM ./C.cell (11c1c37f851c82e70ff6c80c92926a4b)
REM AIRSS Version 0.9.1 bugfix July 2018 build 013d7b7c2542+ Fri, 06 Jul 2018 19:26:36 +0100
REM compiler GCC version 9.2.1 20190827 (Red Hat 9.2.1-1)
REM options -cpp -mtune=generic -march=x86-64 -g -O0 -fpre-include=/usr/include/finclude/math-vector-fortran.h
REM seed 1515893346 -63398466 -904984206 -888288404 1663479236 830745875 -1520241567 -503906413 918145888 -1331582629 -473541327 1068472018 -473177599 -1696352510 1239763964 1797710430 209476512 -1546775340 418063967 2121958597 -1440858162 -644786839 507541436 1958349756 -1307077773 694955298 219240262 1371565258 -970149232 2046283117 -2079852880 1543495498 727135156
REM
CELL 1.54180   50.00000   50.00000   50.00000   90.00000   90.00000   90.00000
LATT -1
SFAC C  
C      1  0.5914350000000  0.4833180000000  0.5298700000000 1.0
C      1  0.5095160000000  0.5324540000000  0.5053750000000 1.0
C      1  0.4938130000000  0.5366250000000  0.4825630000000 1.0
C      1  0.4793250000000  0.4805430000000  0.5348000000000 1.0
C      1  0.4511490000000  0.5629080000000  0.3983940000000 1.0
C      1  0.4568040000000  0.5063700000000  0.4782040000000 1.0
C      1  0.5664250000000  0.4824100000000  0.5187820000000 1.0
C      1  0.5360970000000  0.5239420000000  0.5035610000000 1.0
C      1  0.4556010000000  0.4740190000000  0.5204840000000 1.0
C      1  0.5011660000000  0.4630470000000  0.5354960000000 1.0
C      1  0.4577750000000  0.5515400000000  0.4208990000000 1.0
C      1  0.5625940000000  0.4357870000000  0.5061990000000 1.0
C      1  0.4379050000000  0.4554850000000  0.5298910000000 1.0
C      1  0.4961390000000  0.5282690000000  0.5298050000000 1.0
C      1  0.4715960000000  0.5278430000000  0.4678120000000 1.0
C      1  0.4839990000000  0.5074710000000  0.5414940000000 1.0
C      1  0.5547550000000  0.5056170000000  0.5082720000000 1.0
C      1  0.5263120000000  0.4567210000000  0.5297220000000 1.0
C      1  0.4645090000000  0.5399860000000  0.4437710000000 1.0
C      1  0.5518500000000  0.4579010000000  0.5182420000000 1.0
C      1  0.4512360000000  0.4877460000000  0.4963630000000 1.0
END
