TITL C-612600-6631-206 0.000214213556407428 125000 -835.045042537764 0 0 139 (C1) n - 1
REM
REM in /home/nfs/bkarasulu/CARBON/AIRSS/Generating-Clusters/TERSOFF/Only-C1/FIRE-HFTN
REM
REM
REM
REM
REM
REM ./C.cell (11c1c37f851c82e70ff6c80c92926a4b)
REM AIRSS Version 0.9.1 bugfix July 2018 build 013d7b7c2542+ Fri, 06 Jul 2018 19:26:36 +0100
REM compiler GCC version 9.2.1 20190827 (Red Hat 9.2.1-1)
REM options -cpp -mtune=generic -march=x86-64 -g -O0 -fpre-include=/usr/include/finclude/math-vector-fortran.h
REM seed 324566606 -1521535445 899116363 1427977111 -1522897348 1425168778 1614655239 -2078119552 -1916937570 -1903807592 974657460 75046418 1197442266 1377295062 224214470 -1134581429 -1817003504 1005113350 -627149936 -1948585513 464567584 1715393189 72549820 1502633891 1624547073 1852298316 244927946 -1813032795 123987553 -992805773 1487883752 1060622141 -2070151536
REM
CELL 1.54180   50.00000   50.00000   50.00000   90.00000   90.00000   90.00000
LATT -1
SFAC C  
C      1  0.5540560000000  0.4130460000000  0.5723190000000 1.0
C      1  0.5353630000000  0.4678520000000  0.6101880000000 1.0
C      1  0.4414310000000  0.5784520000000  0.4976150000000 1.0
C      1  0.5571550000000  0.4816470000000  0.5105310000000 1.0
C      1  0.5152770000000  0.5956100000000  0.4823750000000 1.0
C      1  0.3923330000000  0.4652970000000  0.3973010000000 1.0
C      1  0.4338100000000  0.4366010000000  0.5533550000000 1.0
C      1  0.5750760000000  0.4738790000000  0.5672350000000 1.0
C      1  0.5008830000000  0.5441240000000  0.5018620000000 1.0
C      1  0.5166510000000  0.4486310000000  0.6098170000000 1.0
C      1  0.5926740000000  0.4984170000000  0.4208830000000 1.0
C      1  0.5693960000000  0.5566330000000  0.4440690000000 1.0
C      1  0.4343480000000  0.5289520000000  0.4831160000000 1.0
C      1  0.4885650000000  0.4842220000000  0.5631510000000 1.0
C      1  0.4792660000000  0.4639350000000  0.4515520000000 1.0
C      1  0.4830210000000  0.4649780000000  0.5418350000000 1.0
C      1  0.5628840000000  0.5900470000000  0.4960100000000 1.0
C      1  0.5233540000000  0.5253010000000  0.4333860000000 1.0
C      1  0.5977630000000  0.5059010000000  0.4921710000000 1.0
C      1  0.4698440000000  0.4798150000000  0.5207370000000 1.0
C      1  0.5339170000000  0.5724910000000  0.4117240000000 1.0
C      1  0.4794580000000  0.4005140000000  0.4993410000000 1.0
C      1  0.4618750000000  0.5386090000000  0.5591610000000 1.0
C      1  0.4555600000000  0.4411090000000  0.4121500000000 1.0
C      1  0.5439860000000  0.4931720000000  0.6011770000000 1.0
C      1  0.4004610000000  0.4515590000000  0.4956740000000 1.0
C      1  0.3865960000000  0.4402800000000  0.5660420000000 1.0
C      1  0.5786750000000  0.5279110000000  0.4965320000000 1.0
C      1  0.5154910000000  0.4600110000000  0.4954540000000 1.0
C      1  0.4671580000000  0.4940100000000  0.3766200000000 1.0
C      1  0.5258950000000  0.5134270000000  0.5432780000000 1.0
C      1  0.4239890000000  0.5415050000000  0.4616090000000 1.0
C      1  0.5869810000000  0.5762700000000  0.5004210000000 1.0
C      1  0.5454900000000  0.5622780000000  0.4612200000000 1.0
C      1  0.4883450000000  0.5951870000000  0.4843190000000 1.0
C      1  0.5008330000000  0.5103420000000  0.6160360000000 1.0
C      1  0.4058110000000  0.5438680000000  0.5139240000000 1.0
C      1  0.4506570000000  0.4389420000000  0.5762510000000 1.0
C      1  0.5086960000000  0.4248350000000  0.5224270000000 1.0
C      1  0.6107940000000  0.4400350000000  0.5139550000000 1.0
C      1  0.5668880000000  0.5078230000000  0.4272380000000 1.0
C      1  0.3811700000000  0.4911430000000  0.4041190000000 1.0
C      1  0.5971000000000  0.4625100000000  0.5237130000000 1.0
C      1  0.5013620000000  0.4489560000000  0.4706630000000 1.0
C      1  0.4544760000000  0.5052070000000  0.3998520000000 1.0
C      1  0.5685590000000  0.5229850000000  0.5717380000000 1.0
C      1  0.5581620000000  0.4091600000000  0.4800130000000 1.0
C      1  0.3867340000000  0.4743810000000  0.4924000000000 1.0
C      1  0.5198680000000  0.4911190000000  0.4649050000000 1.0
C      1  0.6065070000000  0.5120740000000  0.4641620000000 1.0
C      1  0.4621950000000  0.4674530000000  0.3718940000000 1.0
C      1  0.4216870000000  0.5683350000000  0.5165720000000 1.0
C      1  0.5559030000000  0.5543520000000  0.4173250000000 1.0
C      1  0.5010860000000  0.5425750000000  0.4733610000000 1.0
C      1  0.4645100000000  0.5131290000000  0.4512240000000 1.0
C      1  0.5473190000000  0.5428040000000  0.5697000000000 1.0
C      1  0.5431590000000  0.4511480000000  0.4501340000000 1.0
C      1  0.4807600000000  0.5266380000000  0.5432290000000 1.0
C      1  0.4094670000000  0.4518630000000  0.5566290000000 1.0
C      1  0.6141780000000  0.5646730000000  0.4618670000000 1.0
C      1  0.4581610000000  0.4089040000000  0.5146900000000 1.0
C      1  0.4623890000000  0.4865830000000  0.4657100000000 1.0
C      1  0.5611140000000  0.5012190000000  0.4550320000000 1.0
C      1  0.4750170000000  0.4804450000000  0.5882670000000 1.0
C      1  0.5844930000000  0.4209900000000  0.4784020000000 1.0
C      1  0.6075070000000  0.4909180000000  0.4443770000000 1.0
C      1  0.4276750000000  0.6023190000000  0.5559820000000 1.0
C      1  0.5411390000000  0.5843000000000  0.4790730000000 1.0
C      1  0.5452270000000  0.4782340000000  0.4585400000000 1.0
C      1  0.4691910000000  0.5041330000000  0.4236680000000 1.0
C      1  0.6090420000000  0.5806090000000  0.4831620000000 1.0
C      1  0.5227380000000  0.4331050000000  0.4594750000000 1.0
C      1  0.4615370000000  0.4421540000000  0.4396220000000 1.0
C      1  0.4638390000000  0.5661130000000  0.4518080000000 1.0
C      1  0.5549340000000  0.4416410000000  0.5336070000000 1.0
C      1  0.5595600000000  0.5209470000000  0.4764820000000 1.0
C      1  0.5867780000000  0.4828620000000  0.5061060000000 1.0
C      1  0.4394580000000  0.5433640000000  0.5748630000000 1.0
C      1  0.4378040000000  0.4258690000000  0.5260480000000 1.0
C      1  0.4413730000000  0.5684670000000  0.6148310000000 1.0
C      1  0.4970360000000  0.4394070000000  0.5433540000000 1.0
C      1  0.4443510000000  0.4544980000000  0.3902080000000 1.0
C      1  0.6058950000000  0.4633380000000  0.4516830000000 1.0
C      1  0.5530270000000  0.4155080000000  0.5449350000000 1.0
C      1  0.5078730000000  0.5782890000000  0.4179440000000 1.0
C      1  0.5477570000000  0.5264060000000  0.4175220000000 1.0
C      1  0.4108090000000  0.4790560000000  0.5498040000000 1.0
C      1  0.4510340000000  0.5214750000000  0.5044880000000 1.0
C      1  0.3842800000000  0.5002470000000  0.4998330000000 1.0
C      1  0.4009950000000  0.5103180000000  0.4062900000000 1.0
C      1  0.5962020000000  0.5446380000000  0.4527350000000 1.0
C      1  0.3790270000000  0.4420040000000  0.3936020000000 1.0
C      1  0.5775740000000  0.4572380000000  0.5445470000000 1.0
C      1  0.4838290000000  0.5769460000000  0.4307470000000 1.0
C      1  0.4429220000000  0.5428290000000  0.6030420000000 1.0
C      1  0.4753490000000  0.5015370000000  0.6076400000000 1.0
C      1  0.4008360000000  0.5155980000000  0.5170800000000 1.0
C      1  0.4230790000000  0.5718110000000  0.4219130000000 1.0
C      1  0.5075550000000  0.4083890000000  0.4989150000000 1.0
C      1  0.4701620000000  0.4523720000000  0.5925320000000 1.0
C      1  0.5097160000000  0.4879550000000  0.4909220000000 1.0
C      1  0.4355950000000  0.5602180000000  0.4437740000000 1.0
C      1  0.4184280000000  0.4353620000000  0.5071630000000 1.0
C      1  0.5415830000000  0.4564160000000  0.5107860000000 1.0
C      1  0.5863300000000  0.5501770000000  0.5122790000000 1.0
C      1  0.4758810000000  0.5385600000000  0.4596280000000 1.0
C      1  0.5000280000000  0.5081160000000  0.5535090000000 1.0
C      1  0.4798870000000  0.5261080000000  0.5131000000000 1.0
C      1  0.4121150000000  0.5821590000000  0.4006580000000 1.0
C      1  0.5232140000000  0.5443910000000  0.4559560000000 1.0
C      1  0.4501200000000  0.4236780000000  0.4563260000000 1.0
C      1  0.5934040000000  0.4407020000000  0.4596300000000 1.0
C      1  0.4182550000000  0.5567280000000  0.5625320000000 1.0
C      1  0.4208890000000  0.4699510000000  0.3954160000000 1.0
C      1  0.4954370000000  0.4385090000000  0.5943340000000 1.0
C      1  0.4538230000000  0.5189450000000  0.6130670000000 1.0
C      1  0.4908250000000  0.4841470000000  0.4287110000000 1.0
C      1  0.5266900000000  0.5158830000000  0.6066870000000 1.0
C      1  0.5016780000000  0.4280130000000  0.5689800000000 1.0
C      1  0.5533960000000  0.3926340000000  0.5299380000000 1.0
C      1  0.4193320000000  0.4980930000000  0.5313190000000 1.0
C      1  0.6002700000000  0.5467150000000  0.5362590000000 1.0
C      1  0.5294150000000  0.4120460000000  0.4783490000000 1.0
C      1  0.5323000000000  0.5419330000000  0.5448380000000 1.0
C      1  0.5648420000000  0.4961520000000  0.5813490000000 1.0
C      1  0.4895280000000  0.4972950000000  0.5068640000000 1.0
C      1  0.4388300000000  0.5934100000000  0.6047590000000 1.0
C      1  0.4634260000000  0.5822100000000  0.4786290000000 1.0
C      1  0.5441990000000  0.5000430000000  0.5273180000000 1.0
C      1  0.5115320000000  0.5004180000000  0.4395690000000 1.0
C      1  0.4343920000000  0.6068540000000  0.5818200000000 1.0
C      1  0.5199290000000  0.5540190000000  0.5217080000000 1.0
C      1  0.6187280000000  0.5459490000000  0.5546670000000 1.0
C      1  0.4449790000000  0.4963960000000  0.5193390000000 1.0
C      1  0.6139230000000  0.3922280000000  0.5051250000000 1.0
C      1  0.4267950000000  0.4988590000000  0.4011710000000 1.0
C      1  0.6034060000000  0.4167850000000  0.4996290000000 1.0
C      1  0.4209700000000  0.5778940000000  0.5436000000000 1.0
C      1  0.5324330000000  0.5409550000000  0.5941730000000 1.0
END
