TITL C-612601-4209-778 25387.6006059298 125000 -545.535624110127 0 0 90 (C1) n - 1
REM
REM in /home/nfs/bkarasulu/CARBON/AIRSS/Generating-Clusters/TERSOFF/Only-C1/FIRE-HFTN
REM
REM
REM
REM
REM
REM ./C.cell (11c1c37f851c82e70ff6c80c92926a4b)
REM AIRSS Version 0.9.1 bugfix July 2018 build 013d7b7c2542+ Fri, 06 Jul 2018 19:26:36 +0100
REM compiler GCC version 9.2.1 20190827 (Red Hat 9.2.1-1)
REM options -cpp -mtune=generic -march=x86-64 -g -O0 -fpre-include=/usr/include/finclude/math-vector-fortran.h
REM seed -745537584 -180805630 -387517600 -1317913045 710148360 -196926571 -1171858079 -232084005 -1771106578 -691496929 -902302291 -1061542040 970834151 -1943388729 -1136104441 -2018400210 1175234253 1988682000 -438231906 221063802 -1913666071 396064970 -571754288 -1752928795 1731107663 1533770161 -94773892 -173659934 -1110194310 -1992209986 889416717 -785007683 1691813806
REM
CELL 1.54180   50.00000   50.00000   50.00000   90.00000   90.00000   90.00000
LATT -1
SFAC C  
C      1  0.5455780000000  0.4686950000000  0.4772130000000 1.0
C      1  0.4434150000000  0.5567830000000  0.4854370000000 1.0
C      1  0.5784110000000  0.5002630000000  0.4563110000000 1.0
C      1  0.5576590000000  0.5073710000000  0.5261380000000 1.0
C      1  0.5440200000000  0.4317000000000  0.5658670000000 1.0
C      1  0.5365490000000  0.3693080000000  0.4390410000000 1.0
C      1  0.5194440000000  0.5215450000000  0.4398930000000 1.0
C      1  0.4712060000000  0.4266240000000  0.5525780000000 1.0
C      1  0.5675480000000  0.4867650000000  0.4794040000000 1.0
C      1  0.3945730000000  0.4733510000000  0.4883200000000 1.0
C      1  0.5416510000000  0.4517230000000  0.4995360000000 1.0
C      1  0.3781630000000  0.4943620000000  0.4980040000000 1.0
C      1  0.5016850000000  0.5000280000000  0.5742610000000 1.0
C      1  0.5149230000000  0.5446710000000  0.4833230000000 1.0
C      1  0.5357170000000  0.5667700000000  0.5226470000000 1.0
C      1  0.5046540000000  0.4946970000000  0.4774820000000 1.0
C      1  0.3725130000000  0.5679440000000  0.5100660000000 1.0
C      1  0.4739890000000  0.4792520000000  0.4373070000000 1.0
C      1  0.5747450000000  0.5022460000000  0.4280040000000 1.0
C      1  0.4021510000000  0.4467270000000  0.4945300000000 1.0
C      1  0.3807010000000  0.5443920000000  0.5024880000000 1.0
C      1  0.5747270000000  0.5025200000000  0.5039890000000 1.0
C      1  0.4300950000000  0.4419790000000  0.4889950000000 1.0
C      1  0.5433690000000  0.4599030000000  0.5606270000000 1.0
C      1  0.4455960000000  0.4259630000000  0.5058760000000 1.0
C      1  0.5575110000000  0.5093850000000  0.5552620000000 1.0
C      1  0.4650170000000  0.5321070000000  0.4308140000000 1.0
C      1  0.4878270000000  0.5453990000000  0.4986280000000 1.0
C      1  0.5293080000000  0.5664150000000  0.4677290000000 1.0
C      1  0.5126400000000  0.5203020000000  0.4674060000000 1.0
C      1  0.4723330000000  0.5453880000000  0.5450770000000 1.0
C      1  0.4738860000000  0.4351980000000  0.4563730000000 1.0
C      1  0.4318150000000  0.5356530000000  0.4703260000000 1.0
C      1  0.5732640000000  0.4815820000000  0.4104860000000 1.0
C      1  0.5900510000000  0.5256580000000  0.4944790000000 1.0
C      1  0.5109320000000  0.3996950000000  0.4756620000000 1.0
C      1  0.5236090000000  0.3832270000000  0.4568750000000 1.0
C      1  0.5857150000000  0.5276370000000  0.4664220000000 1.0
C      1  0.4605480000000  0.4603900000000  0.4533340000000 1.0
C      1  0.4537480000000  0.4865380000000  0.5354670000000 1.0
C      1  0.5282280000000  0.5908160000000  0.5073780000000 1.0
C      1  0.4402260000000  0.5325020000000  0.4437830000000 1.0
C      1  0.4596790000000  0.5188070000000  0.5859280000000 1.0
C      1  0.4782930000000  0.5576770000000  0.4317560000000 1.0
C      1  0.5075420000000  0.5112820000000  0.5288560000000 1.0
C      1  0.4864640000000  0.5303970000000  0.5241480000000 1.0
C      1  0.5213310000000  0.4752210000000  0.4626650000000 1.0
C      1  0.4706900000000  0.5414600000000  0.5739150000000 1.0
C      1  0.4631610000000  0.4909360000000  0.5104720000000 1.0
C      1  0.4969820000000  0.5971150000000  0.4624560000000 1.0
C      1  0.4721370000000  0.5842400000000  0.5193020000000 1.0
C      1  0.5334830000000  0.5432090000000  0.5065620000000 1.0
C      1  0.4767440000000  0.5063110000000  0.4255700000000 1.0
C      1  0.5239370000000  0.4154250000000  0.5525700000000 1.0
C      1  0.5224840000000  0.4669590000000  0.5426730000000 1.0
C      1  0.5404870000000  0.5326190000000  0.5647090000000 1.0
C      1  0.5739770000000  0.5452670000000  0.4466370000000 1.0
C      1  0.5533660000000  0.5628100000000  0.4538990000000 1.0
C      1  0.5086140000000  0.4908130000000  0.5482410000000 1.0
C      1  0.5328540000000  0.5602660000000  0.5510350000000 1.0
C      1  0.5198950000000  0.3986980000000  0.5024050000000 1.0
C      1  0.4838450000000  0.5735910000000  0.5434560000000 1.0
C      1  0.4384270000000  0.4645410000000  0.4710520000000 1.0
C      1  0.4847480000000  0.5812120000000  0.4437430000000 1.0
C      1  0.4585980000000  0.4195140000000  0.5283480000000 1.0
C      1  0.5156880000000  0.5254470000000  0.5807110000000 1.0
C      1  0.4155960000000  0.5149390000000  0.4802150000000 1.0
C      1  0.3905700000000  0.5199400000000  0.4942530000000 1.0
C      1  0.5096340000000  0.4721260000000  0.4373800000000 1.0
C      1  0.4903040000000  0.4167150000000  0.4666430000000 1.0
C      1  0.5327910000000  0.5181460000000  0.5181830000000 1.0
C      1  0.4673290000000  0.5655140000000  0.4977180000000 1.0
C      1  0.5714100000000  0.5413970000000  0.3966840000000 1.0
C      1  0.4856870000000  0.4824910000000  0.4955130000000 1.0
C      1  0.4601720000000  0.4770240000000  0.5616100000000 1.0
C      1  0.5586460000000  0.4832620000000  0.5680330000000 1.0
C      1  0.5731270000000  0.5305220000000  0.4215120000000 1.0
C      1  0.5625270000000  0.4205060000000  0.5825780000000 1.0
C      1  0.4951760000000  0.4574260000000  0.5050450000000 1.0
C      1  0.5193980000000  0.5911180000000  0.4794610000000 1.0
C      1  0.4734490000000  0.4950050000000  0.5796080000000 1.0
C      1  0.6056050000000  0.5418390000000  0.5097270000000 1.0
C      1  0.5069700000000  0.5698920000000  0.5620360000000 1.0
C      1  0.4610910000000  0.4493640000000  0.5656550000000 1.0
C      1  0.5053960000000  0.5060350000000  0.4219960000000 1.0
C      1  0.4189600000000  0.4860950000000  0.4754300000000 1.0
C      1  0.4966560000000  0.4171270000000  0.5599550000000 1.0
C      1  0.4980120000000  0.5487810000000  0.5818280000000 1.0
C      1  0.5201100000000  0.4545810000000  0.5174510000000 1.0
C      1  0.5282170000000  0.4028640000000  0.5275380000000 1.0
END
