TITL C-612601-4209-6 -14026.6762842411 125000 -1002.25908155439 0 0 163 (C1) n - 1
REM
REM in /home/nfs/bkarasulu/CARBON/AIRSS/Generating-Clusters/TERSOFF/Only-C1/FIRE-HFTN
REM
REM
REM
REM
REM
REM ./C.cell (11c1c37f851c82e70ff6c80c92926a4b)
REM AIRSS Version 0.9.1 bugfix July 2018 build 013d7b7c2542+ Fri, 06 Jul 2018 19:26:36 +0100
REM compiler GCC version 9.2.1 20190827 (Red Hat 9.2.1-1)
REM options -cpp -mtune=generic -march=x86-64 -g -O0 -fpre-include=/usr/include/finclude/math-vector-fortran.h
REM seed 2116611473 -1614672521 -1932124154 107477465 -1206934144 -692757912 -1750115659 -307272328 -2096449272 -1394056145 -1926063163 555691580 -1834183239 -214889492 -1194962524 642603487 1726271385 -759733900 115641412 984659316 -1709166974 447061658 530945577 929392807 935657974 1560755377 105821640 -652721018 1725619929 -1870278696 945337359 -2055078054 886522843
REM
CELL 1.54180   50.00000   50.00000   50.00000   90.00000   90.00000   90.00000
LATT -1
SFAC C  
C      1  0.4795810000000  0.4979030000000  0.5653040000000 1.0
C      1  0.5722840000000  0.4328960000000  0.5430400000000 1.0
C      1  0.5188000000000  0.5101250000000  0.6062840000000 1.0
C      1  0.5091840000000  0.5310730000000  0.3668650000000 1.0
C      1  0.4827810000000  0.6081320000000  0.6619090000000 1.0
C      1  0.4904270000000  0.5284560000000  0.4108780000000 1.0
C      1  0.4896620000000  0.4627100000000  0.4265990000000 1.0
C      1  0.3994930000000  0.5219580000000  0.5635310000000 1.0
C      1  0.4359570000000  0.4196460000000  0.5133890000000 1.0
C      1  0.5872120000000  0.4340110000000  0.4580660000000 1.0
C      1  0.4170900000000  0.4881690000000  0.5974990000000 1.0
C      1  0.3418810000000  0.4836170000000  0.4275470000000 1.0
C      1  0.5249780000000  0.4437670000000  0.4878460000000 1.0
C      1  0.4834900000000  0.4001990000000  0.5674510000000 1.0
C      1  0.4723130000000  0.5020740000000  0.4686160000000 1.0
C      1  0.5112990000000  0.4810380000000  0.4234000000000 1.0
C      1  0.4742150000000  0.4333560000000  0.4598310000000 1.0
C      1  0.6103070000000  0.5040370000000  0.4535810000000 1.0
C      1  0.5441960000000  0.4614360000000  0.4502610000000 1.0
C      1  0.3943360000000  0.5334050000000  0.4274930000000 1.0
C      1  0.5737670000000  0.4603570000000  0.4152380000000 1.0
C      1  0.5315600000000  0.4130400000000  0.5226050000000 1.0
C      1  0.5952570000000  0.4775270000000  0.4917790000000 1.0
C      1  0.5140640000000  0.4978840000000  0.4472390000000 1.0
C      1  0.4029710000000  0.5798470000000  0.4513960000000 1.0
C      1  0.5598600000000  0.4621680000000  0.5900600000000 1.0
C      1  0.4245640000000  0.4625690000000  0.4841600000000 1.0
C      1  0.5612990000000  0.4795120000000  0.5305570000000 1.0
C      1  0.4493540000000  0.5982440000000  0.5152770000000 1.0
C      1  0.3929860000000  0.5177860000000  0.5172340000000 1.0
C      1  0.4000080000000  0.4581320000000  0.4968520000000 1.0
C      1  0.4317890000000  0.5908650000000  0.5353560000000 1.0
C      1  0.4397880000000  0.4512320000000  0.5684770000000 1.0
C      1  0.4419890000000  0.4229700000000  0.5664130000000 1.0
C      1  0.4069170000000  0.5111460000000  0.5882760000000 1.0
C      1  0.4361860000000  0.4360220000000  0.4284360000000 1.0
C      1  0.5127120000000  0.5434160000000  0.6482630000000 1.0
C      1  0.4943930000000  0.4457980000000  0.5274610000000 1.0
C      1  0.5756350000000  0.4606460000000  0.5466830000000 1.0
C      1  0.5559420000000  0.4854270000000  0.4517040000000 1.0
C      1  0.4009040000000  0.5006950000000  0.4650050000000 1.0
C      1  0.5865180000000  0.5822100000000  0.4547830000000 1.0
C      1  0.5819610000000  0.4689670000000  0.5735360000000 1.0
C      1  0.5379740000000  0.4516800000000  0.5741660000000 1.0
C      1  0.3920890000000  0.5595930000000  0.4375250000000 1.0
C      1  0.4825290000000  0.3627200000000  0.4649550000000 1.0
C      1  0.5779890000000  0.6065100000000  0.4611890000000 1.0
C      1  0.4993570000000  0.5250750000000  0.5356650000000 1.0
C      1  0.5141190000000  0.5031550000000  0.5216890000000 1.0
C      1  0.4691100000000  0.4626640000000  0.4069750000000 1.0
C      1  0.4941220000000  0.5889080000000  0.4893870000000 1.0
C      1  0.5386290000000  0.5684370000000  0.4245240000000 1.0
C      1  0.4816240000000  0.5473580000000  0.5262530000000 1.0
C      1  0.5894580000000  0.4448200000000  0.4334440000000 1.0
C      1  0.4633800000000  0.5824040000000  0.5878410000000 1.0
C      1  0.5432200000000  0.5160160000000  0.5605000000000 1.0
C      1  0.4826240000000  0.5810560000000  0.5672850000000 1.0
C      1  0.5778810000000  0.5372940000000  0.4343350000000 1.0
C      1  0.3924480000000  0.5087290000000  0.4908160000000 1.0
C      1  0.3913910000000  0.4739240000000  0.5408880000000 1.0
C      1  0.6914550000000  0.5224850000000  0.5705390000000 1.0
C      1  0.5638370000000  0.5331570000000  0.5513500000000 1.0
C      1  0.5224500000000  0.4721680000000  0.5589520000000 1.0
C      1  0.4054780000000  0.5489640000000  0.5521600000000 1.0
C      1  0.4589960000000  0.4037700000000  0.5533550000000 1.0
C      1  0.5209190000000  0.5198600000000  0.5790430000000 1.0
C      1  0.6085780000000  0.4799180000000  0.4684150000000 1.0
C      1  0.5028130000000  0.5611550000000  0.4857410000000 1.0
C      1  0.4588810000000  0.5485400000000  0.4450670000000 1.0
C      1  0.4275170000000  0.5511390000000  0.5110460000000 1.0
C      1  0.3863680000000  0.5104640000000  0.4424700000000 1.0
C      1  0.4039340000000  0.5434480000000  0.5235760000000 1.0
C      1  0.5912480000000  0.5100590000000  0.4319430000000 1.0
C      1  0.5212490000000  0.4476170000000  0.4585900000000 1.0
C      1  0.4987520000000  0.4947650000000  0.4714940000000 1.0
C      1  0.4894410000000  0.5706500000000  0.5435460000000 1.0
C      1  0.4464080000000  0.5395110000000  0.4701610000000 1.0
C      1  0.5805440000000  0.5327790000000  0.5024350000000 1.0
C      1  0.5586550000000  0.5039230000000  0.3961860000000 1.0
C      1  0.4435000000000  0.4621610000000  0.4198030000000 1.0
C      1  0.4223230000000  0.4810510000000  0.4622720000000 1.0
C      1  0.6371290000000  0.5192390000000  0.4937270000000 1.0
C      1  0.4511750000000  0.5911340000000  0.4658250000000 1.0
C      1  0.4396940000000  0.4831940000000  0.4393420000000 1.0
C      1  0.5786170000000  0.5398780000000  0.5296990000000 1.0
C      1  0.5484160000000  0.4725480000000  0.6138820000000 1.0
C      1  0.5535810000000  0.5449600000000  0.4198590000000 1.0
C      1  0.3631700000000  0.4968270000000  0.4347150000000 1.0
C      1  0.5468870000000  0.4476330000000  0.4094090000000 1.0
C      1  0.5208790000000  0.4814980000000  0.6121280000000 1.0
C      1  0.4511740000000  0.5485780000000  0.5271280000000 1.0
C      1  0.4589280000000  0.4936410000000  0.5450670000000 1.0
C      1  0.5862930000000  0.5543960000000  0.4564200000000 1.0
C      1  0.4895460000000  0.5849260000000  0.4328330000000 1.0
C      1  0.5246010000000  0.4146170000000  0.4945820000000 1.0
C      1  0.5025260000000  0.4569910000000  0.5011850000000 1.0
C      1  0.4907450000000  0.3836890000000  0.4808210000000 1.0
C      1  0.5115230000000  0.4256500000000  0.5395970000000 1.0
C      1  0.4748520000000  0.3898470000000  0.5047200000000 1.0
C      1  0.5664940000000  0.4816990000000  0.5010330000000 1.0
C      1  0.5352180000000  0.6222570000000  0.4837190000000 1.0
C      1  0.4656460000000  0.4513970000000  0.5280340000000 1.0
C      1  0.5421270000000  0.5242450000000  0.4762070000000 1.0
C      1  0.5057320000000  0.4867660000000  0.4984840000000 1.0
C      1  0.5050170000000  0.4184850000000  0.5670380000000 1.0
C      1  0.5155330000000  0.5816680000000  0.4273050000000 1.0
C      1  0.4959790000000  0.4436640000000  0.4458290000000 1.0
C      1  0.5275400000000  0.5486430000000  0.4791420000000 1.0
C      1  0.4500020000000  0.4446170000000  0.5023320000000 1.0
C      1  0.4242380000000  0.5807250000000  0.4695420000000 1.0
C      1  0.4655200000000  0.5954860000000  0.4909500000000 1.0
C      1  0.4701880000000  0.5901660000000  0.6136770000000 1.0
C      1  0.4682080000000  0.5267770000000  0.4286400000000 1.0
C      1  0.4367880000000  0.5758610000000  0.5809590000000 1.0
C      1  0.5272750000000  0.4047220000000  0.4453230000000 1.0
C      1  0.5779400000000  0.4902710000000  0.4129210000000 1.0
C      1  0.5603350000000  0.4141480000000  0.5259740000000 1.0
C      1  0.4109170000000  0.4261860000000  0.5266150000000 1.0
C      1  0.5610240000000  0.5130220000000  0.4945420000000 1.0
C      1  0.4810370000000  0.4620780000000  0.3811210000000 1.0
C      1  0.5128210000000  0.6096530000000  0.4902920000000 1.0
C      1  0.4896920000000  0.6164830000000  0.6856180000000 1.0
C      1  0.4762200000000  0.5993910000000  0.6377620000000 1.0
C      1  0.6421400000000  0.5127450000000  0.5191850000000 1.0
C      1  0.4605110000000  0.5024410000000  0.4425480000000 1.0
C      1  0.5380650000000  0.4212090000000  0.4243250000000 1.0
C      1  0.5739380000000  0.4332230000000  0.4829600000000 1.0
C      1  0.4844430000000  0.5430100000000  0.4970310000000 1.0
C      1  0.4517030000000  0.4661000000000  0.5471890000000 1.0
C      1  0.5749550000000  0.4116280000000  0.5014150000000 1.0
C      1  0.5363180000000  0.4923490000000  0.5413130000000 1.0
C      1  0.3920420000000  0.5024500000000  0.5419530000000 1.0
C      1  0.5413620000000  0.5256810000000  0.4022860000000 1.0
C      1  0.5149690000000  0.3983890000000  0.4729180000000 1.0
C      1  0.4217680000000  0.5731910000000  0.5571350000000 1.0
C      1  0.5542710000000  0.4540740000000  0.4912210000000 1.0
C      1  0.6183920000000  0.5242350000000  0.4732940000000 1.0
C      1  0.4174970000000  0.5245100000000  0.3795540000000 1.0
C      1  0.6048620000000  0.4847920000000  0.5757650000000 1.0
C      1  0.5592690000000  0.6216470000000  0.4724420000000 1.0
C      1  0.5394140000000  0.5080020000000  0.4536570000000 1.0
C      1  0.5155360000000  0.4371720000000  0.5867930000000 1.0
C      1  0.6242790000000  0.4980950000000  0.5630550000000 1.0
C      1  0.4557400000000  0.4006810000000  0.5240350000000 1.0
C      1  0.5085360000000  0.4630770000000  0.3787940000000 1.0
C      1  0.5148750000000  0.5281370000000  0.6272660000000 1.0
C      1  0.6447510000000  0.5088220000000  0.5469560000000 1.0
C      1  0.6689310000000  0.5159390000000  0.5591770000000 1.0
C      1  0.4958810000000  0.4758790000000  0.5728650000000 1.0
C      1  0.4635010000000  0.5219180000000  0.4882150000000 1.0
C      1  0.4279530000000  0.4650380000000  0.5897070000000 1.0
C      1  0.5260440000000  0.4670150000000  0.4014080000000 1.0
C      1  0.5136620000000  0.5282410000000  0.3939320000000 1.0
C      1  0.3970420000000  0.4514340000000  0.5242410000000 1.0
C      1  0.4284150000000  0.5562130000000  0.4838140000000 1.0
C      1  0.4657050000000  0.5765260000000  0.4450590000000 1.0
C      1  0.4725380000000  0.4443380000000  0.4840760000000 1.0
C      1  0.5965650000000  0.5414500000000  0.4798880000000 1.0
C      1  0.4964230000000  0.5206650000000  0.5638390000000 1.0
C      1  0.4561780000000  0.5055140000000  0.5184140000000 1.0
C      1  0.5018340000000  0.4619050000000  0.5983960000000 1.0
C      1  0.4053070000000  0.5295640000000  0.4020270000000 1.0
C      1  0.4519570000000  0.4226480000000  0.4460810000000 1.0
END
