TITL C-612601-4209-657 0.315830900438037 125000 -842.073057666551 0 0 138 (C1) n - 1
REM
REM in /home/nfs/bkarasulu/CARBON/AIRSS/Generating-Clusters/TERSOFF/Only-C1/FIRE-HFTN
REM
REM
REM
REM
REM
REM ./C.cell (11c1c37f851c82e70ff6c80c92926a4b)
REM AIRSS Version 0.9.1 bugfix July 2018 build 013d7b7c2542+ Fri, 06 Jul 2018 19:26:36 +0100
REM compiler GCC version 9.2.1 20190827 (Red Hat 9.2.1-1)
REM options -cpp -mtune=generic -march=x86-64 -g -O0 -fpre-include=/usr/include/finclude/math-vector-fortran.h
REM seed -381285420 -1617968850 405130465 -1536385875 1489735756 -160172841 -1764552242 -202250640 -233125518 -1747648868 -1942889276 -9663472 -299865593 -1309672100 1121026291 892901767 1564471800 -258208278 1815405958 1676684834 -853534969 -283906203 -735869847 -1511402538 1662271770 -1856844557 -608315449 -1589755671 -332498642 1010590825 -659011499 1825304280 -1588651432
REM
CELL 1.54180   50.00000   50.00000   50.00000   90.00000   90.00000   90.00000
LATT -1
SFAC C  
C      1  0.4804930000000  0.4257470000000  0.5097200000000 1.0
C      1  0.4527790000000  0.5144410000000  0.4898930000000 1.0
C      1  0.5449310000000  0.4646370000000  0.5016830000000 1.0
C      1  0.4997290000000  0.4269440000000  0.4205470000000 1.0
C      1  0.5609380000000  0.4811180000000  0.5186020000000 1.0
C      1  0.5488010000000  0.5428940000000  0.5002940000000 1.0
C      1  0.5147570000000  0.5047830000000  0.5958630000000 1.0
C      1  0.5183420000000  0.5515430000000  0.4393280000000 1.0
C      1  0.5481870000000  0.3808040000000  0.5414350000000 1.0
C      1  0.4392500000000  0.4359750000000  0.5582710000000 1.0
C      1  0.4333310000000  0.5538780000000  0.4546230000000 1.0
C      1  0.5969960000000  0.5394170000000  0.4968530000000 1.0
C      1  0.4648200000000  0.4528060000000  0.4626170000000 1.0
C      1  0.4940650000000  0.4480880000000  0.4003830000000 1.0
C      1  0.4724800000000  0.5277290000000  0.4720250000000 1.0
C      1  0.5468450000000  0.5319380000000  0.4752280000000 1.0
C      1  0.5587580000000  0.6216660000000  0.5291280000000 1.0
C      1  0.4316440000000  0.5062040000000  0.4492930000000 1.0
C      1  0.5305550000000  0.4426860000000  0.5147530000000 1.0
C      1  0.5211980000000  0.4935250000000  0.5376230000000 1.0
C      1  0.4409710000000  0.4826060000000  0.5838380000000 1.0
C      1  0.4550890000000  0.5002300000000  0.4338590000000 1.0
C      1  0.5623430000000  0.5346950000000  0.4515720000000 1.0
C      1  0.4200110000000  0.5690260000000  0.4973680000000 1.0
C      1  0.5561160000000  0.4082950000000  0.5475170000000 1.0
C      1  0.5303450000000  0.5830340000000  0.5378760000000 1.0
C      1  0.4752750000000  0.4054930000000  0.4674800000000 1.0
C      1  0.4890830000000  0.4664680000000  0.5881840000000 1.0
C      1  0.4625000000000  0.5562770000000  0.5722010000000 1.0
C      1  0.4743410000000  0.5946830000000  0.5025500000000 1.0
C      1  0.5177190000000  0.5579840000000  0.5319050000000 1.0
C      1  0.5396410000000  0.4628610000000  0.4736970000000 1.0
C      1  0.4685500000000  0.4740760000000  0.5392870000000 1.0
C      1  0.5210510000000  0.4405560000000  0.4696780000000 1.0
C      1  0.4873540000000  0.4524530000000  0.5012430000000 1.0
C      1  0.4907910000000  0.5933760000000  0.5607430000000 1.0
C      1  0.4368310000000  0.4569090000000  0.5755770000000 1.0
C      1  0.5061420000000  0.4454070000000  0.5975750000000 1.0
C      1  0.5025240000000  0.5806770000000  0.5849580000000 1.0
C      1  0.4083830000000  0.4321340000000  0.5222980000000 1.0
C      1  0.4939900000000  0.5361710000000  0.4907750000000 1.0
C      1  0.5071050000000  0.6009400000000  0.5385820000000 1.0
C      1  0.5434020000000  0.5941080000000  0.4808270000000 1.0
C      1  0.5887110000000  0.5647760000000  0.4848350000000 1.0
C      1  0.4664490000000  0.5784980000000  0.5526310000000 1.0
C      1  0.5313370000000  0.5016970000000  0.4088510000000 1.0
C      1  0.4249600000000  0.5319530000000  0.5531050000000 1.0
C      1  0.5856100000000  0.4399030000000  0.5162090000000 1.0
C      1  0.4006230000000  0.5261960000000  0.4811510000000 1.0
C      1  0.4952070000000  0.5700150000000  0.4354340000000 1.0
C      1  0.5455270000000  0.5445530000000  0.4300650000000 1.0
C      1  0.3993460000000  0.4682670000000  0.4856020000000 1.0
C      1  0.5969690000000  0.5131020000000  0.4811680000000 1.0
C      1  0.5095560000000  0.5125900000000  0.4944910000000 1.0
C      1  0.3943390000000  0.4988220000000  0.4915700000000 1.0
C      1  0.5827480000000  0.4726000000000  0.5745040000000 1.0
C      1  0.4389350000000  0.4949000000000  0.4750370000000 1.0
C      1  0.5042350000000  0.5248340000000  0.4389010000000 1.0
C      1  0.5525190000000  0.5158110000000  0.5652350000000 1.0
C      1  0.5892210000000  0.5447360000000  0.5521970000000 1.0
C      1  0.5040540000000  0.4960410000000  0.5155210000000 1.0
C      1  0.5442800000000  0.4895910000000  0.4325530000000 1.0
C      1  0.4084840000000  0.5295580000000  0.5293620000000 1.0
C      1  0.4876290000000  0.6167100000000  0.4454010000000 1.0
C      1  0.5823360000000  0.5127280000000  0.4540770000000 1.0
C      1  0.6021180000000  0.4889630000000  0.4978040000000 1.0
C      1  0.4071440000000  0.4585110000000  0.5128170000000 1.0
C      1  0.5376970000000  0.4263000000000  0.5607470000000 1.0
C      1  0.4998020000000  0.4817820000000  0.4582900000000 1.0
C      1  0.4844570000000  0.5067280000000  0.4532460000000 1.0
C      1  0.4593000000000  0.5057840000000  0.5845030000000 1.0
C      1  0.4084440000000  0.4493880000000  0.4635980000000 1.0
C      1  0.4819410000000  0.5618570000000  0.5930540000000 1.0
C      1  0.4586520000000  0.4386340000000  0.4389730000000 1.0
C      1  0.4487800000000  0.5310140000000  0.5704790000000 1.0
C      1  0.5549060000000  0.5967380000000  0.5395170000000 1.0
C      1  0.5531770000000  0.4249070000000  0.4237200000000 1.0
C      1  0.4004470000000  0.5025870000000  0.5214670000000 1.0
C      1  0.4872300000000  0.4665250000000  0.5595570000000 1.0
C      1  0.5747970000000  0.4403940000000  0.4270710000000 1.0
C      1  0.5419390000000  0.5000500000000  0.5870060000000 1.0
C      1  0.4225610000000  0.4243520000000  0.4718550000000 1.0
C      1  0.4577420000000  0.4787710000000  0.4158910000000 1.0
C      1  0.5299220000000  0.4863620000000  0.4585020000000 1.0
C      1  0.5681900000000  0.5823510000000  0.4798530000000 1.0
C      1  0.5876720000000  0.5365920000000  0.5249280000000 1.0
C      1  0.5118620000000  0.5400210000000  0.5515770000000 1.0
C      1  0.4645840000000  0.5867150000000  0.4761380000000 1.0
C      1  0.4164200000000  0.5303640000000  0.4570270000000 1.0
C      1  0.5147750000000  0.4688160000000  0.5506030000000 1.0
C      1  0.5438980000000  0.3775020000000  0.5141950000000 1.0
C      1  0.5894930000000  0.4711400000000  0.5203910000000 1.0
C      1  0.5615410000000  0.4792500000000  0.5903990000000 1.0
C      1  0.5245720000000  0.4202430000000  0.4925810000000 1.0
C      1  0.4846470000000  0.4756310000000  0.4043410000000 1.0
C      1  0.5253860000000  0.4291230000000  0.5865270000000 1.0
C      1  0.4572590000000  0.5469710000000  0.4434660000000 1.0
C      1  0.5441860000000  0.5280730000000  0.4062480000000 1.0
C      1  0.4152220000000  0.4568640000000  0.4360740000000 1.0
C      1  0.4415460000000  0.4554340000000  0.4235480000000 1.0
C      1  0.4069320000000  0.5447070000000  0.5041430000000 1.0
C      1  0.4748580000000  0.5516080000000  0.4212000000000 1.0
C      1  0.4515620000000  0.5117700000000  0.5175750000000 1.0
C      1  0.5258710000000  0.6123970000000  0.4951230000000 1.0
C      1  0.4174020000000  0.4803210000000  0.5290400000000 1.0
C      1  0.5492800000000  0.5044150000000  0.5361270000000 1.0
C      1  0.4469430000000  0.4686720000000  0.4765440000000 1.0
C      1  0.4447720000000  0.4881370000000  0.5328130000000 1.0
C      1  0.5271560000000  0.4451110000000  0.5422870000000 1.0
C      1  0.5676660000000  0.4176350000000  0.5202760000000 1.0
C      1  0.5851660000000  0.4646720000000  0.4324970000000 1.0
C      1  0.4978100000000  0.4405240000000  0.3739590000000 1.0
C      1  0.5269700000000  0.4194600000000  0.4226210000000 1.0
C      1  0.4847660000000  0.4756790000000  0.5155090000000 1.0
C      1  0.4927740000000  0.4553100000000  0.4714180000000 1.0
C      1  0.4528610000000  0.4181910000000  0.5112490000000 1.0
C      1  0.5011560000000  0.5005580000000  0.4015980000000 1.0
C      1  0.5298800000000  0.5749600000000  0.5895590000000 1.0
C      1  0.4903090000000  0.5269060000000  0.4129830000000 1.0
C      1  0.5022450000000  0.5560190000000  0.5081550000000 1.0
C      1  0.4827940000000  0.5903900000000  0.4527040000000 1.0
C      1  0.4958720000000  0.4080160000000  0.4911450000000 1.0
C      1  0.5524010000000  0.5610120000000  0.5840570000000 1.0
C      1  0.5424220000000  0.6313780000000  0.5094180000000 1.0
C      1  0.3872000000000  0.4150710000000  0.5232110000000 1.0
C      1  0.4597330000000  0.5844400000000  0.5256670000000 1.0
C      1  0.5600740000000  0.5283770000000  0.5210500000000 1.0
C      1  0.5006240000000  0.6059730000000  0.5097680000000 1.0
C      1  0.5304890000000  0.5097240000000  0.4761700000000 1.0
C      1  0.5734760000000  0.4897640000000  0.4378240000000 1.0
C      1  0.4344460000000  0.4254070000000  0.5319980000000 1.0
C      1  0.4467270000000  0.4116540000000  0.4822800000000 1.0
C      1  0.4786700000000  0.4175220000000  0.4391670000000 1.0
C      1  0.5664500000000  0.5409400000000  0.5696240000000 1.0
C      1  0.5485560000000  0.4026860000000  0.4999630000000 1.0
C      1  0.5953370000000  0.4733120000000  0.5504270000000 1.0
C      1  0.4375160000000  0.5735760000000  0.4753050000000 1.0
C      1  0.4869920000000  0.4958040000000  0.5939040000000 1.0
END
