TITL C-612605-9286-8 6088.24107775714 125000 -781.177429624357 0 0 127 (C1) n - 1
REM
REM in /home/nfs/bkarasulu/CARBON/AIRSS/Generating-Clusters/TERSOFF/Only-C1/FIRE-HFTN
REM
REM
REM
REM
REM
REM ./C.cell (11c1c37f851c82e70ff6c80c92926a4b)
REM AIRSS Version 0.9.1 bugfix July 2018 build 013d7b7c2542+ Fri, 06 Jul 2018 19:26:36 +0100
REM compiler GCC version 9.2.1 20190827 (Red Hat 9.2.1-1)
REM options -cpp -mtune=generic -march=x86-64 -g -O0 -fpre-include=/usr/include/finclude/math-vector-fortran.h
REM seed -2097654097 -1483499594 741529546 874222667 405844690 688386773 -2050222644 1533748891 -1330948558 -1925333591 -2137890336 -1824898542 508903589 916238384 1281785738 -236283441 -596497527 -1369556690 -1644427644 753584183 -344799568 -2072037063 -774385246 -1551876308 -115332821 -489065805 970066139 -970590638 1934198842 -2008855290 988847120 2112267395 -939283090
REM
CELL 1.54180   50.00000   50.00000   50.00000   90.00000   90.00000   90.00000
LATT -1
SFAC C  
C      1  0.4644460000000  0.3929720000000  0.5424920000000 1.0
C      1  0.4396950000000  0.4989590000000  0.5541820000000 1.0
C      1  0.4935600000000  0.4893630000000  0.5028170000000 1.0
C      1  0.4311140000000  0.4532940000000  0.5375350000000 1.0
C      1  0.4482940000000  0.5663160000000  0.4586720000000 1.0
C      1  0.4629830000000  0.4390800000000  0.5023700000000 1.0
C      1  0.5977880000000  0.5207030000000  0.4638190000000 1.0
C      1  0.4766060000000  0.4480980000000  0.4531440000000 1.0
C      1  0.5960710000000  0.5286690000000  0.4919900000000 1.0
C      1  0.5872970000000  0.4789190000000  0.5671800000000 1.0
C      1  0.5040290000000  0.5222120000000  0.5911810000000 1.0
C      1  0.4993590000000  0.5391780000000  0.4996220000000 1.0
C      1  0.5203400000000  0.4097790000000  0.4624280000000 1.0
C      1  0.5467410000000  0.5884100000000  0.5512980000000 1.0
C      1  0.4546440000000  0.4810440000000  0.4789570000000 1.0
C      1  0.5592590000000  0.4870450000000  0.4727500000000 1.0
C      1  0.5627480000000  0.4737360000000  0.5816210000000 1.0
C      1  0.5362810000000  0.4920880000000  0.5502700000000 1.0
C      1  0.5458010000000  0.4658650000000  0.5122020000000 1.0
C      1  0.3929350000000  0.5351810000000  0.4572080000000 1.0
C      1  0.5765230000000  0.4390900000000  0.5391600000000 1.0
C      1  0.4623580000000  0.4603640000000  0.5741600000000 1.0
C      1  0.4665340000000  0.3885880000000  0.5147610000000 1.0
C      1  0.4867760000000  0.4219590000000  0.4137520000000 1.0
C      1  0.5100540000000  0.5606660000000  0.5165020000000 1.0
C      1  0.5435220000000  0.5959090000000  0.5252850000000 1.0
C      1  0.5384800000000  0.5495900000000  0.4418810000000 1.0
C      1  0.5427860000000  0.4946120000000  0.5781580000000 1.0
C      1  0.5313270000000  0.4792480000000  0.4153530000000 1.0
C      1  0.3882690000000  0.5492390000000  0.4804090000000 1.0
C      1  0.4278750000000  0.4608220000000  0.4352110000000 1.0
C      1  0.6024570000000  0.4374690000000  0.4982990000000 1.0
C      1  0.5459390000000  0.4664060000000  0.4844830000000 1.0
C      1  0.4631400000000  0.5529420000000  0.4381340000000 1.0
C      1  0.5065000000000  0.4386410000000  0.4022830000000 1.0
C      1  0.4355880000000  0.4993540000000  0.4890950000000 1.0
C      1  0.4644130000000  0.4085750000000  0.5641020000000 1.0
C      1  0.4631960000000  0.5245630000000  0.4400960000000 1.0
C      1  0.4833890000000  0.5162370000000  0.4589830000000 1.0
C      1  0.4829700000000  0.5064140000000  0.5779320000000 1.0
C      1  0.5029590000000  0.5817800000000  0.4491600000000 1.0
C      1  0.3430500000000  0.5838660000000  0.5916600000000 1.0
C      1  0.4880650000000  0.4833650000000  0.3935890000000 1.0
C      1  0.5281500000000  0.4358190000000  0.4476300000000 1.0
C      1  0.5089730000000  0.4428480000000  0.4924250000000 1.0
C      1  0.5272620000000  0.5819630000000  0.5083840000000 1.0
C      1  0.3567480000000  0.5790570000000  0.5700060000000 1.0
C      1  0.3846010000000  0.5675970000000  0.5264190000000 1.0
C      1  0.4164240000000  0.4471800000000  0.4879870000000 1.0
C      1  0.5912670000000  0.5221310000000  0.5446070000000 1.0
C      1  0.5252760000000  0.4470620000000  0.5944020000000 1.0
C      1  0.5879660000000  0.5564840000000  0.4935320000000 1.0
C      1  0.5514770000000  0.4943320000000  0.4279120000000 1.0
C      1  0.4323180000000  0.5233760000000  0.4752680000000 1.0
C      1  0.4190920000000  0.5057740000000  0.5365420000000 1.0
C      1  0.5221800000000  0.4563090000000  0.4699510000000 1.0
C      1  0.5455090000000  0.5312590000000  0.4899430000000 1.0
C      1  0.5065740000000  0.5126350000000  0.5103650000000 1.0
C      1  0.4396640000000  0.4852070000000  0.4225620000000 1.0
C      1  0.4001250000000  0.5587360000000  0.5051280000000 1.0
C      1  0.4888350000000  0.5545150000000  0.6318680000000 1.0
C      1  0.4392930000000  0.5500880000000  0.4808840000000 1.0
C      1  0.5443920000000  0.5367480000000  0.4166850000000 1.0
C      1  0.4641190000000  0.4323350000000  0.5762250000000 1.0
C      1  0.4375620000000  0.5112350000000  0.4336110000000 1.0
C      1  0.5112800000000  0.4980410000000  0.4032920000000 1.0
C      1  0.6107550000000  0.4646900000000  0.4975750000000 1.0
C      1  0.4341680000000  0.4425810000000  0.5115700000000 1.0
C      1  0.4676940000000  0.4321100000000  0.4316480000000 1.0
C      1  0.4149360000000  0.4562800000000  0.4615380000000 1.0
C      1  0.3706450000000  0.5738400000000  0.5480470000000 1.0
C      1  0.4825150000000  0.5953470000000  0.4978960000000 1.0
C      1  0.5331200000000  0.5652080000000  0.5605280000000 1.0
C      1  0.4997680000000  0.5490450000000  0.4075680000000 1.0
C      1  0.4168880000000  0.5208920000000  0.4507800000000 1.0
C      1  0.5028820000000  0.5336630000000  0.4705950000000 1.0
C      1  0.4911320000000  0.4556850000000  0.5128190000000 1.0
C      1  0.5449640000000  0.5021260000000  0.4545110000000 1.0
C      1  0.5870740000000  0.4250750000000  0.5169350000000 1.0
C      1  0.5297460000000  0.4703060000000  0.5350230000000 1.0
C      1  0.5185850000000  0.5273690000000  0.4046140000000 1.0
C      1  0.5318480000000  0.5760140000000  0.4508800000000 1.0
C      1  0.4962460000000  0.4576500000000  0.3836320000000 1.0
C      1  0.5890340000000  0.5222780000000  0.4377060000000 1.0
C      1  0.5264350000000  0.4256060000000  0.5397740000000 1.0
C      1  0.5997260000000  0.5046830000000  0.5660610000000 1.0
C      1  0.4847980000000  0.5948790000000  0.4690490000000 1.0
C      1  0.5666040000000  0.5176960000000  0.4196170000000 1.0
C      1  0.4841000000000  0.5587180000000  0.5582900000000 1.0
C      1  0.5262190000000  0.4497200000000  0.4207300000000 1.0
C      1  0.4962610000000  0.5385410000000  0.6126650000000 1.0
C      1  0.4185790000000  0.4975730000000  0.5110960000000 1.0
C      1  0.5088130000000  0.5601550000000  0.5457710000000 1.0
C      1  0.5075120000000  0.4127490000000  0.4914580000000 1.0
C      1  0.5993410000000  0.4812400000000  0.5182200000000 1.0
C      1  0.5496800000000  0.4474250000000  0.5798300000000 1.0
C      1  0.4607180000000  0.5175570000000  0.5604530000000 1.0
C      1  0.4827320000000  0.4909360000000  0.4736170000000 1.0
C      1  0.4591320000000  0.3649780000000  0.5032750000000 1.0
C      1  0.5465790000000  0.5133270000000  0.5353930000000 1.0
C      1  0.4881520000000  0.5643860000000  0.4289540000000 1.0
C      1  0.5349990000000  0.5164590000000  0.5112650000000 1.0
C      1  0.5533160000000  0.5863520000000  0.4666390000000 1.0
C      1  0.4289920000000  0.5579480000000  0.5063660000000 1.0
C      1  0.5325610000000  0.5208640000000  0.5849680000000 1.0
C      1  0.5469410000000  0.5421320000000  0.5698680000000 1.0
C      1  0.5041580000000  0.4636790000000  0.5966110000000 1.0
C      1  0.5889470000000  0.4656090000000  0.5417830000000 1.0
C      1  0.4594980000000  0.4526630000000  0.4755190000000 1.0
C      1  0.4405560000000  0.4369130000000  0.4252950000000 1.0
C      1  0.5091440000000  0.4502140000000  0.5371220000000 1.0
C      1  0.4611820000000  0.4840150000000  0.4032440000000 1.0
C      1  0.4570040000000  0.5929460000000  0.4609920000000 1.0
C      1  0.4766530000000  0.4100950000000  0.4992860000000 1.0
C      1  0.6294040000000  0.4736060000000  0.4797960000000 1.0
C      1  0.4609690000000  0.5450190000000  0.5485780000000 1.0
C      1  0.5228990000000  0.4065930000000  0.5178240000000 1.0
C      1  0.4429230000000  0.4706920000000  0.5567010000000 1.0
C      1  0.5328430000000  0.5288720000000  0.4629290000000 1.0
C      1  0.5521880000000  0.4326790000000  0.5542670000000 1.0
C      1  0.5739350000000  0.5763750000000  0.4814360000000 1.0
C      1  0.4828830000000  0.4775730000000  0.5840460000000 1.0
C      1  0.4670100000000  0.5841230000000  0.5174650000000 1.0
C      1  0.4496150000000  0.5619710000000  0.5261430000000 1.0
C      1  0.5973170000000  0.5112860000000  0.5171060000000 1.0
C      1  0.5643510000000  0.5307760000000  0.5489740000000 1.0
C      1  0.4970880000000  0.4688810000000  0.4578430000000 1.0
END
