TITL C-612605-9286-1097 0.00846166154707777 125000 -156.82310994819 0 0 27 (C1) n - 1
REM
REM in /home/nfs/bkarasulu/CARBON/AIRSS/Generating-Clusters/TERSOFF/Only-C1/FIRE-HFTN
REM
REM
REM
REM
REM
REM ./C.cell (11c1c37f851c82e70ff6c80c92926a4b)
REM AIRSS Version 0.9.1 bugfix July 2018 build 013d7b7c2542+ Fri, 06 Jul 2018 19:26:36 +0100
REM compiler GCC version 9.2.1 20190827 (Red Hat 9.2.1-1)
REM options -cpp -mtune=generic -march=x86-64 -g -O0 -fpre-include=/usr/include/finclude/math-vector-fortran.h
REM seed 55861146 1199566678 768994990 1770432259 508260205 -1659823287 224641378 -476255552 664202879 -1815895376 -1011797686 -1529631254 1784225058 -581819833 1882897969 206478109 -6074177 1839206557 -375012014 1841059704 -2034249619 -1717855118 -868329562 -1773283449 -2040017310 2071486520 1873570330 467600306 -1048427275 252488558 1866799446 1366864484 1654809397
REM
CELL 1.54180   50.00000   50.00000   50.00000   90.00000   90.00000   90.00000
LATT -1
SFAC C  
C      1  0.4803350000000  0.5174820000000  0.5103250000000 1.0
C      1  0.4448100000000  0.5413510000000  0.4860290000000 1.0
C      1  0.4820450000000  0.5868650000000  0.4396810000000 1.0
C      1  0.4843480000000  0.5637300000000  0.4540790000000 1.0
C      1  0.5704950000000  0.4401910000000  0.5099800000000 1.0
C      1  0.4410460000000  0.4821190000000  0.5326230000000 1.0
C      1  0.4770280000000  0.4467420000000  0.5462760000000 1.0
C      1  0.5049660000000  0.5121140000000  0.5184550000000 1.0
C      1  0.5013210000000  0.4362590000000  0.5445050000000 1.0
C      1  0.6130380000000  0.4439770000000  0.4879660000000 1.0
C      1  0.4064320000000  0.5124050000000  0.5150700000000 1.0
C      1  0.5081160000000  0.5489910000000  0.4535210000000 1.0
C      1  0.5875340000000  0.4530130000000  0.4918730000000 1.0
C      1  0.4629760000000  0.5544940000000  0.4695570000000 1.0
C      1  0.3985350000000  0.5327240000000  0.4989710000000 1.0
C      1  0.4560710000000  0.4624620000000  0.5421520000000 1.0
C      1  0.5779990000000  0.4752640000000  0.4778420000000 1.0
C      1  0.5263770000000  0.4316510000000  0.5371510000000 1.0
C      1  0.5499930000000  0.4330600000000  0.5251830000000 1.0
C      1  0.4169910000000  0.5467490000000  0.4849330000000 1.0
C      1  0.5288450000000  0.5066670000000  0.5285850000000 1.0
C      1  0.5290540000000  0.5328740000000  0.4554900000000 1.0
C      1  0.5522130000000  0.5024170000000  0.5393300000000 1.0
C      1  0.5480770000000  0.5149910000000  0.4600680000000 1.0
C      1  0.5646400000000  0.4956670000000  0.4674760000000 1.0
C      1  0.4531880000000  0.5210600000000  0.5047410000000 1.0
C      1  0.4335260000000  0.5046800000000  0.5181380000000 1.0
END
