TITL C-612604-1799-186 1698878.58179082 125000 -1230.30838075895 0 0 200 (C1) n - 1
REM
REM in /home/nfs/bkarasulu/CARBON/AIRSS/Generating-Clusters/TERSOFF/Only-C1/FIRE-HFTN
REM
REM
REM
REM
REM
REM ./C.cell (11c1c37f851c82e70ff6c80c92926a4b)
REM AIRSS Version 0.9.1 bugfix July 2018 build 013d7b7c2542+ Fri, 06 Jul 2018 19:26:36 +0100
REM compiler GCC version 9.2.1 20190827 (Red Hat 9.2.1-1)
REM options -cpp -mtune=generic -march=x86-64 -g -O0 -fpre-include=/usr/include/finclude/math-vector-fortran.h
REM seed 266593541 1452505976 -1498952044 1394491329 1634736293 108151899 1105794196 -877028497 -1544300695 1415131090 -985784076 -2022927461 -1448301113 936322594 -499919295 -920342462 377957250 -378290486 2035062179 1773528541 -1185964978 -1499839293 -1453387003 1856681990 -1540199441 -1871968909 -215292610 953555598 1727392210 468501725 -1672830007 1243393416 -1949430337
REM
CELL 1.54180   50.00000   50.00000   50.00000   90.00000   90.00000   90.00000
LATT -1
SFAC C  
C      1  0.5283690000000  0.4567220000000  0.4739460000000 1.0
C      1  0.5421030000000  0.5304450000000  0.4753590000000 1.0
C      1  0.5482750000000  0.4373640000000  0.4864250000000 1.0
C      1  0.4226960000000  0.4724360000000  0.5075690000000 1.0
C      1  0.6050440000000  0.4424030000000  0.5219660000000 1.0
C      1  0.4788070000000  0.5611840000000  0.4657710000000 1.0
C      1  0.6124620000000  0.5067560000000  0.4721300000000 1.0
C      1  0.5485970000000  0.5917090000000  0.5524560000000 1.0
C      1  0.5729310000000  0.3861530000000  0.4947350000000 1.0
C      1  0.5215190000000  0.3891940000000  0.4902640000000 1.0
C      1  0.5089610000000  0.5823940000000  0.5137920000000 1.0
C      1  0.5369890000000  0.4704440000000  0.5188170000000 1.0
C      1  0.5720630000000  0.4648110000000  0.5489510000000 1.0
C      1  0.5916840000000  0.5910980000000  0.5300440000000 1.0
C      1  0.4588270000000  0.4651180000000  0.5550660000000 1.0
C      1  0.5585530000000  0.3883200000000  0.5455270000000 1.0
C      1  0.4266980000000  0.6076980000000  0.4952720000000 1.0
C      1  0.5546570000000  0.5315130000000  0.5194690000000 1.0
C      1  0.5748550000000  0.5066630000000  0.3996770000000 1.0
C      1  0.5283770000000  0.4985000000000  0.4245190000000 1.0
C      1  0.5824140000000  0.5329360000000  0.4455570000000 1.0
C      1  0.5805800000000  0.5912010000000  0.5037670000000 1.0
C      1  0.5472870000000  0.5430570000000  0.5977710000000 1.0
C      1  0.4564110000000  0.4939730000000  0.5951800000000 1.0
C      1  0.4186210000000  0.5871390000000  0.4762090000000 1.0
C      1  0.5724910000000  0.5077290000000  0.5147900000000 1.0
C      1  0.5063590000000  0.5634810000000  0.4555240000000 1.0
C      1  0.5508940000000  0.4020770000000  0.4551160000000 1.0
C      1  0.5758660000000  0.5808550000000  0.5521030000000 1.0
C      1  0.4439940000000  0.4903680000000  0.5654430000000 1.0
C      1  0.5462550000000  0.4889650000000  0.5895780000000 1.0
C      1  0.5236250000000  0.4814870000000  0.6048790000000 1.0
C      1  0.5017340000000  0.5688470000000  0.5628300000000 1.0
C      1  0.4412290000000  0.5960810000000  0.5448070000000 1.0
C      1  0.4434940000000  0.5245320000000  0.4365370000000 1.0
C      1  0.5157680000000  0.4067990000000  0.5122150000000 1.0
C      1  0.4006500000000  0.5242860000000  0.5290940000000 1.0
C      1  0.4805670000000  0.3921180000000  0.4287660000000 1.0
C      1  0.4826190000000  0.4468110000000  0.4627420000000 1.0
C      1  0.4749290000000  0.4833640000000  0.4367040000000 1.0
C      1  0.4297220000000  0.4610650000000  0.4466930000000 1.0
C      1  0.4709960000000  0.6098670000000  0.5111630000000 1.0
C      1  0.5291060000000  0.5368870000000  0.3889490000000 1.0
C      1  0.5488260000000  0.4815020000000  0.5427020000000 1.0
C      1  0.4236330000000  0.5123260000000  0.4205710000000 1.0
C      1  0.6132950000000  0.5418070000000  0.5113220000000 1.0
C      1  0.5542730000000  0.4466020000000  0.5121620000000 1.0
C      1  0.5214900000000  0.4807910000000  0.4930630000000 1.0
C      1  0.4303670000000  0.5250180000000  0.5210900000000 1.0
C      1  0.4020960000000  0.5666160000000  0.4896830000000 1.0
C      1  0.4399820000000  0.5159660000000  0.4939150000000 1.0
C      1  0.5408060000000  0.4208910000000  0.5778470000000 1.0
C      1  0.5048260000000  0.3904960000000  0.4435340000000 1.0
C      1  0.3813070000000  0.5185230000000  0.5098080000000 1.0
C      1  0.4696680000000  0.5803990000000  0.4048390000000 1.0
C      1  0.5298340000000  0.4037870000000  0.4358080000000 1.0
C      1  0.3781950000000  0.4487710000000  0.5520080000000 1.0
C      1  0.4958810000000  0.5171700000000  0.4796330000000 1.0
C      1  0.5625450000000  0.4264800000000  0.4634940000000 1.0
C      1  0.5529380000000  0.5761750000000  0.4138760000000 1.0
C      1  0.5738460000000  0.4583540000000  0.4115190000000 1.0
C      1  0.4373230000000  0.5456170000000  0.4545080000000 1.0
C      1  0.5141050000000  0.5119370000000  0.5598890000000 1.0
C      1  0.5666320000000  0.4333760000000  0.5827910000000 1.0
C      1  0.5207050000000  0.4329040000000  0.5936640000000 1.0
C      1  0.4977010000000  0.6103260000000  0.4348820000000 1.0
C      1  0.5047830000000  0.6294460000000  0.4786210000000 1.0
C      1  0.5670120000000  0.4928560000000  0.4914110000000 1.0
C      1  0.5724590000000  0.5363470000000  0.5819980000000 1.0
C      1  0.4506340000000  0.4065490000000  0.4658800000000 1.0
C      1  0.5045200000000  0.4625730000000  0.5488480000000 1.0
C      1  0.4145100000000  0.5683110000000  0.5177290000000 1.0
C      1  0.5354690000000  0.4012610000000  0.5564300000000 1.0
C      1  0.4705550000000  0.6024030000000  0.5869340000000 1.0
C      1  0.5338810000000  0.5453070000000  0.4999830000000 1.0
C      1  0.4779910000000  0.5093710000000  0.6064470000000 1.0
C      1  0.4857480000000  0.3840420000000  0.5376370000000 1.0
C      1  0.6062990000000  0.4263220000000  0.4773300000000 1.0
C      1  0.5019230000000  0.5267870000000  0.3834300000000 1.0
C      1  0.4473680000000  0.5152590000000  0.5465980000000 1.0
C      1  0.5397550000000  0.4994520000000  0.5629000000000 1.0
C      1  0.5801070000000  0.4792040000000  0.3921430000000 1.0
C      1  0.4626590000000  0.5827390000000  0.4521230000000 1.0
C      1  0.4714720000000  0.3920350000000  0.4837620000000 1.0
C      1  0.5924920000000  0.5792160000000  0.4810220000000 1.0
C      1  0.4162000000000  0.5552080000000  0.5627170000000 1.0
C      1  0.4890800000000  0.4525100000000  0.6246850000000 1.0
C      1  0.4750930000000  0.4376740000000  0.4365550000000 1.0
C      1  0.5338630000000  0.4252810000000  0.4171160000000 1.0
C      1  0.4441470000000  0.4710660000000  0.6100400000000 1.0
C      1  0.5024400000000  0.4313510000000  0.5063870000000 1.0
C      1  0.3971950000000  0.5189440000000  0.4277110000000 1.0
C      1  0.4352030000000  0.5754540000000  0.4559960000000 1.0
C      1  0.4439290000000  0.6100240000000  0.5186970000000 1.0
C      1  0.4663730000000  0.5337530000000  0.3879640000000 1.0
C      1  0.4911420000000  0.4888230000000  0.4886390000000 1.0
C      1  0.6191570000000  0.4378350000000  0.4995940000000 1.0
C      1  0.5037410000000  0.4405550000000  0.4791530000000 1.0
C      1  0.6016510000000  0.4882330000000  0.4448440000000 1.0
C      1  0.4396590000000  0.5538310000000  0.5176040000000 1.0
C      1  0.5873870000000  0.4445160000000  0.4618550000000 1.0
C      1  0.5393960000000  0.5706130000000  0.5933800000000 1.0
C      1  0.4440710000000  0.4758100000000  0.4671170000000 1.0
C      1  0.5319520000000  0.5762190000000  0.4955910000000 1.0
C      1  0.5786600000000  0.5073080000000  0.4303520000000 1.0
C      1  0.5494850000000  0.4713530000000  0.4563880000000 1.0
C      1  0.4174340000000  0.5792550000000  0.5458160000000 1.0
C      1  0.5957700000000  0.3995670000000  0.4828590000000 1.0
C      1  0.4972930000000  0.4715530000000  0.3988300000000 1.0
C      1  0.5047520000000  0.5340360000000  0.5016420000000 1.0
C      1  0.5407190000000  0.5032420000000  0.4836840000000 1.0
C      1  0.5119740000000  0.3971750000000  0.5390860000000 1.0
C      1  0.5076980000000  0.5044980000000  0.6092080000000 1.0
C      1  0.4155850000000  0.4774310000000  0.5721190000000 1.0
C      1  0.4734520000000  0.5120900000000  0.5312870000000 1.0
C      1  0.4760030000000  0.4887350000000  0.5148580000000 1.0
C      1  0.4674590000000  0.5596330000000  0.5188760000000 1.0
C      1  0.4585900000000  0.5041810000000  0.3886670000000 1.0
C      1  0.4689320000000  0.5112760000000  0.4385930000000 1.0
C      1  0.5749930000000  0.4855790000000  0.5886370000000 1.0
C      1  0.4662990000000  0.4622060000000  0.5257500000000 1.0
C      1  0.5775060000000  0.4590230000000  0.5761480000000 1.0
C      1  0.4859110000000  0.6292960000000  0.4977530000000 1.0
C      1  0.5933970000000  0.4588030000000  0.4351880000000 1.0
C      1  0.5280580000000  0.5811080000000  0.5694680000000 1.0
C      1  0.3795340000000  0.4276260000000  0.5349190000000 1.0
C      1  0.4407190000000  0.5394350000000  0.5657330000000 1.0
C      1  0.5012730000000  0.5483300000000  0.6200250000000 1.0
C      1  0.5870160000000  0.5099900000000  0.5768970000000 1.0
C      1  0.4922440000000  0.5199360000000  0.4518340000000 1.0
C      1  0.4207900000000  0.4607140000000  0.5959660000000 1.0
C      1  0.5708970000000  0.5861530000000  0.4315240000000 1.0
C      1  0.3952870000000  0.5375340000000  0.5539280000000 1.0
C      1  0.4254670000000  0.5618290000000  0.4027090000000 1.0
C      1  0.4924210000000  0.4474120000000  0.5275230000000 1.0
C      1  0.4990190000000  0.3868810000000  0.4720050000000 1.0
C      1  0.4238200000000  0.4196770000000  0.4747490000000 1.0
C      1  0.5127270000000  0.6104800000000  0.4593680000000 1.0
C      1  0.3828890000000  0.5175660000000  0.4815220000000 1.0
C      1  0.5525420000000  0.5953540000000  0.5055050000000 1.0
C      1  0.6156740000000  0.5114590000000  0.5033960000000 1.0
C      1  0.4536290000000  0.5583420000000  0.3962050000000 1.0
C      1  0.5123970000000  0.4552710000000  0.6088800000000 1.0
C      1  0.6043550000000  0.5342050000000  0.4638330000000 1.0
C      1  0.5845480000000  0.5552800000000  0.5609700000000 1.0
C      1  0.3825800000000  0.4901510000000  0.4706530000000 1.0
C      1  0.5231890000000  0.5305810000000  0.6113900000000 1.0
C      1  0.5847560000000  0.5874150000000  0.4547200000000 1.0
C      1  0.4708620000000  0.3870900000000  0.5125510000000 1.0
C      1  0.4751550000000  0.5941160000000  0.4289940000000 1.0
C      1  0.3904740000000  0.5443450000000  0.4701720000000 1.0
C      1  0.4272900000000  0.4142820000000  0.5748930000000 1.0
C      1  0.4313220000000  0.4676920000000  0.4185440000000 1.0
C      1  0.4816260000000  0.5839970000000  0.5148360000000 1.0
C      1  0.3926660000000  0.5448800000000  0.4401740000000 1.0
C      1  0.4735250000000  0.4745680000000  0.4660010000000 1.0
C      1  0.5442140000000  0.6086710000000  0.5299010000000 1.0
C      1  0.4982310000000  0.4886130000000  0.5561280000000 1.0
C      1  0.4762250000000  0.5368160000000  0.6162080000000 1.0
C      1  0.6021810000000  0.5127910000000  0.5513690000000 1.0
C      1  0.4711350000000  0.5882680000000  0.5640650000000 1.0
C      1  0.6043170000000  0.5419300000000  0.5424890000000 1.0
C      1  0.4801680000000  0.4606300000000  0.4191070000000 1.0
C      1  0.5984040000000  0.5008420000000  0.5252780000000 1.0
C      1  0.5212620000000  0.5842470000000  0.4682180000000 1.0
C      1  0.4358660000000  0.4926330000000  0.4036940000000 1.0
C      1  0.5782980000000  0.4471530000000  0.5279070000000 1.0
C      1  0.5519720000000  0.4931010000000  0.4388640000000 1.0
C      1  0.4121770000000  0.4116140000000  0.5003840000000 1.0
C      1  0.5140700000000  0.5215660000000  0.4341740000000 1.0
C      1  0.4843800000000  0.5365520000000  0.5208920000000 1.0
C      1  0.4626420000000  0.4120850000000  0.4386950000000 1.0
C      1  0.5242380000000  0.4741820000000  0.4081150000000 1.0
C      1  0.5175490000000  0.5500170000000  0.4326290000000 1.0
C      1  0.4767660000000  0.3677070000000  0.5576800000000 1.0
C      1  0.5538850000000  0.5217940000000  0.3866260000000 1.0
C      1  0.5735690000000  0.4703250000000  0.4749500000000 1.0
C      1  0.4168480000000  0.4041140000000  0.5505160000000 1.0
C      1  0.5481580000000  0.3864510000000  0.4794080000000 1.0
C      1  0.4110220000000  0.4439710000000  0.4611940000000 1.0
C      1  0.4656650000000  0.4423930000000  0.5705660000000 1.0
C      1  0.5441850000000  0.4515750000000  0.4110090000000 1.0
C      1  0.5712170000000  0.3823140000000  0.5226320000000 1.0
C      1  0.4322580000000  0.4899250000000  0.4876470000000 1.0
C      1  0.4418340000000  0.4525990000000  0.5134610000000 1.0
C      1  0.5361660000000  0.6346050000000  0.5315780000000 1.0
C      1  0.4861570000000  0.4937450000000  0.3849980000000 1.0
C      1  0.4567900000000  0.5404700000000  0.4761000000000 1.0
C      1  0.5582750000000  0.5420670000000  0.4562970000000 1.0
C      1  0.6060070000000  0.5542460000000  0.4851900000000 1.0
C      1  0.4143860000000  0.4329840000000  0.5924750000000 1.0
C      1  0.4043780000000  0.5631650000000  0.4204240000000 1.0
C      1  0.3963910000000  0.4704910000000  0.5522120000000 1.0
C      1  0.4030700000000  0.4777260000000  0.5260440000000 1.0
C      1  0.4552390000000  0.4181680000000  0.5754450000000 1.0
C      1  0.5045510000000  0.5394440000000  0.5613980000000 1.0
C      1  0.3890320000000  0.4631760000000  0.4679420000000 1.0
C      1  0.4022850000000  0.4121930000000  0.5273880000000 1.0
C      1  0.4625870000000  0.4569430000000  0.6260020000000 1.0
C      1  0.5316190000000  0.5578930000000  0.4094230000000 1.0
END
