TITL C-612603-7354-1372 0.356568702580175 125000 -1197.19782084142 0 0 196 (C1) n - 1
REM
REM in /home/nfs/bkarasulu/CARBON/AIRSS/Generating-Clusters/TERSOFF/Only-C1/FIRE-HFTN
REM
REM
REM
REM
REM
REM ./C.cell (11c1c37f851c82e70ff6c80c92926a4b)
REM AIRSS Version 0.9.1 bugfix July 2018 build 013d7b7c2542+ Fri, 06 Jul 2018 19:26:36 +0100
REM compiler GCC version 9.2.1 20190827 (Red Hat 9.2.1-1)
REM options -cpp -mtune=generic -march=x86-64 -g -O0 -fpre-include=/usr/include/finclude/math-vector-fortran.h
REM seed 1865788659 369201125 -1932370675 1552278117 209745443 -1089675309 -2139060828 -2002671467 -1778787858 372309199 -1438562527 -2084547350 17305576 578622522 1658004918 -1253191406 395660553 -1236041680 -1149881734 -1091616288 -1897462405 -376434293 -1402214788 198114131 1391049684 -1826187901 402144772 -1953631760 -606759635 1493236592 -1631792494 -702130942 -11656744
REM
CELL 1.54180   50.00000   50.00000   50.00000   90.00000   90.00000   90.00000
LATT -1
SFAC C  
C      1  0.4917430000000  0.5669970000000  0.5670590000000 1.0
C      1  0.5873940000000  0.5349070000000  0.5979170000000 1.0
C      1  0.5473520000000  0.5108050000000  0.6141500000000 1.0
C      1  0.4503520000000  0.6052680000000  0.5623250000000 1.0
C      1  0.4995510000000  0.5545950000000  0.4553780000000 1.0
C      1  0.5905500000000  0.5345820000000  0.4319320000000 1.0
C      1  0.6185270000000  0.4615370000000  0.4980630000000 1.0
C      1  0.5194700000000  0.5979500000000  0.5416060000000 1.0
C      1  0.4791210000000  0.4485910000000  0.4965980000000 1.0
C      1  0.5411560000000  0.4806010000000  0.5776670000000 1.0
C      1  0.5835230000000  0.7101210000000  0.4910140000000 1.0
C      1  0.4046500000000  0.4910120000000  0.4009120000000 1.0
C      1  0.5385880000000  0.5846910000000  0.5261550000000 1.0
C      1  0.5465690000000  0.5335400000000  0.3994760000000 1.0
C      1  0.5641590000000  0.5197240000000  0.5251280000000 1.0
C      1  0.5734180000000  0.6135150000000  0.4655560000000 1.0
C      1  0.6041540000000  0.6037630000000  0.5010120000000 1.0
C      1  0.5250180000000  0.5101320000000  0.4907270000000 1.0
C      1  0.3941620000000  0.4497600000000  0.5589820000000 1.0
C      1  0.6105350000000  0.5174000000000  0.5081570000000 1.0
C      1  0.6176660000000  0.4490720000000  0.5234470000000 1.0
C      1  0.4685990000000  0.5281200000000  0.6148260000000 1.0
C      1  0.5544520000000  0.4966640000000  0.4589500000000 1.0
C      1  0.4684380000000  0.5310340000000  0.3879200000000 1.0
C      1  0.4451290000000  0.5602120000000  0.5013550000000 1.0
C      1  0.4515970000000  0.5154020000000  0.5268630000000 1.0
C      1  0.4727500000000  0.5452690000000  0.5628290000000 1.0
C      1  0.5407750000000  0.6797310000000  0.4946400000000 1.0
C      1  0.4653190000000  0.4258310000000  0.5047750000000 1.0
C      1  0.3927770000000  0.4844600000000  0.5161560000000 1.0
C      1  0.5384280000000  0.5710750000000  0.5834110000000 1.0
C      1  0.5107150000000  0.3951350000000  0.4471160000000 1.0
C      1  0.5868090000000  0.4772840000000  0.4191300000000 1.0
C      1  0.3900350000000  0.4132010000000  0.4685320000000 1.0
C      1  0.5259450000000  0.5538350000000  0.4442430000000 1.0
C      1  0.5419990000000  0.3934160000000  0.5541430000000 1.0
C      1  0.5454770000000  0.5186140000000  0.4736640000000 1.0
C      1  0.5461570000000  0.5454850000000  0.4634070000000 1.0
C      1  0.4747730000000  0.5134420000000  0.4405850000000 1.0
C      1  0.5875070000000  0.4895300000000  0.5828550000000 1.0
C      1  0.5622030000000  0.6952300000000  0.4928550000000 1.0
C      1  0.5007860000000  0.3705920000000  0.4564450000000 1.0
C      1  0.4389050000000  0.4807110000000  0.4512680000000 1.0
C      1  0.4821930000000  0.4123680000000  0.6051710000000 1.0
C      1  0.4832540000000  0.4630240000000  0.5701430000000 1.0
C      1  0.4425340000000  0.4638710000000  0.5402920000000 1.0
C      1  0.5564860000000  0.3966520000000  0.4180880000000 1.0
C      1  0.5810490000000  0.3865740000000  0.4926540000000 1.0
C      1  0.4580180000000  0.4044380000000  0.4903930000000 1.0
C      1  0.6005860000000  0.5367480000000  0.4863780000000 1.0
C      1  0.3659160000000  0.5902630000000  0.4714920000000 1.0
C      1  0.4097650000000  0.5340800000000  0.4302240000000 1.0
C      1  0.4438910000000  0.6274660000000  0.5091710000000 1.0
C      1  0.3782030000000  0.5682090000000  0.4795560000000 1.0
C      1  0.4430710000000  0.5654000000000  0.4233950000000 1.0
C      1  0.5192050000000  0.4983890000000  0.5169510000000 1.0
C      1  0.5313330000000  0.4368450000000  0.6039270000000 1.0
C      1  0.4512390000000  0.4996590000000  0.5746880000000 1.0
C      1  0.5761210000000  0.4354250000000  0.5821010000000 1.0
C      1  0.4431150000000  0.5577520000000  0.4520210000000 1.0
C      1  0.3762610000000  0.4792730000000  0.4682070000000 1.0
C      1  0.3970780000000  0.4774580000000  0.4877210000000 1.0
C      1  0.4082660000000  0.5296220000000  0.5019070000000 1.0
C      1  0.4999890000000  0.5125900000000  0.4782720000000 1.0
C      1  0.4813080000000  0.5030720000000  0.4954280000000 1.0
C      1  0.5073610000000  0.4979430000000  0.3786270000000 1.0
C      1  0.4263130000000  0.5448910000000  0.4088450000000 1.0
C      1  0.5321460000000  0.5142870000000  0.3813840000000 1.0
C      1  0.4553900000000  0.4175820000000  0.5969210000000 1.0
C      1  0.5200180000000  0.4485350000000  0.4643460000000 1.0
C      1  0.4961730000000  0.4121080000000  0.4282380000000 1.0
C      1  0.5644370000000  0.5700100000000  0.5770420000000 1.0
C      1  0.4224740000000  0.4749760000000  0.4741090000000 1.0
C      1  0.4301320000000  0.5306970000000  0.4508660000000 1.0
C      1  0.6013500000000  0.5319440000000  0.4572500000000 1.0
C      1  0.5252490000000  0.5251860000000  0.5523890000000 1.0
C      1  0.4936220000000  0.5899920000000  0.5495820000000 1.0
C      1  0.4891530000000  0.3873860000000  0.6139190000000 1.0
C      1  0.5299810000000  0.5035390000000  0.5693250000000 1.0
C      1  0.5721130000000  0.5246740000000  0.4117460000000 1.0
C      1  0.5843730000000  0.3978320000000  0.4662400000000 1.0
C      1  0.5846930000000  0.5605570000000  0.4918180000000 1.0
C      1  0.4676790000000  0.4186050000000  0.4245570000000 1.0
C      1  0.4462590000000  0.4781080000000  0.3798590000000 1.0
C      1  0.5531350000000  0.4447340000000  0.5400590000000 1.0
C      1  0.5031780000000  0.6426710000000  0.4966820000000 1.0
C      1  0.6186310000000  0.4905260000000  0.4987300000000 1.0
C      1  0.5452420000000  0.4324900000000  0.4659040000000 1.0
C      1  0.5023910000000  0.5767940000000  0.6139060000000 1.0
C      1  0.4813930000000  0.4621500000000  0.4469040000000 1.0
C      1  0.5417430000000  0.4213050000000  0.4101370000000 1.0
C      1  0.4255960000000  0.5663060000000  0.5508210000000 1.0
C      1  0.4959440000000  0.5234110000000  0.6217630000000 1.0
C      1  0.3541930000000  0.6119970000000  0.4631380000000 1.0
C      1  0.4512340000000  0.4837920000000  0.5221010000000 1.0
C      1  0.4310750000000  0.4248010000000  0.5880030000000 1.0
C      1  0.5105960000000  0.3961490000000  0.5109930000000 1.0
C      1  0.4989790000000  0.5976900000000  0.4795050000000 1.0
C      1  0.4710940000000  0.6056710000000  0.5428420000000 1.0
C      1  0.6141640000000  0.4428060000000  0.4764780000000 1.0
C      1  0.5557350000000  0.4238610000000  0.5985790000000 1.0
C      1  0.5672210000000  0.4969850000000  0.4156810000000 1.0
C      1  0.6028230000000  0.4355060000000  0.5408410000000 1.0
C      1  0.5189110000000  0.4211530000000  0.5022470000000 1.0
C      1  0.3867380000000  0.4827340000000  0.4191240000000 1.0
C      1  0.5463390000000  0.4288080000000  0.4962540000000 1.0
C      1  0.5888930000000  0.5818500000000  0.5106290000000 1.0
C      1  0.5626210000000  0.4399470000000  0.4070970000000 1.0
C      1  0.4360490000000  0.5827300000000  0.5721210000000 1.0
C      1  0.5280620000000  0.5651590000000  0.5100240000000 1.0
C      1  0.5261630000000  0.6000170000000  0.4707010000000 1.0
C      1  0.3963830000000  0.5133450000000  0.5209710000000 1.0
C      1  0.4400580000000  0.5254900000000  0.3920710000000 1.0
C      1  0.5536440000000  0.5934990000000  0.4684070000000 1.0
C      1  0.4678490000000  0.4612450000000  0.3884500000000 1.0
C      1  0.5055680000000  0.5203610000000  0.5325180000000 1.0
C      1  0.5571710000000  0.4491120000000  0.5123050000000 1.0
C      1  0.5318440000000  0.5511500000000  0.4165910000000 1.0
C      1  0.5096220000000  0.4577070000000  0.4380970000000 1.0
C      1  0.4482770000000  0.4083210000000  0.4435640000000 1.0
C      1  0.3925550000000  0.5472440000000  0.4871100000000 1.0
C      1  0.4895280000000  0.6180390000000  0.4974960000000 1.0
C      1  0.4553790000000  0.5066210000000  0.6018020000000 1.0
C      1  0.5766850000000  0.4525070000000  0.4278930000000 1.0
C      1  0.5868160000000  0.4614420000000  0.5879960000000 1.0
C      1  0.4553230000000  0.4622350000000  0.4365110000000 1.0
C      1  0.5257070000000  0.4398040000000  0.5500420000000 1.0
C      1  0.3827420000000  0.5343030000000  0.4315310000000 1.0
C      1  0.5106920000000  0.5693300000000  0.5888440000000 1.0
C      1  0.5371130000000  0.4042990000000  0.4567970000000 1.0
C      1  0.3900380000000  0.4974640000000  0.5622090000000 1.0
C      1  0.5164930000000  0.4856670000000  0.4282610000000 1.0
C      1  0.4384790000000  0.4071770000000  0.4704000000000 1.0
C      1  0.5959280000000  0.6184260000000  0.4797130000000 1.0
C      1  0.6008820000000  0.4989760000000  0.5582820000000 1.0
C      1  0.5623400000000  0.3938910000000  0.4463990000000 1.0
C      1  0.4565250000000  0.4726490000000  0.5647040000000 1.0
C      1  0.4362880000000  0.5326630000000  0.5059780000000 1.0
C      1  0.3894690000000  0.4737780000000  0.5447480000000 1.0
C      1  0.5741020000000  0.5097470000000  0.6004380000000 1.0
C      1  0.4802280000000  0.5206650000000  0.5191630000000 1.0
C      1  0.5015880000000  0.4331520000000  0.6042960000000 1.0
C      1  0.4419900000000  0.5712450000000  0.5975030000000 1.0
C      1  0.3976740000000  0.4050530000000  0.5267390000000 1.0
C      1  0.3720560000000  0.4214930000000  0.4507590000000 1.0
C      1  0.4601520000000  0.4453430000000  0.4124670000000 1.0
C      1  0.5157130000000  0.4325600000000  0.4196170000000 1.0
C      1  0.5438800000000  0.4931550000000  0.4323590000000 1.0
C      1  0.5667770000000  0.4505240000000  0.4550820000000 1.0
C      1  0.5205790000000  0.6626330000000  0.4960260000000 1.0
C      1  0.5663230000000  0.4726310000000  0.4998320000000 1.0
C      1  0.5037340000000  0.4588340000000  0.5488950000000 1.0
C      1  0.5680980000000  0.3996600000000  0.5440370000000 1.0
C      1  0.4292710000000  0.4988070000000  0.3890600000000 1.0
C      1  0.4288270000000  0.4417790000000  0.5272370000000 1.0
C      1  0.6033400000000  0.4199050000000  0.4660710000000 1.0
C      1  0.4550500000000  0.5531270000000  0.6127700000000 1.0
C      1  0.4219530000000  0.5379880000000  0.5559410000000 1.0
C      1  0.4908810000000  0.4604640000000  0.5979700000000 1.0
C      1  0.4642910000000  0.5752580000000  0.4075670000000 1.0
C      1  0.6021300000000  0.5459550000000  0.5527080000000 1.0
C      1  0.4945050000000  0.4707280000000  0.3781890000000 1.0
C      1  0.4094050000000  0.4352290000000  0.5759040000000 1.0
C      1  0.3737640000000  0.4705730000000  0.4411090000000 1.0
C      1  0.5224140000000  0.4122430000000  0.5570490000000 1.0
C      1  0.4753810000000  0.5586860000000  0.3890440000000 1.0
C      1  0.5492190000000  0.5348050000000  0.5413340000000 1.0
C      1  0.4983440000000  0.3596840000000  0.4808610000000 1.0
C      1  0.5178760000000  0.5057060000000  0.6177160000000 1.0
C      1  0.5665070000000  0.5878960000000  0.5269370000000 1.0
C      1  0.4335050000000  0.5740140000000  0.5239010000000 1.0
C      1  0.5668000000000  0.4744510000000  0.4713090000000 1.0
C      1  0.5775430000000  0.3885810000000  0.5194110000000 1.0
C      1  0.3999270000000  0.5208120000000  0.5490700000000 1.0
C      1  0.5103340000000  0.4788770000000  0.6100490000000 1.0
C      1  0.4473910000000  0.5080900000000  0.4479080000000 1.0
C      1  0.5692120000000  0.4956410000000  0.5151120000000 1.0
C      1  0.4137340000000  0.4220590000000  0.5117510000000 1.0
C      1  0.5042420000000  0.4411850000000  0.4868160000000 1.0
C      1  0.5031840000000  0.3712490000000  0.5046280000000 1.0
C      1  0.5028020000000  0.4754070000000  0.5253490000000 1.0
C      1  0.4924560000000  0.5024440000000  0.4214220000000 1.0
C      1  0.4847190000000  0.5745370000000  0.4705720000000 1.0
C      1  0.4897730000000  0.5284850000000  0.4584790000000 1.0
C      1  0.6070830000000  0.5207440000000  0.5389960000000 1.0
C      1  0.5766070000000  0.4280480000000  0.5526580000000 1.0
C      1  0.5344920000000  0.4654720000000  0.6006150000000 1.0
C      1  0.5869870000000  0.5531150000000  0.5761410000000 1.0
C      1  0.4568640000000  0.5670980000000  0.4755940000000 1.0
C      1  0.4494020000000  0.5239280000000  0.5561210000000 1.0
C      1  0.4882170000000  0.5122350000000  0.3950180000000 1.0
C      1  0.3647630000000  0.4440230000000  0.4383210000000 1.0
C      1  0.4768830000000  0.4759660000000  0.5077120000000 1.0
C      1  0.4680130000000  0.6163940000000  0.5164160000000 1.0
C      1  0.4139170000000  0.4157480000000  0.4828850000000 1.0
C      1  0.5625280000000  0.5662130000000  0.4736390000000 1.0
END
