TITL C-612601-4209-959 126737.954105627 125000 -721.814196595117 0 0 120 (C1) n - 1
REM
REM in /home/nfs/bkarasulu/CARBON/AIRSS/Generating-Clusters/TERSOFF/Only-C1/FIRE-HFTN
REM
REM
REM
REM
REM
REM ./C.cell (11c1c37f851c82e70ff6c80c92926a4b)
REM AIRSS Version 0.9.1 bugfix July 2018 build 013d7b7c2542+ Fri, 06 Jul 2018 19:26:36 +0100
REM compiler GCC version 9.2.1 20190827 (Red Hat 9.2.1-1)
REM options -cpp -mtune=generic -march=x86-64 -g -O0 -fpre-include=/usr/include/finclude/math-vector-fortran.h
REM seed 1349110427 1943649599 1116483115 -308508911 2044596352 1073874796 504103067 87050836 499036260 -115977065 1527249651 46984868 766466716 -604210774 -169019026 1535508131 1611225755 1608032275 1309131875 225773769 1101827017 -868805548 -624952061 -2014297397 1853393696 19187062 1794115163 423449870 1553445781 -737306940 -1974780942 -1629223121 103684667
REM
CELL 1.54180   50.00000   50.00000   50.00000   90.00000   90.00000   90.00000
LATT -1
SFAC C  
C      1  0.5069020000000  0.5286840000000  0.5881170000000 1.0
C      1  0.5293470000000  0.4054420000000  0.5032960000000 1.0
C      1  0.4942260000000  0.4979930000000  0.5500290000000 1.0
C      1  0.4526040000000  0.5519630000000  0.4436850000000 1.0
C      1  0.4568650000000  0.4580440000000  0.5228480000000 1.0
C      1  0.4601730000000  0.5768590000000  0.5416270000000 1.0
C      1  0.5021280000000  0.5843700000000  0.4716760000000 1.0
C      1  0.5967110000000  0.4995700000000  0.5289410000000 1.0
C      1  0.4884210000000  0.5053930000000  0.4141460000000 1.0
C      1  0.5115410000000  0.5174930000000  0.5622470000000 1.0
C      1  0.5791930000000  0.4967850000000  0.4348120000000 1.0
C      1  0.4082610000000  0.5518500000000  0.4905430000000 1.0
C      1  0.4728730000000  0.5913010000000  0.4724970000000 1.0
C      1  0.3965500000000  0.5399130000000  0.4408610000000 1.0
C      1  0.4541960000000  0.5390710000000  0.4178360000000 1.0
C      1  0.5511090000000  0.4235700000000  0.4344450000000 1.0
C      1  0.5124760000000  0.5336570000000  0.4664260000000 1.0
C      1  0.4677990000000  0.5120220000000  0.5530890000000 1.0
C      1  0.4864700000000  0.4605820000000  0.4224550000000 1.0
C      1  0.5371380000000  0.4511990000000  0.5622090000000 1.0
C      1  0.5237150000000  0.4859990000000  0.4718500000000 1.0
C      1  0.3933080000000  0.5293410000000  0.5000040000000 1.0
C      1  0.4835070000000  0.4924940000000  0.6152870000000 1.0
C      1  0.4684810000000  0.5418370000000  0.4649470000000 1.0
C      1  0.4078240000000  0.5564680000000  0.4612210000000 1.0
C      1  0.5310430000000  0.4327800000000  0.5133630000000 1.0
C      1  0.5894490000000  0.5381160000000  0.4699890000000 1.0
C      1  0.5118560000000  0.5563370000000  0.5906130000000 1.0
C      1  0.4590290000000  0.4771040000000  0.6045690000000 1.0
C      1  0.5605460000000  0.5433020000000  0.5806620000000 1.0
C      1  0.4798120000000  0.4252900000000  0.4498860000000 1.0
C      1  0.4747570000000  0.5709940000000  0.5650660000000 1.0
C      1  0.4733230000000  0.4377410000000  0.5702210000000 1.0
C      1  0.5558210000000  0.4874650000000  0.5072550000000 1.0
C      1  0.4593180000000  0.5291810000000  0.5313650000000 1.0
C      1  0.5415250000000  0.3999000000000  0.4771140000000 1.0
C      1  0.5935350000000  0.5376570000000  0.5002050000000 1.0
C      1  0.5532300000000  0.5058960000000  0.5489800000000 1.0
C      1  0.5904310000000  0.5106770000000  0.4580080000000 1.0
C      1  0.4072770000000  0.5172540000000  0.4258970000000 1.0
C      1  0.3927700000000  0.5036390000000  0.4880470000000 1.0
C      1  0.4327000000000  0.5650900000000  0.5019710000000 1.0
C      1  0.5094710000000  0.5839650000000  0.5008250000000 1.0
C      1  0.5582450000000  0.5085730000000  0.4187020000000 1.0
C      1  0.4992490000000  0.3964980000000  0.5792420000000 1.0
C      1  0.4986360000000  0.5582710000000  0.5076050000000 1.0
C      1  0.5681480000000  0.4440460000000  0.4294670000000 1.0
C      1  0.4756440000000  0.5470130000000  0.4926050000000 1.0
C      1  0.3792480000000  0.4782240000000  0.4869210000000 1.0
C      1  0.5227700000000  0.5923370000000  0.5251490000000 1.0
C      1  0.6042570000000  0.5108480000000  0.5043860000000 1.0
C      1  0.5749220000000  0.4759240000000  0.4886670000000 1.0
C      1  0.4049300000000  0.4619590000000  0.4456760000000 1.0
C      1  0.5296260000000  0.4774060000000  0.6068620000000 1.0
C      1  0.5264600000000  0.5774170000000  0.5498380000000 1.0
C      1  0.5040710000000  0.5729720000000  0.5686140000000 1.0
C      1  0.4056590000000  0.4922070000000  0.4408940000000 1.0
C      1  0.5800950000000  0.4681630000000  0.4321850000000 1.0
C      1  0.4977440000000  0.4801070000000  0.4034540000000 1.0
C      1  0.4584980000000  0.4503870000000  0.5497430000000 1.0
C      1  0.4829890000000  0.4069800000000  0.5341180000000 1.0
C      1  0.4273930000000  0.4424830000000  0.4430310000000 1.0
C      1  0.4306390000000  0.5242330000000  0.4108360000000 1.0
C      1  0.5693070000000  0.4488360000000  0.4852270000000 1.0
C      1  0.4733930000000  0.5195080000000  0.5059260000000 1.0
C      1  0.4328310000000  0.5694190000000  0.4547360000000 1.0
C      1  0.5235520000000  0.4806580000000  0.3923470000000 1.0
C      1  0.4875670000000  0.5228930000000  0.4585520000000 1.0
C      1  0.5433120000000  0.4708310000000  0.5818300000000 1.0
C      1  0.5409300000000  0.4462610000000  0.4895990000000 1.0
C      1  0.4397460000000  0.4973100000000  0.4720030000000 1.0
C      1  0.5032590000000  0.5501390000000  0.4078200000000 1.0
C      1  0.5024760000000  0.4711080000000  0.6097240000000 1.0
C      1  0.5831180000000  0.4244890000000  0.4819380000000 1.0
C      1  0.4774810000000  0.4512100000000  0.5942070000000 1.0
C      1  0.5311840000000  0.4132600000000  0.4526800000000 1.0
C      1  0.5690310000000  0.5508510000000  0.5209630000000 1.0
C      1  0.4127630000000  0.5016250000000  0.4679840000000 1.0
C      1  0.5568520000000  0.5169260000000  0.5944410000000 1.0
C      1  0.4808270000000  0.5321140000000  0.4077190000000 1.0
C      1  0.5323690000000  0.5277410000000  0.5442690000000 1.0
C      1  0.4790980000000  0.4185950000000  0.5100040000000 1.0
C      1  0.5956650000000  0.4941130000000  0.4815340000000 1.0
C      1  0.5702920000000  0.4005970000000  0.4784440000000 1.0
C      1  0.4445070000000  0.4816680000000  0.5157370000000 1.0
C      1  0.5723580000000  0.5590980000000  0.4622220000000 1.0
C      1  0.5085470000000  0.4319430000000  0.4558420000000 1.0
C      1  0.4472800000000  0.5564100000000  0.5261910000000 1.0
C      1  0.4529770000000  0.5000870000000  0.4962930000000 1.0
C      1  0.5466550000000  0.5513350000000  0.5033700000000 1.0
C      1  0.5245010000000  0.5516900000000  0.4274220000000 1.0
C      1  0.4431710000000  0.4975530000000  0.5917340000000 1.0
C      1  0.4850130000000  0.4128980000000  0.5618690000000 1.0
C      1  0.4458940000000  0.5815510000000  0.4788740000000 1.0
C      1  0.5403920000000  0.5251730000000  0.4329280000000 1.0
C      1  0.5307050000000  0.5125750000000  0.4583040000000 1.0
C      1  0.4601560000000  0.5209960000000  0.5820210000000 1.0
C      1  0.5149740000000  0.5608780000000  0.4547040000000 1.0
C      1  0.4849280000000  0.5170030000000  0.6011970000000 1.0
C      1  0.4777310000000  0.4733740000000  0.4495450000000 1.0
C      1  0.4719140000000  0.4448540000000  0.5021320000000 1.0
C      1  0.5565470000000  0.4956740000000  0.5744880000000 1.0
C      1  0.5251000000000  0.4503070000000  0.5362660000000 1.0
C      1  0.4522780000000  0.4298620000000  0.4457880000000 1.0
C      1  0.4495410000000  0.4807710000000  0.4516280000000 1.0
C      1  0.4875800000000  0.5009620000000  0.4427230000000 1.0
C      1  0.5225140000000  0.4559790000000  0.4689250000000 1.0
C      1  0.4800010000000  0.4592570000000  0.4781610000000 1.0
C      1  0.5230150000000  0.4894360000000  0.5038730000000 1.0
C      1  0.5690090000000  0.4953120000000  0.5302290000000 1.0
C      1  0.5421620000000  0.5031410000000  0.6159370000000 1.0
C      1  0.5506120000000  0.5529770000000  0.5515170000000 1.0
C      1  0.4598590000000  0.5515490000000  0.5811660000000 1.0
C      1  0.5203960000000  0.5378530000000  0.5156380000000 1.0
C      1  0.5520230000000  0.5647620000000  0.4791390000000 1.0
C      1  0.3858220000000  0.4590500000000  0.4679590000000 1.0
C      1  0.5466110000000  0.4937870000000  0.3974120000000 1.0
C      1  0.5117420000000  0.4750900000000  0.5299300000000 1.0
C      1  0.5165920000000  0.3830530000000  0.5933020000000 1.0
C      1  0.5049060000000  0.5132780000000  0.5064670000000 1.0
END
