TITL C-612607-4507-447 5923.5038583789 125000 -721.255686982178 0 0 117 (C1) n - 1
REM
REM in /home/nfs/bkarasulu/CARBON/AIRSS/Generating-Clusters/TERSOFF/Only-C1/FIRE-HFTN
REM
REM
REM
REM
REM
REM ./C.cell (11c1c37f851c82e70ff6c80c92926a4b)
REM AIRSS Version 0.9.1 bugfix July 2018 build 013d7b7c2542+ Fri, 06 Jul 2018 19:26:36 +0100
REM compiler GCC version 9.2.1 20190827 (Red Hat 9.2.1-1)
REM options -cpp -mtune=generic -march=x86-64 -g -O0 -fpre-include=/usr/include/finclude/math-vector-fortran.h
REM seed -1310267110 1127094222 -1265654237 -490711443 84444046 1572855259 -1695909186 781614305 -672066474 558469583 -693365439 -1160662804 -1355560948 731965344 -1315818238 834561063 709420189 -2025505816 -876832108 257365251 161518669 833597013 129766847 -293245057 -1934626801 -834618103 -10493775 -1729756795 -512352398 -1072242291 301044882 -329309595 541076327
REM
CELL 1.54180   50.00000   50.00000   50.00000   90.00000   90.00000   90.00000
LATT -1
SFAC C  
C      1  0.5486880000000  0.5800070000000  0.4274670000000 1.0
C      1  0.4118650000000  0.4526050000000  0.5668440000000 1.0
C      1  0.5568740000000  0.5436530000000  0.4767940000000 1.0
C      1  0.4135910000000  0.5096020000000  0.5230540000000 1.0
C      1  0.5049230000000  0.4594230000000  0.4317250000000 1.0
C      1  0.4436450000000  0.5364040000000  0.4452230000000 1.0
C      1  0.5068120000000  0.5085250000000  0.5899440000000 1.0
C      1  0.5870030000000  0.4308480000000  0.4674890000000 1.0
C      1  0.4089400000000  0.4636490000000  0.4621160000000 1.0
C      1  0.5061870000000  0.5880830000000  0.4530350000000 1.0
C      1  0.4246820000000  0.5342500000000  0.4689440000000 1.0
C      1  0.4593840000000  0.4392340000000  0.5705300000000 1.0
C      1  0.5708010000000  0.5649400000000  0.5172890000000 1.0
C      1  0.4395680000000  0.4594910000000  0.5728640000000 1.0
C      1  0.3987220000000  0.5574560000000  0.5595480000000 1.0
C      1  0.4937260000000  0.5765720000000  0.5442220000000 1.0
C      1  0.4702940000000  0.5157790000000  0.4086480000000 1.0
C      1  0.4691980000000  0.4923830000000  0.4867100000000 1.0
C      1  0.5115680000000  0.5176190000000  0.4753090000000 1.0
C      1  0.4558620000000  0.5579710000000  0.4956560000000 1.0
C      1  0.4976810000000  0.4615110000000  0.3831230000000 1.0
C      1  0.5377420000000  0.4452350000000  0.4701730000000 1.0
C      1  0.4392990000000  0.4901400000000  0.5697230000000 1.0
C      1  0.4837270000000  0.5173210000000  0.4824320000000 1.0
C      1  0.5824330000000  0.5388080000000  0.5241640000000 1.0
C      1  0.5099450000000  0.5132420000000  0.5344340000000 1.0
C      1  0.5929430000000  0.4594440000000  0.4758130000000 1.0
C      1  0.5283560000000  0.6083860000000  0.4899320000000 1.0
C      1  0.5407920000000  0.5449330000000  0.5617100000000 1.0
C      1  0.5517330000000  0.4963890000000  0.5227080000000 1.0
C      1  0.5058070000000  0.4494770000000  0.5074390000000 1.0
C      1  0.4709370000000  0.4458910000000  0.4714850000000 1.0
C      1  0.5475380000000  0.4471110000000  0.5323320000000 1.0
C      1  0.4590300000000  0.4799760000000  0.5108420000000 1.0
C      1  0.5627110000000  0.5696230000000  0.4897890000000 1.0
C      1  0.4937390000000  0.6011220000000  0.5871940000000 1.0
C      1  0.4897370000000  0.4512800000000  0.4083400000000 1.0
C      1  0.4528510000000  0.4254290000000  0.5149910000000 1.0
C      1  0.5288080000000  0.5388470000000  0.4817590000000 1.0
C      1  0.4205930000000  0.5549930000000  0.5432810000000 1.0
C      1  0.5174200000000  0.4057920000000  0.5325780000000 1.0
C      1  0.4736290000000  0.4048120000000  0.5151110000000 1.0
C      1  0.5834230000000  0.4349210000000  0.4385250000000 1.0
C      1  0.5352280000000  0.5854310000000  0.4504950000000 1.0
C      1  0.4556880000000  0.5075500000000  0.5862520000000 1.0
C      1  0.5203960000000  0.5379870000000  0.5413170000000 1.0
C      1  0.5204330000000  0.3989010000000  0.4871060000000 1.0
C      1  0.4440560000000  0.5699660000000  0.5485500000000 1.0
C      1  0.4858710000000  0.5712760000000  0.4425360000000 1.0
C      1  0.4063450000000  0.4966700000000  0.4979820000000 1.0
C      1  0.5398130000000  0.4157900000000  0.4719250000000 1.0
C      1  0.4669440000000  0.5801810000000  0.5357340000000 1.0
C      1  0.3989980000000  0.4729360000000  0.5533710000000 1.0
C      1  0.4643440000000  0.5820860000000  0.5074290000000 1.0
C      1  0.4820710000000  0.4260770000000  0.5596150000000 1.0
C      1  0.4316320000000  0.4910190000000  0.4290360000000 1.0
C      1  0.4671640000000  0.4925400000000  0.5342480000000 1.0
C      1  0.4925490000000  0.4069150000000  0.4916970000000 1.0
C      1  0.5023060000000  0.6033390000000  0.4779040000000 1.0
C      1  0.5097810000000  0.5598750000000  0.5271600000000 1.0
C      1  0.5479380000000  0.5909080000000  0.4770320000000 1.0
C      1  0.4796930000000  0.5169590000000  0.5967890000000 1.0
C      1  0.4390750000000  0.4627640000000  0.4250030000000 1.0
C      1  0.5198140000000  0.4366750000000  0.5313800000000 1.0
C      1  0.5921840000000  0.4784560000000  0.4529210000000 1.0
C      1  0.4900770000000  0.4989180000000  0.5479120000000 1.0
C      1  0.5507470000000  0.4564610000000  0.4957300000000 1.0
C      1  0.4279160000000  0.4475250000000  0.4477140000000 1.0
C      1  0.5762200000000  0.4687700000000  0.4962890000000 1.0
C      1  0.4476590000000  0.4332470000000  0.4618510000000 1.0
C      1  0.5042700000000  0.5815070000000  0.5705290000000 1.0
C      1  0.4951660000000  0.4878910000000  0.3772020000000 1.0
C      1  0.5881160000000  0.5063430000000  0.4572400000000 1.0
C      1  0.5510900000000  0.4713720000000  0.4286960000000 1.0
C      1  0.5167190000000  0.4646760000000  0.5692440000000 1.0
C      1  0.5248550000000  0.4969530000000  0.5177450000000 1.0
C      1  0.4471710000000  0.5149420000000  0.4255420000000 1.0
C      1  0.5349060000000  0.3942860000000  0.5126600000000 1.0
C      1  0.4101510000000  0.5101760000000  0.4715630000000 1.0
C      1  0.4905090000000  0.4794140000000  0.4454170000000 1.0
C      1  0.4612460000000  0.4512870000000  0.4118280000000 1.0
C      1  0.5745060000000  0.5308420000000  0.5504000000000 1.0
C      1  0.4911700000000  0.4352460000000  0.4874390000000 1.0
C      1  0.5005180000000  0.4872100000000  0.5714060000000 1.0
C      1  0.4027850000000  0.4687800000000  0.4899460000000 1.0
C      1  0.5627780000000  0.4052560000000  0.5107380000000 1.0
C      1  0.5764680000000  0.4929560000000  0.5104930000000 1.0
C      1  0.4117700000000  0.4909940000000  0.4503890000000 1.0
C      1  0.5163500000000  0.5577380000000  0.4999360000000 1.0
C      1  0.4497610000000  0.4526520000000  0.5135130000000 1.0
C      1  0.5535330000000  0.4944980000000  0.5732490000000 1.0
C      1  0.4168290000000  0.4957680000000  0.5485940000000 1.0
C      1  0.4952740000000  0.5083390000000  0.3970740000000 1.0
C      1  0.5685460000000  0.4128810000000  0.4822230000000 1.0
C      1  0.4299020000000  0.5469450000000  0.4949250000000 1.0
C      1  0.5569060000000  0.5717190000000  0.5409260000000 1.0
C      1  0.5052660000000  0.4428650000000  0.5568080000000 1.0
C      1  0.5439530000000  0.4694330000000  0.5619890000000 1.0
C      1  0.5865360000000  0.5186520000000  0.5036420000000 1.0
C      1  0.4883800000000  0.4038690000000  0.5402070000000 1.0
C      1  0.5337350000000  0.6266160000000  0.5093600000000 1.0
C      1  0.4197840000000  0.5376920000000  0.5203970000000 1.0
C      1  0.4681960000000  0.5511290000000  0.4513960000000 1.0
C      1  0.5772630000000  0.5072100000000  0.5644290000000 1.0
C      1  0.5787770000000  0.5251330000000  0.4764980000000 1.0
C      1  0.5779600000000  0.4630640000000  0.4323920000000 1.0
C      1  0.4822970000000  0.6185530000000  0.6028420000000 1.0
C      1  0.5262370000000  0.5650380000000  0.5788050000000 1.0
C      1  0.4726090000000  0.5431360000000  0.4787980000000 1.0
C      1  0.5118360000000  0.4765420000000  0.5043850000000 1.0
C      1  0.5311770000000  0.4561960000000  0.4432720000000 1.0
C      1  0.5344710000000  0.5152350000000  0.5827850000000 1.0
C      1  0.5418100000000  0.4956230000000  0.4171560000000 1.0
C      1  0.5207820000000  0.5108630000000  0.4095490000000 1.0
C      1  0.4735820000000  0.4736340000000  0.4663340000000 1.0
C      1  0.5674280000000  0.4252100000000  0.5312640000000 1.0
C      1  0.4784780000000  0.6012390000000  0.4925050000000 1.0
END
