TITL C-612600-6631-794 30417.0748531968 125000 -1101.43579240031 0 0 182 (C1) n - 1
REM
REM in /home/nfs/bkarasulu/CARBON/AIRSS/Generating-Clusters/TERSOFF/Only-C1/FIRE-HFTN
REM
REM
REM
REM
REM
REM ./C.cell (11c1c37f851c82e70ff6c80c92926a4b)
REM AIRSS Version 0.9.1 bugfix July 2018 build 013d7b7c2542+ Fri, 06 Jul 2018 19:26:36 +0100
REM compiler GCC version 9.2.1 20190827 (Red Hat 9.2.1-1)
REM options -cpp -mtune=generic -march=x86-64 -g -O0 -fpre-include=/usr/include/finclude/math-vector-fortran.h
REM seed 856427098 -1845773301 -1435758941 -935503148 1456890707 -1973167414 -866223486 1593746679 1358535020 427509805 -1399857133 -744497349 1298575612 -1847679630 -2062755064 -867435652 316580944 1857199447 -920801887 1838831378 1861954286 -349929807 1169558532 265922856 -1181577486 -359299437 -2086146288 251815875 1760024447 -216766519 1767965288 -294015145 -846223416
REM
CELL 1.54180   50.00000   50.00000   50.00000   90.00000   90.00000   90.00000
LATT -1
SFAC C  
C      1  0.6169020000000  0.4353770000000  0.5246390000000 1.0
C      1  0.4966090000000  0.6070020000000  0.4464800000000 1.0
C      1  0.3802860000000  0.5110270000000  0.5301750000000 1.0
C      1  0.4261050000000  0.5161050000000  0.5475600000000 1.0
C      1  0.6162680000000  0.4804870000000  0.4274200000000 1.0
C      1  0.4818010000000  0.3924560000000  0.4526150000000 1.0
C      1  0.4644560000000  0.5163770000000  0.4483940000000 1.0
C      1  0.5103190000000  0.5362600000000  0.5106710000000 1.0
C      1  0.6136260000000  0.4181360000000  0.4605310000000 1.0
C      1  0.4337980000000  0.5765000000000  0.3980520000000 1.0
C      1  0.4113640000000  0.5798160000000  0.5599870000000 1.0
C      1  0.5778450000000  0.5424580000000  0.4090780000000 1.0
C      1  0.4248130000000  0.5571200000000  0.4418500000000 1.0
C      1  0.4614690000000  0.4874250000000  0.5084510000000 1.0
C      1  0.5191530000000  0.4161950000000  0.5707720000000 1.0
C      1  0.5712520000000  0.4493390000000  0.4919280000000 1.0
C      1  0.5101030000000  0.4762350000000  0.5957680000000 1.0
C      1  0.4366130000000  0.4823700000000  0.4662050000000 1.0
C      1  0.4566930000000  0.4080220000000  0.5901750000000 1.0
C      1  0.4738170000000  0.4464770000000  0.4818280000000 1.0
C      1  0.4888690000000  0.5451190000000  0.5807050000000 1.0
C      1  0.4474930000000  0.4763940000000  0.5307870000000 1.0
C      1  0.5994400000000  0.4228780000000  0.5431150000000 1.0
C      1  0.5849700000000  0.4971920000000  0.4945350000000 1.0
C      1  0.4214720000000  0.3974530000000  0.5008940000000 1.0
C      1  0.3883840000000  0.5400760000000  0.5111520000000 1.0
C      1  0.5066380000000  0.5517260000000  0.4864840000000 1.0
C      1  0.5817760000000  0.5158240000000  0.4115360000000 1.0
C      1  0.5706990000000  0.5554600000000  0.4721900000000 1.0
C      1  0.4418420000000  0.4137820000000  0.4871250000000 1.0
C      1  0.5271580000000  0.4014110000000  0.4565230000000 1.0
C      1  0.5373600000000  0.4395950000000  0.4287820000000 1.0
C      1  0.4280550000000  0.3855020000000  0.5253100000000 1.0
C      1  0.3967550000000  0.3938550000000  0.4896240000000 1.0
C      1  0.4618230000000  0.6111560000000  0.4839090000000 1.0
C      1  0.5521110000000  0.5786800000000  0.4725250000000 1.0
C      1  0.4437730000000  0.5613410000000  0.4190240000000 1.0
C      1  0.4273150000000  0.4676680000000  0.5928400000000 1.0
C      1  0.5017850000000  0.5327980000000  0.3823980000000 1.0
C      1  0.5134320000000  0.5872350000000  0.4349600000000 1.0
C      1  0.4690200000000  0.5619630000000  0.5360550000000 1.0
C      1  0.5467660000000  0.4464530000000  0.5966870000000 1.0
C      1  0.5568060000000  0.5306130000000  0.4674970000000 1.0
C      1  0.5467820000000  0.4834330000000  0.5591210000000 1.0
C      1  0.4707110000000  0.4373300000000  0.4322880000000 1.0
C      1  0.4837410000000  0.5989320000000  0.4702660000000 1.0
C      1  0.4896160000000  0.4836140000000  0.5016130000000 1.0
C      1  0.4253330000000  0.5773860000000  0.4945690000000 1.0
C      1  0.4696440000000  0.4758630000000  0.6207400000000 1.0
C      1  0.5615390000000  0.3919360000000  0.5190300000000 1.0
C      1  0.5521280000000  0.5533880000000  0.4100060000000 1.0
C      1  0.5254040000000  0.5981580000000  0.5690610000000 1.0
C      1  0.5811030000000  0.4033240000000  0.5336780000000 1.0
C      1  0.5181690000000  0.4268410000000  0.5451340000000 1.0
C      1  0.4717820000000  0.5871780000000  0.5232680000000 1.0
C      1  0.4607270000000  0.4330400000000  0.5979730000000 1.0
C      1  0.5314720000000  0.4247270000000  0.5930260000000 1.0
C      1  0.5586330000000  0.4658820000000  0.5803470000000 1.0
C      1  0.4904150000000  0.4684610000000  0.4769470000000 1.0
C      1  0.4965260000000  0.4757750000000  0.4502380000000 1.0
C      1  0.4453930000000  0.4962610000000  0.4424960000000 1.0
C      1  0.5289460000000  0.5147100000000  0.5080560000000 1.0
C      1  0.3946400000000  0.4800540000000  0.4895780000000 1.0
C      1  0.4869940000000  0.5487750000000  0.5529340000000 1.0
C      1  0.5316150000000  0.5342610000000  0.4172650000000 1.0
C      1  0.5646570000000  0.5766930000000  0.5495610000000 1.0
C      1  0.5123800000000  0.3773770000000  0.5056690000000 1.0
C      1  0.4269860000000  0.4951350000000  0.4205560000000 1.0
C      1  0.5083280000000  0.3795310000000  0.4545350000000 1.0
C      1  0.4333870000000  0.5300370000000  0.5239410000000 1.0
C      1  0.4826640000000  0.5310060000000  0.4323600000000 1.0
C      1  0.5955490000000  0.4860000000000  0.5586070000000 1.0
C      1  0.6091320000000  0.5152780000000  0.4956530000000 1.0
C      1  0.4026590000000  0.5387690000000  0.4400080000000 1.0
C      1  0.4259530000000  0.5182360000000  0.4987370000000 1.0
C      1  0.4614630000000  0.5578050000000  0.4702600000000 1.0
C      1  0.5136230000000  0.4955940000000  0.5472210000000 1.0
C      1  0.5624320000000  0.4951700000000  0.4164670000000 1.0
C      1  0.5396250000000  0.5756010000000  0.3979500000000 1.0
C      1  0.4981490000000  0.4791870000000  0.6214230000000 1.0
C      1  0.5127410000000  0.5276730000000  0.4401080000000 1.0
C      1  0.4979100000000  0.4259810000000  0.5257960000000 1.0
C      1  0.6078400000000  0.5363970000000  0.5515650000000 1.0
C      1  0.5130010000000  0.4982060000000  0.4464490000000 1.0
C      1  0.4341280000000  0.5661250000000  0.4681840000000 1.0
C      1  0.5506160000000  0.4399650000000  0.4758610000000 1.0
C      1  0.5505850000000  0.5927390000000  0.4977720000000 1.0
C      1  0.4828700000000  0.4628990000000  0.4279790000000 1.0
C      1  0.4212080000000  0.5315660000000  0.5712960000000 1.0
C      1  0.6076200000000  0.5431310000000  0.5006820000000 1.0
C      1  0.5386770000000  0.3907650000000  0.5023800000000 1.0
C      1  0.5917420000000  0.4679380000000  0.4967620000000 1.0
C      1  0.5773800000000  0.5949280000000  0.5089680000000 1.0
C      1  0.4578580000000  0.5415500000000  0.5204530000000 1.0
C      1  0.4878370000000  0.6546860000000  0.4231680000000 1.0
C      1  0.5382570000000  0.4441180000000  0.5351380000000 1.0
C      1  0.4725820000000  0.4720550000000  0.5695300000000 1.0
C      1  0.4481500000000  0.3897410000000  0.5729390000000 1.0
C      1  0.4440730000000  0.4334520000000  0.4407690000000 1.0
C      1  0.4683140000000  0.3917630000000  0.4777240000000 1.0
C      1  0.5348250000000  0.5104690000000  0.6326980000000 1.0
C      1  0.4019040000000  0.5673780000000  0.5120150000000 1.0
C      1  0.4375800000000  0.3821540000000  0.5498170000000 1.0
C      1  0.4005610000000  0.5260470000000  0.4899130000000 1.0
C      1  0.5965570000000  0.4371080000000  0.5675220000000 1.0
C      1  0.5236480000000  0.5442090000000  0.4621550000000 1.0
C      1  0.4930750000000  0.5580750000000  0.3969790000000 1.0
C      1  0.4293010000000  0.4335490000000  0.4656450000000 1.0
C      1  0.4856800000000  0.3801500000000  0.4983700000000 1.0
C      1  0.4998350000000  0.5960500000000  0.5190710000000 1.0
C      1  0.4976190000000  0.4913730000000  0.5726160000000 1.0
C      1  0.5157430000000  0.4881580000000  0.5171930000000 1.0
C      1  0.4239470000000  0.5594880000000  0.5721080000000 1.0
C      1  0.4221900000000  0.4884770000000  0.5369700000000 1.0
C      1  0.5089190000000  0.4256300000000  0.4988020000000 1.0
C      1  0.5029610000000  0.5205760000000  0.5842850000000 1.0
C      1  0.4003420000000  0.4905250000000  0.4303020000000 1.0
C      1  0.5676780000000  0.5040470000000  0.4684150000000 1.0
C      1  0.4713970000000  0.4359510000000  0.5286300000000 1.0
C      1  0.4856690000000  0.5709510000000  0.4770380000000 1.0
C      1  0.6384550000000  0.4937740000000  0.4242410000000 1.0
C      1  0.4938960000000  0.5685650000000  0.5953800000000 1.0
C      1  0.6034680000000  0.4407130000000  0.4523290000000 1.0
C      1  0.4929710000000  0.6320350000000  0.4349890000000 1.0
C      1  0.5438330000000  0.5215500000000  0.6097220000000 1.0
C      1  0.5179640000000  0.4203010000000  0.4357280000000 1.0
C      1  0.4886790000000  0.4160850000000  0.4360970000000 1.0
C      1  0.5939210000000  0.4625280000000  0.4344570000000 1.0
C      1  0.3722360000000  0.5051290000000  0.5571690000000 1.0
C      1  0.5124980000000  0.5785810000000  0.4069460000000 1.0
C      1  0.5470400000000  0.5335660000000  0.5598560000000 1.0
C      1  0.5710940000000  0.4894980000000  0.5438980000000 1.0
C      1  0.3990280000000  0.5820190000000  0.5362610000000 1.0
C      1  0.3970530000000  0.4650340000000  0.4431090000000 1.0
C      1  0.3877710000000  0.4983450000000  0.5804890000000 1.0
C      1  0.6151900000000  0.5731830000000  0.4629220000000 1.0
C      1  0.5817050000000  0.4475910000000  0.4098990000000 1.0
C      1  0.4708500000000  0.5275730000000  0.5000920000000 1.0
C      1  0.5336600000000  0.4646780000000  0.5181420000000 1.0
C      1  0.5983050000000  0.5581140000000  0.4781780000000 1.0
C      1  0.4018190000000  0.4743200000000  0.5865240000000 1.0
C      1  0.4299150000000  0.5017570000000  0.3938000000000 1.0
C      1  0.6148010000000  0.4568840000000  0.5085520000000 1.0
C      1  0.4371970000000  0.4947160000000  0.6594290000000 1.0
C      1  0.5144660000000  0.4938040000000  0.6392400000000 1.0
C      1  0.5878760000000  0.4630350000000  0.5750810000000 1.0
C      1  0.4531310000000  0.4844810000000  0.6415280000000 1.0
C      1  0.5708840000000  0.5049980000000  0.5209050000000 1.0
C      1  0.4419290000000  0.4962260000000  0.4900220000000 1.0
C      1  0.5403640000000  0.5914700000000  0.5461310000000 1.0
C      1  0.5309750000000  0.5732260000000  0.4534090000000 1.0
C      1  0.4646450000000  0.5298830000000  0.4731550000000 1.0
C      1  0.4789020000000  0.4895450000000  0.3808300000000 1.0
C      1  0.4588710000000  0.4333790000000  0.5025930000000 1.0
C      1  0.5244740000000  0.5188450000000  0.3941190000000 1.0
C      1  0.5404560000000  0.4951870000000  0.3975350000000 1.0
C      1  0.5027790000000  0.5309090000000  0.5386840000000 1.0
C      1  0.5562950000000  0.4380720000000  0.4077670000000 1.0
C      1  0.5855190000000  0.5771440000000  0.5295950000000 1.0
C      1  0.5476080000000  0.4551230000000  0.4511240000000 1.0
C      1  0.6035820000000  0.5533290000000  0.5273210000000 1.0
C      1  0.5656990000000  0.5539890000000  0.5658640000000 1.0
C      1  0.5502040000000  0.5229620000000  0.5257590000000 1.0
C      1  0.4636610000000  0.4586680000000  0.5453180000000 1.0
C      1  0.3883310000000  0.5060880000000  0.4738000000000 1.0
C      1  0.4576290000000  0.4630000000000  0.5956090000000 1.0
C      1  0.4491860000000  0.5949890000000  0.5048220000000 1.0
C      1  0.3973700000000  0.4871860000000  0.5193090000000 1.0
C      1  0.6132370000000  0.5081450000000  0.5548390000000 1.0
C      1  0.4714610000000  0.5518140000000  0.4158980000000 1.0
C      1  0.3912300000000  0.5126730000000  0.4459500000000 1.0
C      1  0.4130750000000  0.4614250000000  0.4693840000000 1.0
C      1  0.5918340000000  0.5463200000000  0.5731320000000 1.0
C      1  0.4816710000000  0.4734300000000  0.4019510000000 1.0
C      1  0.5670970000000  0.4798110000000  0.4440790000000 1.0
C      1  0.5323530000000  0.5249670000000  0.5839160000000 1.0
C      1  0.5291430000000  0.5944240000000  0.5190900000000 1.0
C      1  0.4833980000000  0.5144010000000  0.3713510000000 1.0
C      1  0.4241710000000  0.5089230000000  0.3693790000000 1.0
C      1  0.5090410000000  0.5897840000000  0.5885590000000 1.0
C      1  0.4027490000000  0.5206190000000  0.5894900000000 1.0
C      1  0.5332030000000  0.4150380000000  0.4833610000000 1.0
END
