TITL C-612607-4507-1440 -0.000593970796912664 125000 -1223.33739760153 0 0 200 (C1) n - 1
REM
REM in /home/nfs/bkarasulu/CARBON/AIRSS/Generating-Clusters/TERSOFF/Only-C1/FIRE-HFTN
REM
REM
REM
REM
REM
REM ./C.cell (11c1c37f851c82e70ff6c80c92926a4b)
REM AIRSS Version 0.9.1 bugfix July 2018 build 013d7b7c2542+ Fri, 06 Jul 2018 19:26:36 +0100
REM compiler GCC version 9.2.1 20190827 (Red Hat 9.2.1-1)
REM options -cpp -mtune=generic -march=x86-64 -g -O0 -fpre-include=/usr/include/finclude/math-vector-fortran.h
REM seed 796567673 -82089502 643991032 -1616766041 -1608557081 1940599150 -1853188897 -376310028 -144178443 398641279 1875046005 1030420303 919511355 -75849296 -1279140701 -1793825679 1997692820 -1764436752 -1298299580 384422588 1387149113 -1850010274 269877109 185896836 -911967418 -990246111 1587445386 2109957555 -1251631438 -1791326811 1931299191 -669066428 720950809
REM
CELL 1.54180   50.00000   50.00000   50.00000   90.00000   90.00000   90.00000
LATT -1
SFAC C  
C      1  0.5786500000000  0.4634000000000  0.4231890000000 1.0
C      1  0.5552680000000  0.4819050000000  0.5577780000000 1.0
C      1  0.4614570000000  0.5513160000000  0.4709380000000 1.0
C      1  0.4290950000000  0.4925480000000  0.4868090000000 1.0
C      1  0.4716180000000  0.5380240000000  0.5616450000000 1.0
C      1  0.4978660000000  0.4382810000000  0.5429020000000 1.0
C      1  0.5209200000000  0.5007620000000  0.4466270000000 1.0
C      1  0.4087240000000  0.5788280000000  0.4768460000000 1.0
C      1  0.5315340000000  0.4326220000000  0.4258000000000 1.0
C      1  0.4744150000000  0.4757650000000  0.5149120000000 1.0
C      1  0.3696190000000  0.4678860000000  0.4862260000000 1.0
C      1  0.5467550000000  0.3836100000000  0.5114810000000 1.0
C      1  0.3879650000000  0.5032320000000  0.4306820000000 1.0
C      1  0.4120230000000  0.4195880000000  0.4907280000000 1.0
C      1  0.5640940000000  0.4410870000000  0.5783390000000 1.0
C      1  0.5148290000000  0.5475360000000  0.4539020000000 1.0
C      1  0.5082840000000  0.4883260000000  0.4702600000000 1.0
C      1  0.5605090000000  0.4935720000000  0.5024940000000 1.0
C      1  0.4492510000000  0.4205970000000  0.4225220000000 1.0
C      1  0.4937470000000  0.4319580000000  0.5139950000000 1.0
C      1  0.4202050000000  0.4224170000000  0.5192270000000 1.0
C      1  0.5967780000000  0.4684120000000  0.4915260000000 1.0
C      1  0.5678850000000  0.4181600000000  0.4539770000000 1.0
C      1  0.5107660000000  0.6244460000000  0.5488730000000 1.0
C      1  0.5429190000000  0.4627810000000  0.5410380000000 1.0
C      1  0.5188800000000  0.5731080000000  0.5934070000000 1.0
C      1  0.4641470000000  0.4276310000000  0.5065690000000 1.0
C      1  0.5751450000000  0.4080490000000  0.4807490000000 1.0
C      1  0.4608340000000  0.6106940000000  0.4349440000000 1.0
C      1  0.5338620000000  0.5266310000000  0.4516940000000 1.0
C      1  0.4199150000000  0.4201920000000  0.4625880000000 1.0
C      1  0.4658040000000  0.4533470000000  0.6190130000000 1.0
C      1  0.4821330000000  0.5583590000000  0.4885550000000 1.0
C      1  0.5436350000000  0.4106760000000  0.4394720000000 1.0
C      1  0.3666390000000  0.4963350000000  0.4478190000000 1.0
C      1  0.5019590000000  0.4857680000000  0.5582150000000 1.0
C      1  0.5796390000000  0.4913400000000  0.3858060000000 1.0
C      1  0.5554870000000  0.5440360000000  0.4923170000000 1.0
C      1  0.5007330000000  0.3816030000000  0.4350260000000 1.0
C      1  0.4713100000000  0.4904080000000  0.5603470000000 1.0
C      1  0.5162710000000  0.5099310000000  0.5617780000000 1.0
C      1  0.4561120000000  0.5802120000000  0.5779850000000 1.0
C      1  0.6452680000000  0.4767690000000  0.4813500000000 1.0
C      1  0.5784240000000  0.4991050000000  0.5933380000000 1.0
C      1  0.4567210000000  0.5768270000000  0.5306320000000 1.0
C      1  0.4923560000000  0.5195410000000  0.5145960000000 1.0
C      1  0.6191800000000  0.4846830000000  0.4814250000000 1.0
C      1  0.5700040000000  0.4905870000000  0.6644120000000 1.0
C      1  0.5456110000000  0.4396100000000  0.4982240000000 1.0
C      1  0.5123850000000  0.3910590000000  0.5467280000000 1.0
C      1  0.6131240000000  0.5474020000000  0.5394610000000 1.0
C      1  0.5436080000000  0.5071680000000  0.5597030000000 1.0
C      1  0.4284940000000  0.5866640000000  0.4950620000000 1.0
C      1  0.5060240000000  0.4080030000000  0.5017060000000 1.0
C      1  0.5640990000000  0.5470980000000  0.5439440000000 1.0
C      1  0.4784650000000  0.5700420000000  0.5138220000000 1.0
C      1  0.4962990000000  0.5558080000000  0.4071290000000 1.0
C      1  0.4389510000000  0.5736640000000  0.4073220000000 1.0
C      1  0.3869360000000  0.4897620000000  0.5635610000000 1.0
C      1  0.5009770000000  0.5875230000000  0.5220960000000 1.0
C      1  0.4835890000000  0.4395630000000  0.6001500000000 1.0
C      1  0.5586870000000  0.5279760000000  0.4666530000000 1.0
C      1  0.3655170000000  0.5586350000000  0.5081230000000 1.0
C      1  0.6155500000000  0.5375330000000  0.4770440000000 1.0
C      1  0.5797940000000  0.5638140000000  0.5982890000000 1.0
C      1  0.6160310000000  0.4692290000000  0.5558750000000 1.0
C      1  0.4446990000000  0.5971960000000  0.4184670000000 1.0
C      1  0.5258980000000  0.5706740000000  0.5233610000000 1.0
C      1  0.4980060000000  0.4063870000000  0.4747480000000 1.0
C      1  0.3679060000000  0.5144810000000  0.5236200000000 1.0
C      1  0.5743530000000  0.5928650000000  0.4592060000000 1.0
C      1  0.5580500000000  0.6169090000000  0.5435640000000 1.0
C      1  0.5952360000000  0.5134690000000  0.5733550000000 1.0
C      1  0.4455550000000  0.5467880000000  0.4037540000000 1.0
C      1  0.4067410000000  0.4747520000000  0.5771600000000 1.0
C      1  0.4686730000000  0.4987550000000  0.5905000000000 1.0
C      1  0.5996480000000  0.4507900000000  0.5424590000000 1.0
C      1  0.5173490000000  0.5697470000000  0.3920730000000 1.0
C      1  0.4469570000000  0.4115220000000  0.5229660000000 1.0
C      1  0.4756650000000  0.5010100000000  0.5014470000000 1.0
C      1  0.4245300000000  0.5435760000000  0.5237940000000 1.0
C      1  0.4790680000000  0.4244720000000  0.3810770000000 1.0
C      1  0.5288880000000  0.3865430000000  0.4369040000000 1.0
C      1  0.4861350000000  0.3858170000000  0.4594240000000 1.0
C      1  0.4841270000000  0.4490990000000  0.4469120000000 1.0
C      1  0.5676220000000  0.4722220000000  0.5824430000000 1.0
C      1  0.5479460000000  0.4542820000000  0.3780910000000 1.0
C      1  0.4380150000000  0.4716270000000  0.4093180000000 1.0
C      1  0.4734970000000  0.5387860000000  0.3983730000000 1.0
C      1  0.5309090000000  0.5993600000000  0.4344380000000 1.0
C      1  0.5828240000000  0.4301640000000  0.5557780000000 1.0
C      1  0.3934290000000  0.5572510000000  0.4668910000000 1.0
C      1  0.4049510000000  0.5249690000000  0.4249380000000 1.0
C      1  0.5173280000000  0.4750250000000  0.4925270000000 1.0
C      1  0.3617470000000  0.5421780000000  0.5299150000000 1.0
C      1  0.4968170000000  0.4597300000000  0.5041960000000 1.0
C      1  0.6116450000000  0.5659480000000  0.5175610000000 1.0
C      1  0.3450140000000  0.4776850000000  0.5439770000000 1.0
C      1  0.6242920000000  0.5226450000000  0.5303790000000 1.0
C      1  0.3415910000000  0.4926980000000  0.4372610000000 1.0
C      1  0.4998560000000  0.4366020000000  0.3686890000000 1.0
C      1  0.4141010000000  0.4420910000000  0.4437130000000 1.0
C      1  0.5190090000000  0.5562940000000  0.5707200000000 1.0
C      1  0.5783090000000  0.5855170000000  0.5820900000000 1.0
C      1  0.5733970000000  0.4824480000000  0.4798560000000 1.0
C      1  0.3670540000000  0.4941600000000  0.5435620000000 1.0
C      1  0.5940950000000  0.5812160000000  0.4731910000000 1.0
C      1  0.4644230000000  0.4341650000000  0.5779410000000 1.0
C      1  0.5151020000000  0.4607960000000  0.5481200000000 1.0
C      1  0.5369740000000  0.4793990000000  0.4362130000000 1.0
C      1  0.4422090000000  0.4059240000000  0.4481530000000 1.0
C      1  0.4658540000000  0.5915290000000  0.5539170000000 1.0
C      1  0.5714170000000  0.5026300000000  0.6413450000000 1.0
C      1  0.5002600000000  0.5324640000000  0.5732890000000 1.0
C      1  0.5189430000000  0.4556950000000  0.3770580000000 1.0
C      1  0.5248890000000  0.4594190000000  0.4213550000000 1.0
C      1  0.5373070000000  0.5593030000000  0.5478320000000 1.0
C      1  0.4448140000000  0.3617830000000  0.4686540000000 1.0
C      1  0.4414360000000  0.5056120000000  0.5980690000000 1.0
C      1  0.4389430000000  0.4580930000000  0.6084670000000 1.0
C      1  0.4857550000000  0.3889000000000  0.4122140000000 1.0
C      1  0.4919770000000  0.6028420000000  0.5473860000000 1.0
C      1  0.4780740000000  0.6093810000000  0.4808700000000 1.0
C      1  0.5264060000000  0.6225920000000  0.5022690000000 1.0
C      1  0.5807190000000  0.4406850000000  0.4406940000000 1.0
C      1  0.5698160000000  0.4648640000000  0.3936940000000 1.0
C      1  0.4239920000000  0.4949970000000  0.5148780000000 1.0
C      1  0.5583190000000  0.4520050000000  0.5190350000000 1.0
C      1  0.4160250000000  0.4482340000000  0.5661600000000 1.0
C      1  0.3763190000000  0.5440250000000  0.4853860000000 1.0
C      1  0.5005860000000  0.6091090000000  0.4996550000000 1.0
C      1  0.4574060000000  0.3840710000000  0.4589560000000 1.0
C      1  0.5807500000000  0.5044500000000  0.4595810000000 1.0
C      1  0.5091340000000  0.4706220000000  0.3996230000000 1.0
C      1  0.4335930000000  0.4462430000000  0.4219310000000 1.0
C      1  0.5008640000000  0.5630950000000  0.4349290000000 1.0
C      1  0.5123810000000  0.4369760000000  0.5973370000000 1.0
C      1  0.4524420000000  0.5281400000000  0.4579620000000 1.0
C      1  0.5038850000000  0.5914200000000  0.4415990000000 1.0
C      1  0.4392980000000  0.4672580000000  0.4794430000000 1.0
C      1  0.5703440000000  0.3993290000000  0.5087270000000 1.0
C      1  0.4843110000000  0.3861830000000  0.5498010000000 1.0
C      1  0.3703980000000  0.4934050000000  0.4760740000000 1.0
C      1  0.5213230000000  0.5656010000000  0.3653400000000 1.0
C      1  0.4371930000000  0.5339510000000  0.5954210000000 1.0
C      1  0.5710850000000  0.6031680000000  0.5629050000000 1.0
C      1  0.4901830000000  0.5171850000000  0.5985050000000 1.0
C      1  0.4718430000000  0.4435350000000  0.5528880000000 1.0
C      1  0.5362360000000  0.4272420000000  0.5826230000000 1.0
C      1  0.5339750000000  0.5882280000000  0.4075420000000 1.0
C      1  0.3731440000000  0.5155080000000  0.4938410000000 1.0
C      1  0.5901790000000  0.5393680000000  0.5573990000000 1.0
C      1  0.5093380000000  0.5552870000000  0.4804030000000 1.0
C      1  0.3990690000000  0.5475660000000  0.4410550000000 1.0
C      1  0.4733100000000  0.5107960000000  0.4497130000000 1.0
C      1  0.5333800000000  0.4932490000000  0.5069980000000 1.0
C      1  0.4711270000000  0.5086290000000  0.3942370000000 1.0
C      1  0.5780520000000  0.5103870000000  0.5163370000000 1.0
C      1  0.4503920000000  0.6046780000000  0.4887850000000 1.0
C      1  0.5937680000000  0.5343580000000  0.4066600000000 1.0
C      1  0.5794640000000  0.4091020000000  0.5350020000000 1.0
C      1  0.5829850000000  0.4921890000000  0.4317860000000 1.0
C      1  0.4929570000000  0.4935630000000  0.4049640000000 1.0
C      1  0.4247990000000  0.4823730000000  0.5991860000000 1.0
C      1  0.6155890000000  0.4942080000000  0.5661570000000 1.0
C      1  0.4584350000000  0.5158640000000  0.5473820000000 1.0
C      1  0.4525780000000  0.4454070000000  0.4875340000000 1.0
C      1  0.4438020000000  0.4989020000000  0.4020440000000 1.0
C      1  0.4963710000000  0.4311810000000  0.4612920000000 1.0
C      1  0.5291600000000  0.4040460000000  0.5662120000000 1.0
C      1  0.5878300000000  0.4561570000000  0.5166550000000 1.0
C      1  0.5494630000000  0.6061120000000  0.4557290000000 1.0
C      1  0.4821050000000  0.4982210000000  0.4739030000000 1.0
C      1  0.4306550000000  0.5143600000000  0.4694420000000 1.0
C      1  0.4696400000000  0.4110690000000  0.4042190000000 1.0
C      1  0.5454820000000  0.5540460000000  0.6292100000000 1.0
C      1  0.4366530000000  0.4393020000000  0.5847030000000 1.0
C      1  0.4322320000000  0.5704310000000  0.5187560000000 1.0
C      1  0.4348830000000  0.5175060000000  0.5298740000000 1.0
C      1  0.4139630000000  0.4452700000000  0.5372750000000 1.0
C      1  0.5679330000000  0.5365160000000  0.5168810000000 1.0
C      1  0.5188110000000  0.5151700000000  0.5167840000000 1.0
C      1  0.5316330000000  0.5591030000000  0.4974600000000 1.0
C      1  0.4599380000000  0.3927300000000  0.5396910000000 1.0
C      1  0.5260120000000  0.5696690000000  0.6190810000000 1.0
C      1  0.5862560000000  0.5083420000000  0.4079010000000 1.0
C      1  0.5678730000000  0.5438360000000  0.6150060000000 1.0
C      1  0.4285800000000  0.5233680000000  0.4088480000000 1.0
C      1  0.6085820000000  0.5626800000000  0.4890040000000 1.0
C      1  0.4825820000000  0.6065070000000  0.4524700000000 1.0
C      1  0.5210180000000  0.3914100000000  0.5191550000000 1.0
C      1  0.4536290000000  0.5520760000000  0.5802120000000 1.0
C      1  0.4952690000000  0.5051650000000  0.4310810000000 1.0
C      1  0.5414390000000  0.6219750000000  0.4782730000000 1.0
C      1  0.6094480000000  0.5106470000000  0.4702890000000 1.0
C      1  0.4635390000000  0.4687000000000  0.5413390000000 1.0
C      1  0.4130100000000  0.4711330000000  0.5252310000000 1.0
C      1  0.6054080000000  0.5055650000000  0.5210900000000 1.0
C      1  0.5724430000000  0.5151710000000  0.6163310000000 1.0
C      1  0.5338800000000  0.6253610000000  0.5309340000000 1.0
END
