TITL C-612603-7354-1311 3769.01795536588 125000 -1027.57735588621 0 0 171 (C1) n - 1
REM
REM in /home/nfs/bkarasulu/CARBON/AIRSS/Generating-Clusters/TERSOFF/Only-C1/FIRE-HFTN
REM
REM
REM
REM
REM
REM ./C.cell (11c1c37f851c82e70ff6c80c92926a4b)
REM AIRSS Version 0.9.1 bugfix July 2018 build 013d7b7c2542+ Fri, 06 Jul 2018 19:26:36 +0100
REM compiler GCC version 9.2.1 20190827 (Red Hat 9.2.1-1)
REM options -cpp -mtune=generic -march=x86-64 -g -O0 -fpre-include=/usr/include/finclude/math-vector-fortran.h
REM seed 1876199977 622821056 1743149788 -1188107179 -1324127223 933491936 -1352657552 -1149402210 229973114 78082079 -1304300058 727456759 966888452 -744042575 1942914022 1681743299 634442375 -254387615 -2094245450 -1423162075 -695931318 1378065160 168164014 -23249083 -2092869423 2121149004 315764285 317676801 -1580039980 -1318722597 1834711987 -1289904622 -1140286267
REM
CELL 1.54180   50.00000   50.00000   50.00000   90.00000   90.00000   90.00000
LATT -1
SFAC C  
C      1  0.5804630000000  0.5545080000000  0.4431350000000 1.0
C      1  0.5900260000000  0.5697100000000  0.4897620000000 1.0
C      1  0.3918720000000  0.4641540000000  0.5273310000000 1.0
C      1  0.5402810000000  0.3854790000000  0.5598270000000 1.0
C      1  0.5542010000000  0.5835420000000  0.5748470000000 1.0
C      1  0.5489830000000  0.5964480000000  0.5484980000000 1.0
C      1  0.4637940000000  0.4527730000000  0.4696090000000 1.0
C      1  0.4676730000000  0.3950910000000  0.5596990000000 1.0
C      1  0.6123440000000  0.5203440000000  0.4940940000000 1.0
C      1  0.3720500000000  0.4950350000000  0.4149890000000 1.0
C      1  0.4750010000000  0.5739030000000  0.6321850000000 1.0
C      1  0.5891750000000  0.4838600000000  0.3622680000000 1.0
C      1  0.4009330000000  0.4388460000000  0.5232510000000 1.0
C      1  0.4442010000000  0.4629930000000  0.4520880000000 1.0
C      1  0.4295920000000  0.5595400000000  0.5262490000000 1.0
C      1  0.5906450000000  0.4578110000000  0.5227620000000 1.0
C      1  0.5763250000000  0.4735330000000  0.4537680000000 1.0
C      1  0.5485510000000  0.5031140000000  0.5256530000000 1.0
C      1  0.5173780000000  0.5250200000000  0.4444490000000 1.0
C      1  0.4028290000000  0.4581740000000  0.4680820000000 1.0
C      1  0.4346920000000  0.4898710000000  0.4576310000000 1.0
C      1  0.4204830000000  0.4465750000000  0.4479570000000 1.0
C      1  0.5400470000000  0.6317710000000  0.4957380000000 1.0
C      1  0.4618170000000  0.5420890000000  0.3801310000000 1.0
C      1  0.4966640000000  0.5907410000000  0.4590950000000 1.0
C      1  0.4609500000000  0.4001800000000  0.4954950000000 1.0
C      1  0.5067630000000  0.5547360000000  0.3779730000000 1.0
C      1  0.5501080000000  0.6061910000000  0.5005390000000 1.0
C      1  0.5448070000000  0.5857270000000  0.4819540000000 1.0
C      1  0.5026400000000  0.5778640000000  0.3942480000000 1.0
C      1  0.4455250000000  0.4326510000000  0.5382480000000 1.0
C      1  0.6027000000000  0.4618350000000  0.5477970000000 1.0
C      1  0.4140720000000  0.4831050000000  0.4782520000000 1.0
C      1  0.5821750000000  0.4892790000000  0.4775890000000 1.0
C      1  0.5345940000000  0.4229930000000  0.4203340000000 1.0
C      1  0.4993740000000  0.4850700000000  0.5344040000000 1.0
C      1  0.5455840000000  0.5545680000000  0.4801760000000 1.0
C      1  0.5683750000000  0.5063440000000  0.4199760000000 1.0
C      1  0.5413170000000  0.6006090000000  0.5942360000000 1.0
C      1  0.4249350000000  0.5181860000000  0.5899510000000 1.0
C      1  0.5398950000000  0.5135060000000  0.6201430000000 1.0
C      1  0.4352200000000  0.4052610000000  0.5024250000000 1.0
C      1  0.5899360000000  0.5289660000000  0.5912900000000 1.0
C      1  0.4519070000000  0.5090960000000  0.5880360000000 1.0
C      1  0.4975410000000  0.3988820000000  0.6474140000000 1.0
C      1  0.4681260000000  0.6136740000000  0.4028920000000 1.0
C      1  0.5312210000000  0.5137830000000  0.5929610000000 1.0
C      1  0.4021350000000  0.5225710000000  0.5762410000000 1.0
C      1  0.4935510000000  0.3537490000000  0.4410680000000 1.0
C      1  0.3889570000000  0.5614980000000  0.5503380000000 1.0
C      1  0.4437680000000  0.5356390000000  0.5325940000000 1.0
C      1  0.4650140000000  0.4892640000000  0.4969130000000 1.0
C      1  0.3924090000000  0.5350020000000  0.5038520000000 1.0
C      1  0.3962460000000  0.4918890000000  0.5232510000000 1.0
C      1  0.3740580000000  0.5613570000000  0.4538040000000 1.0
C      1  0.4808640000000  0.5041820000000  0.4239230000000 1.0
C      1  0.4876590000000  0.5715230000000  0.6080060000000 1.0
C      1  0.5244900000000  0.4413090000000  0.4861730000000 1.0
C      1  0.3984390000000  0.4500980000000  0.4064920000000 1.0
C      1  0.4406460000000  0.5174630000000  0.4537100000000 1.0
C      1  0.5730110000000  0.5392310000000  0.5714660000000 1.0
C      1  0.5470990000000  0.4920730000000  0.5514750000000 1.0
C      1  0.5520900000000  0.5142960000000  0.3760530000000 1.0
C      1  0.4894930000000  0.4534310000000  0.4587190000000 1.0
C      1  0.5618250000000  0.4489860000000  0.4548440000000 1.0
C      1  0.3858730000000  0.5186150000000  0.5283120000000 1.0
C      1  0.5637830000000  0.5965430000000  0.5237430000000 1.0
C      1  0.5371720000000  0.4902960000000  0.5777550000000 1.0
C      1  0.5506160000000  0.5556460000000  0.5789340000000 1.0
C      1  0.6165200000000  0.4580430000000  0.6252740000000 1.0
C      1  0.5536640000000  0.3847390000000  0.5099760000000 1.0
C      1  0.4182880000000  0.4367730000000  0.4215750000000 1.0
C      1  0.5688830000000  0.5012600000000  0.3596460000000 1.0
C      1  0.4546920000000  0.4197770000000  0.5615840000000 1.0
C      1  0.5299040000000  0.4424170000000  0.5418710000000 1.0
C      1  0.4563350000000  0.5684070000000  0.3851350000000 1.0
C      1  0.5863420000000  0.5792900000000  0.5166020000000 1.0
C      1  0.3778040000000  0.5718740000000  0.4784070000000 1.0
C      1  0.5046450000000  0.6191140000000  0.5352980000000 1.0
C      1  0.5105250000000  0.4623190000000  0.4745690000000 1.0
C      1  0.4918810000000  0.5119950000000  0.5301060000000 1.0
C      1  0.5959780000000  0.4769270000000  0.5019130000000 1.0
C      1  0.4871470000000  0.6167890000000  0.4535890000000 1.0
C      1  0.4849110000000  0.5042650000000  0.4786600000000 1.0
C      1  0.5194640000000  0.6436580000000  0.4834650000000 1.0
C      1  0.4659720000000  0.4125390000000  0.4116460000000 1.0
C      1  0.5330950000000  0.4950450000000  0.5029540000000 1.0
C      1  0.4319520000000  0.5325920000000  0.4318770000000 1.0
C      1  0.4754100000000  0.5322620000000  0.4879800000000 1.0
C      1  0.6017410000000  0.4718380000000  0.3827390000000 1.0
C      1  0.4507390000000  0.4810030000000  0.5411200000000 1.0
C      1  0.5519440000000  0.4429520000000  0.4806860000000 1.0
C      1  0.5615670000000  0.3988340000000  0.4860960000000 1.0
C      1  0.5475230000000  0.5155700000000  0.4038150000000 1.0
C      1  0.5326850000000  0.3935180000000  0.5841600000000 1.0
C      1  0.4242130000000  0.4224830000000  0.5221080000000 1.0
C      1  0.5586300000000  0.5297350000000  0.5246120000000 1.0
C      1  0.4617650000000  0.5388040000000  0.5533800000000 1.0
C      1  0.5487360000000  0.3968980000000  0.5357440000000 1.0
C      1  0.4623560000000  0.4601050000000  0.4979680000000 1.0
C      1  0.3825040000000  0.4717640000000  0.4067430000000 1.0
C      1  0.5874140000000  0.5207420000000  0.6167680000000 1.0
C      1  0.4549060000000  0.4887310000000  0.5680210000000 1.0
C      1  0.5258520000000  0.4129960000000  0.6032180000000 1.0
C      1  0.4754730000000  0.5880290000000  0.3933450000000 1.0
C      1  0.4028500000000  0.5706960000000  0.5268740000000 1.0
C      1  0.4189250000000  0.4978890000000  0.5038950000000 1.0
C      1  0.4728880000000  0.6203330000000  0.4297570000000 1.0
C      1  0.5102140000000  0.3670620000000  0.4598210000000 1.0
C      1  0.4882530000000  0.3957450000000  0.4168500000000 1.0
C      1  0.5831030000000  0.4841800000000  0.4285490000000 1.0
C      1  0.4826670000000  0.3678860000000  0.4205280000000 1.0
C      1  0.5517830000000  0.3992550000000  0.4581660000000 1.0
C      1  0.3825520000000  0.5435200000000  0.4335630000000 1.0
C      1  0.4094700000000  0.5454820000000  0.4252990000000 1.0
C      1  0.4969380000000  0.5147050000000  0.4023880000000 1.0
C      1  0.5406850000000  0.5468750000000  0.5097560000000 1.0
C      1  0.4820910000000  0.3927560000000  0.6674980000000 1.0
C      1  0.4564710000000  0.6322570000000  0.3856370000000 1.0
C      1  0.6170500000000  0.4964970000000  0.5070300000000 1.0
C      1  0.5108140000000  0.4611400000000  0.5391490000000 1.0
C      1  0.5172110000000  0.5787780000000  0.4182280000000 1.0
C      1  0.5272330000000  0.3866920000000  0.4479780000000 1.0
C      1  0.4918370000000  0.5104990000000  0.4497580000000 1.0
C      1  0.5689400000000  0.4255830000000  0.4943620000000 1.0
C      1  0.6094870000000  0.4626010000000  0.5733890000000 1.0
C      1  0.5873780000000  0.5197760000000  0.4785370000000 1.0
C      1  0.4892790000000  0.3984070000000  0.4940630000000 1.0
C      1  0.4455540000000  0.6493250000000  0.3692460000000 1.0
C      1  0.4886900000000  0.5327820000000  0.3823610000000 1.0
C      1  0.5159300000000  0.6077990000000  0.5821160000000 1.0
C      1  0.4873840000000  0.5282080000000  0.5533490000000 1.0
C      1  0.4180760000000  0.5268630000000  0.4928760000000 1.0
C      1  0.3882080000000  0.5632380000000  0.5029200000000 1.0
C      1  0.4936010000000  0.5348550000000  0.5102590000000 1.0
C      1  0.4452480000000  0.5010060000000  0.5188590000000 1.0
C      1  0.5780270000000  0.5393970000000  0.5436350000000 1.0
C      1  0.5348780000000  0.4652440000000  0.5904790000000 1.0
C      1  0.4503390000000  0.4311030000000  0.5867440000000 1.0
C      1  0.4982050000000  0.6379250000000  0.4682950000000 1.0
C      1  0.4473710000000  0.4395030000000  0.6112370000000 1.0
C      1  0.5154330000000  0.5501630000000  0.5229640000000 1.0
C      1  0.5555740000000  0.4244050000000  0.4404520000000 1.0
C      1  0.5137580000000  0.5729430000000  0.4456260000000 1.0
C      1  0.4562890000000  0.4559250000000  0.5269290000000 1.0
C      1  0.5228550000000  0.5415690000000  0.5815980000000 1.0
C      1  0.5317350000000  0.4401210000000  0.5987190000000 1.0
C      1  0.5224340000000  0.6095380000000  0.5535260000000 1.0
C      1  0.5114870000000  0.5451290000000  0.5529440000000 1.0
C      1  0.4937990000000  0.5947120000000  0.5931110000000 1.0
C      1  0.5125070000000  0.4054340000000  0.6265580000000 1.0
C      1  0.4949480000000  0.5456130000000  0.5983050000000 1.0
C      1  0.5149170000000  0.4026660000000  0.4256180000000 1.0
C      1  0.3697390000000  0.5197460000000  0.4252290000000 1.0
C      1  0.5522890000000  0.4258060000000  0.5368750000000 1.0
C      1  0.4407310000000  0.4221420000000  0.4118760000000 1.0
C      1  0.4999290000000  0.3737600000000  0.4850650000000 1.0
C      1  0.4760050000000  0.3704800000000  0.5576640000000 1.0
C      1  0.5226330000000  0.5200580000000  0.4158360000000 1.0
C      1  0.5758000000000  0.5479570000000  0.4723910000000 1.0
C      1  0.5948540000000  0.5604040000000  0.5354660000000 1.0
C      1  0.5737430000000  0.4351430000000  0.5202740000000 1.0
C      1  0.5113180000000  0.4884610000000  0.4858840000000 1.0
C      1  0.5253300000000  0.5491010000000  0.4575220000000 1.0
C      1  0.5648300000000  0.5149840000000  0.6303370000000 1.0
C      1  0.5996790000000  0.4718160000000  0.4095200000000 1.0
C      1  0.6135590000000  0.4606810000000  0.5995080000000 1.0
C      1  0.4744290000000  0.5243720000000  0.5985000000000 1.0
C      1  0.3882800000000  0.5328050000000  0.5537480000000 1.0
C      1  0.4450150000000  0.5321400000000  0.4791010000000 1.0
C      1  0.5080340000000  0.4198850000000  0.4956610000000 1.0
END
