TITL C-612602-9376-805 -0.06751662250825 125000 -252.177277347708 0 0 43 (C1) n - 1
REM
REM in /home/nfs/bkarasulu/CARBON/AIRSS/Generating-Clusters/TERSOFF/Only-C1/FIRE-HFTN
REM
REM
REM
REM
REM
REM ./C.cell (11c1c37f851c82e70ff6c80c92926a4b)
REM AIRSS Version 0.9.1 bugfix July 2018 build 013d7b7c2542+ Fri, 06 Jul 2018 19:26:36 +0100
REM compiler GCC version 9.2.1 20190827 (Red Hat 9.2.1-1)
REM options -cpp -mtune=generic -march=x86-64 -g -O0 -fpre-include=/usr/include/finclude/math-vector-fortran.h
REM seed 1740191340 -290614222 -1250289384 1038413296 2127554360 276805903 1452502361 1998285418 186107712 542915481 296293274 -1251455643 848019872 -593543985 -1627125533 -845557961 -151802418 -1425406082 -50460281 1358335487 -413249597 -542979944 1922957893 255176383 -771713393 -1537394333 -1402403854 -1772805205 -1502640120 -1865283777 -1302580049 -287995733 420303124
REM
CELL 1.54180   50.00000   50.00000   50.00000   90.00000   90.00000   90.00000
LATT -1
SFAC C  
C      1  0.5487360000000  0.4593360000000  0.4554390000000 1.0
C      1  0.4796770000000  0.5822480000000  0.5206120000000 1.0
C      1  0.5275070000000  0.5277960000000  0.4878280000000 1.0
C      1  0.4833600000000  0.5208770000000  0.4654870000000 1.0
C      1  0.5007260000000  0.5919690000000  0.5071740000000 1.0
C      1  0.5892880000000  0.4861070000000  0.4631710000000 1.0
C      1  0.4657910000000  0.5214660000000  0.5526840000000 1.0
C      1  0.5174590000000  0.5816980000000  0.4871330000000 1.0
C      1  0.4249330000000  0.4602870000000  0.5016630000000 1.0
C      1  0.5657490000000  0.4420940000000  0.5481900000000 1.0
C      1  0.3827170000000  0.4828410000000  0.5142870000000 1.0
C      1  0.5027240000000  0.4743570000000  0.6040200000000 1.0
C      1  0.5269200000000  0.4470810000000  0.4427870000000 1.0
C      1  0.5505110000000  0.5451700000000  0.4885810000000 1.0
C      1  0.4381400000000  0.5213680000000  0.5128040000000 1.0
C      1  0.3879640000000  0.5089680000000  0.5177410000000 1.0
C      1  0.6090640000000  0.4787150000000  0.4457820000000 1.0
C      1  0.4740400000000  0.4618560000000  0.4971970000000 1.0
C      1  0.5440320000000  0.5726570000000  0.4920030000000 1.0
C      1  0.3989500000000  0.4624870000000  0.5076680000000 1.0
C      1  0.5133080000000  0.4865670000000  0.5181780000000 1.0
C      1  0.5721040000000  0.4562810000000  0.4976360000000 1.0
C      1  0.4487020000000  0.4745690000000  0.4976360000000 1.0
C      1  0.5254560000000  0.5067340000000  0.5059340000000 1.0
C      1  0.4768110000000  0.5067770000000  0.5717720000000 1.0
C      1  0.4478170000000  0.5029310000000  0.4931450000000 1.0
C      1  0.4895350000000  0.4906750000000  0.5885460000000 1.0
C      1  0.4558670000000  0.5350780000000  0.5303400000000 1.0
C      1  0.5602270000000  0.4366630000000  0.5730820000000 1.0
C      1  0.4567790000000  0.5125530000000  0.4678930000000 1.0
C      1  0.5292870000000  0.4378980000000  0.4171280000000 1.0
C      1  0.5053480000000  0.5366100000000  0.4717900000000 1.0
C      1  0.4931480000000  0.4692520000000  0.5163730000000 1.0
C      1  0.5751600000000  0.5339070000000  0.4821730000000 1.0
C      1  0.4636240000000  0.5616780000000  0.5260550000000 1.0
C      1  0.4835240000000  0.4482950000000  0.4745950000000 1.0
C      1  0.5699590000000  0.4670930000000  0.4719450000000 1.0
C      1  0.5703350000000  0.4483130000000  0.5228350000000 1.0
C      1  0.5877010000000  0.5124040000000  0.4727710000000 1.0
C      1  0.5026710000000  0.4443150000000  0.4565870000000 1.0
C      1  0.4396710000000  0.5136110000000  0.4465940000000 1.0
C      1  0.5043310000000  0.5647860000000  0.4682220000000 1.0
C      1  0.4103460000000  0.5236310000000  0.5165210000000 1.0
END
