TITL C-612606-7351-53 3.04518475161779e-05 125000 -272.660194607936 0 0 46 (C1) n - 1
REM
REM in /home/nfs/bkarasulu/CARBON/AIRSS/Generating-Clusters/TERSOFF/Only-C1/FIRE-HFTN
REM
REM
REM
REM
REM
REM ./C.cell (11c1c37f851c82e70ff6c80c92926a4b)
REM AIRSS Version 0.9.1 bugfix July 2018 build 013d7b7c2542+ Fri, 06 Jul 2018 19:26:36 +0100
REM compiler GCC version 9.2.1 20190827 (Red Hat 9.2.1-1)
REM options -cpp -mtune=generic -march=x86-64 -g -O0 -fpre-include=/usr/include/finclude/math-vector-fortran.h
REM seed 835774770 1329767267 521330265 879266956 -470232145 1050338637 -787331918 1806146482 -419597116 757680192 -1453580297 -1949613309 1274165286 -1025086473 -1952601133 505217010 1939234616 1570771477 -1338455115 -155549371 -478431637 -208087893 -840833888 -1096499155 -1660610611 -1963930947 -295018390 -593585258 -1467093460 1405670870 -1333336542 -1274159250 -204372637
REM
CELL 1.54180   50.00000   50.00000   50.00000   90.00000   90.00000   90.00000
LATT -1
SFAC C  
C      1  0.4501240000000  0.5030540000000  0.4396350000000 1.0
C      1  0.4815620000000  0.5580890000000  0.4754090000000 1.0
C      1  0.4631640000000  0.4599780000000  0.4264730000000 1.0
C      1  0.5393050000000  0.5076850000000  0.5713580000000 1.0
C      1  0.4450760000000  0.5385840000000  0.5288090000000 1.0
C      1  0.4785920000000  0.4414670000000  0.5140350000000 1.0
C      1  0.5490670000000  0.5748530000000  0.5056020000000 1.0
C      1  0.5434430000000  0.5214850000000  0.4894040000000 1.0
C      1  0.4635050000000  0.5384810000000  0.4776730000000 1.0
C      1  0.5287010000000  0.4621850000000  0.4611170000000 1.0
C      1  0.4562190000000  0.4926730000000  0.5322280000000 1.0
C      1  0.5207760000000  0.5073540000000  0.4990700000000 1.0
C      1  0.5631700000000  0.5057810000000  0.5294420000000 1.0
C      1  0.4932980000000  0.4919990000000  0.5662140000000 1.0
C      1  0.4878410000000  0.5143470000000  0.3870950000000 1.0
C      1  0.4436280000000  0.4667960000000  0.4704920000000 1.0
C      1  0.4843480000000  0.4543610000000  0.5380930000000 1.0
C      1  0.5653960000000  0.5550400000000  0.5139780000000 1.0
C      1  0.4652680000000  0.4877990000000  0.4210840000000 1.0
C      1  0.4887570000000  0.4971970000000  0.4082780000000 1.0
C      1  0.5261470000000  0.5799520000000  0.4926340000000 1.0
C      1  0.5218430000000  0.4846410000000  0.5665070000000 1.0
C      1  0.4610530000000  0.4511490000000  0.4531410000000 1.0
C      1  0.5203080000000  0.5270990000000  0.5818660000000 1.0
C      1  0.5265610000000  0.4738810000000  0.4372310000000 1.0
C      1  0.5636120000000  0.5111280000000  0.5575220000000 1.0
C      1  0.5527330000000  0.4797150000000  0.5207830000000 1.0
C      1  0.4463970000000  0.5133130000000  0.5155270000000 1.0
C      1  0.4348190000000  0.4527070000000  0.4932000000000 1.0
C      1  0.4925540000000  0.5425710000000  0.5290750000000 1.0
C      1  0.4940970000000  0.5179780000000  0.5791990000000 1.0
C      1  0.5187480000000  0.4600280000000  0.4876310000000 1.0
C      1  0.5282660000000  0.4802970000000  0.5052310000000 1.0
C      1  0.4507240000000  0.4378490000000  0.5092640000000 1.0
C      1  0.4952170000000  0.4438480000000  0.4907710000000 1.0
C      1  0.5865320000000  0.5188050000000  0.5702050000000 1.0
C      1  0.4763830000000  0.4797890000000  0.5474180000000 1.0
C      1  0.5657700000000  0.4563970000000  0.5266770000000 1.0
C      1  0.4448810000000  0.4952770000000  0.4668470000000 1.0
C      1  0.4817680000000  0.4373410000000  0.4663920000000 1.0
C      1  0.5036600000000  0.5226580000000  0.5150180000000 1.0
C      1  0.4679500000000  0.5515280000000  0.5355400000000 1.0
C      1  0.5029920000000  0.5730640000000  0.4811110000000 1.0
C      1  0.5130710000000  0.4876000000000  0.4187750000000 1.0
C      1  0.5624180000000  0.5273130000000  0.5100130000000 1.0
C      1  0.4502520000000  0.5148660000000  0.4869340000000 1.0
END
