TITL C-612600-6631-577 0.0238721228631128 125000 -703.26420423985 0 0 116 (C1) n - 1
REM
REM in /home/nfs/bkarasulu/CARBON/AIRSS/Generating-Clusters/TERSOFF/Only-C1/FIRE-HFTN
REM
REM
REM
REM
REM
REM ./C.cell (11c1c37f851c82e70ff6c80c92926a4b)
REM AIRSS Version 0.9.1 bugfix July 2018 build 013d7b7c2542+ Fri, 06 Jul 2018 19:26:36 +0100
REM compiler GCC version 9.2.1 20190827 (Red Hat 9.2.1-1)
REM options -cpp -mtune=generic -march=x86-64 -g -O0 -fpre-include=/usr/include/finclude/math-vector-fortran.h
REM seed -1993553398 -576466071 711409096 1154865205 404559397 -1621527144 -1177389524 -1227692284 -945954210 -672244602 -1270556850 -620887943 827781461 1425320991 1034180131 -1893545982 1770248571 -865621313 669645622 -442464490 1719113675 663197128 -1568231222 -180598407 -51755313 -831725685 1410982897 -1587548447 -1484744309 188396466 196466153 2052001804 -744916309
REM
CELL 1.54180   50.00000   50.00000   50.00000   90.00000   90.00000   90.00000
LATT -1
SFAC C  
C      1  0.4880610000000  0.3836490000000  0.4526930000000 1.0
C      1  0.5219790000000  0.5507570000000  0.4826060000000 1.0
C      1  0.5123630000000  0.3982330000000  0.4491840000000 1.0
C      1  0.5041790000000  0.5326990000000  0.5007290000000 1.0
C      1  0.4529670000000  0.5986280000000  0.4819440000000 1.0
C      1  0.5260350000000  0.5064550000000  0.4580380000000 1.0
C      1  0.4707470000000  0.4339110000000  0.5395360000000 1.0
C      1  0.4995310000000  0.4381500000000  0.4196070000000 1.0
C      1  0.5125170000000  0.5818100000000  0.4474870000000 1.0
C      1  0.4315370000000  0.5545480000000  0.5373480000000 1.0
C      1  0.5475320000000  0.4463070000000  0.5475940000000 1.0
C      1  0.4281730000000  0.5169690000000  0.5049130000000 1.0
C      1  0.5604860000000  0.5235350000000  0.4280480000000 1.0
C      1  0.4150490000000  0.5403370000000  0.5186730000000 1.0
C      1  0.4128850000000  0.4561240000000  0.4686920000000 1.0
C      1  0.4073570000000  0.5812920000000  0.4950860000000 1.0
C      1  0.5286510000000  0.5016830000000  0.5850340000000 1.0
C      1  0.4577380000000  0.3929770000000  0.4938920000000 1.0
C      1  0.4277370000000  0.4308490000000  0.4726030000000 1.0
C      1  0.5594720000000  0.3705610000000  0.5570870000000 1.0
C      1  0.4570160000000  0.5128500000000  0.5157590000000 1.0
C      1  0.4550530000000  0.5762390000000  0.4323050000000 1.0
C      1  0.4762240000000  0.3881030000000  0.5151200000000 1.0
C      1  0.5775170000000  0.5688380000000  0.5426420000000 1.0
C      1  0.5650780000000  0.5854920000000  0.5219800000000 1.0
C      1  0.4692400000000  0.4855050000000  0.5145590000000 1.0
C      1  0.4202850000000  0.4736920000000  0.4461620000000 1.0
C      1  0.5426950000000  0.4934460000000  0.5141090000000 1.0
C      1  0.4515530000000  0.5916170000000  0.4543340000000 1.0
C      1  0.5965600000000  0.5213630000000  0.4810230000000 1.0
C      1  0.4590040000000  0.5463190000000  0.4833270000000 1.0
C      1  0.4721020000000  0.4326390000000  0.4668130000000 1.0
C      1  0.4799930000000  0.5700610000000  0.5586530000000 1.0
C      1  0.4734690000000  0.4505040000000  0.4180650000000 1.0
C      1  0.5826180000000  0.4401290000000  0.4700840000000 1.0
C      1  0.5185340000000  0.5441750000000  0.4219160000000 1.0
C      1  0.4972720000000  0.4844370000000  0.4990900000000 1.0
C      1  0.4621860000000  0.5524890000000  0.4175110000000 1.0
C      1  0.5428370000000  0.3774130000000  0.5382330000000 1.0
C      1  0.4686600000000  0.5152650000000  0.6614980000000 1.0
C      1  0.5488940000000  0.5380840000000  0.4864960000000 1.0
C      1  0.4338030000000  0.5894450000000  0.5013560000000 1.0
C      1  0.5582540000000  0.4694270000000  0.5637860000000 1.0
C      1  0.5325980000000  0.5696040000000  0.4310450000000 1.0
C      1  0.5785840000000  0.4165850000000  0.4583760000000 1.0
C      1  0.5361700000000  0.4742850000000  0.5829140000000 1.0
C      1  0.5722800000000  0.5188170000000  0.5687880000000 1.0
C      1  0.4777850000000  0.5221790000000  0.6102000000000 1.0
C      1  0.4517190000000  0.4327480000000  0.4246660000000 1.0
C      1  0.4769510000000  0.6077560000000  0.4942170000000 1.0
C      1  0.4839220000000  0.5250770000000  0.5829650000000 1.0
C      1  0.6007110000000  0.4864760000000  0.5442980000000 1.0
C      1  0.4708160000000  0.5851880000000  0.5363160000000 1.0
C      1  0.5098390000000  0.4265510000000  0.4437430000000 1.0
C      1  0.4482350000000  0.4280240000000  0.4522100000000 1.0
C      1  0.5746210000000  0.5280170000000  0.5245610000000 1.0
C      1  0.4906650000000  0.5467290000000  0.4133230000000 1.0
C      1  0.4033280000000  0.4706620000000  0.4910630000000 1.0
C      1  0.4989350000000  0.4399750000000  0.4667240000000 1.0
C      1  0.4442350000000  0.5787610000000  0.5266610000000 1.0
C      1  0.5660480000000  0.5858230000000  0.4667950000000 1.0
C      1  0.4792480000000  0.5464360000000  0.4625270000000 1.0
C      1  0.4531350000000  0.4359190000000  0.5159100000000 1.0
C      1  0.5167890000000  0.4524160000000  0.5801570000000 1.0
C      1  0.4664320000000  0.3822730000000  0.4689380000000 1.0
C      1  0.5036690000000  0.5072090000000  0.5720310000000 1.0
C      1  0.4880840000000  0.6005580000000  0.5193780000000 1.0
C      1  0.3978030000000  0.5572340000000  0.5035690000000 1.0
C      1  0.4374740000000  0.5262090000000  0.4771880000000 1.0
C      1  0.5591990000000  0.4747530000000  0.5017190000000 1.0
C      1  0.5008970000000  0.4930190000000  0.5477070000000 1.0
C      1  0.5351070000000  0.3901530000000  0.4644280000000 1.0
C      1  0.4754560000000  0.4810020000000  0.5442460000000 1.0
C      1  0.4412560000000  0.4173540000000  0.4968410000000 1.0
C      1  0.4208790000000  0.5153800000000  0.4166800000000 1.0
C      1  0.5795000000000  0.5404710000000  0.5495090000000 1.0
C      1  0.4866300000000  0.4993760000000  0.4319490000000 1.0
C      1  0.5003900000000  0.3982760000000  0.5261950000000 1.0
C      1  0.4521390000000  0.4628890000000  0.5068900000000 1.0
C      1  0.5234900000000  0.5490870000000  0.5485990000000 1.0
C      1  0.4980300000000  0.4228010000000  0.5409360000000 1.0
C      1  0.4475220000000  0.4822760000000  0.4473500000000 1.0
C      1  0.4739880000000  0.5354450000000  0.5069390000000 1.0
C      1  0.5150800000000  0.6044130000000  0.5257400000000 1.0
C      1  0.5023300000000  0.5078100000000  0.4787970000000 1.0
C      1  0.6125160000000  0.4927910000000  0.5210360000000 1.0
C      1  0.5053410000000  0.4594950000000  0.4849960000000 1.0
C      1  0.4429200000000  0.5419690000000  0.5599990000000 1.0
C      1  0.4089110000000  0.4932350000000  0.4279230000000 1.0
C      1  0.5472120000000  0.5234140000000  0.5821630000000 1.0
C      1  0.5324060000000  0.5202540000000  0.4325440000000 1.0
C      1  0.5716760000000  0.5435290000000  0.4447090000000 1.0
C      1  0.5022690000000  0.5632040000000  0.4657610000000 1.0
C      1  0.5162060000000  0.4885250000000  0.5232080000000 1.0
C      1  0.5742030000000  0.4598200000000  0.4857590000000 1.0
C      1  0.5711360000000  0.5867760000000  0.4936970000000 1.0
C      1  0.5223950000000  0.5341580000000  0.5250570000000 1.0
C      1  0.5343960000000  0.5473220000000  0.5733050000000 1.0
C      1  0.4807220000000  0.5157070000000  0.4573060000000 1.0
C      1  0.4107010000000  0.4931510000000  0.5038100000000 1.0
C      1  0.5487370000000  0.5225540000000  0.5128290000000 1.0
C      1  0.6107910000000  0.5060120000000  0.4977510000000 1.0
C      1  0.4409060000000  0.5334790000000  0.4127970000000 1.0
C      1  0.4520190000000  0.5064340000000  0.4619560000000 1.0
C      1  0.4692860000000  0.4767160000000  0.4284130000000 1.0
C      1  0.5250400000000  0.3863520000000  0.5186740000000 1.0
C      1  0.5312980000000  0.3832690000000  0.4914510000000 1.0
C      1  0.5409750000000  0.5987850000000  0.5288300000000 1.0
C      1  0.4730780000000  0.5187550000000  0.6360440000000 1.0
C      1  0.5781090000000  0.4905430000000  0.5609400000000 1.0
C      1  0.5593310000000  0.5697190000000  0.4434180000000 1.0
C      1  0.5737060000000  0.5348390000000  0.4717080000000 1.0
C      1  0.5608330000000  0.3968750000000  0.4556950000000 1.0
C      1  0.4698080000000  0.5453480000000  0.5685160000000 1.0
C      1  0.5199400000000  0.4370210000000  0.5550770000000 1.0
C      1  0.4673180000000  0.4569270000000  0.5559260000000 1.0
END
