TITL C-612602-9376-160 217.761646996546 125000 -1055.0424958666 0 0 173 (C1) n - 1
REM
REM in /home/nfs/bkarasulu/CARBON/AIRSS/Generating-Clusters/TERSOFF/Only-C1/FIRE-HFTN
REM
REM
REM
REM
REM
REM ./C.cell (11c1c37f851c82e70ff6c80c92926a4b)
REM AIRSS Version 0.9.1 bugfix July 2018 build 013d7b7c2542+ Fri, 06 Jul 2018 19:26:36 +0100
REM compiler GCC version 9.2.1 20190827 (Red Hat 9.2.1-1)
REM options -cpp -mtune=generic -march=x86-64 -g -O0 -fpre-include=/usr/include/finclude/math-vector-fortran.h
REM seed 39251243 507274262 -2079621404 -1618105217 546395332 1906267880 -1845283698 -1974906054 -483856024 238629076 -1856055073 1663612500 2009311420 -1459951245 -1245733375 397426447 -1327071907 -758430053 -156653026 -534254580 304958169 -1410820383 -2121304444 -1719779269 1845649704 1440130559 -1350804207 -2061155099 -1225758397 -1597245734 -1684900723 -2095341059 -657799383
REM
CELL 1.54180   50.00000   50.00000   50.00000   90.00000   90.00000   90.00000
LATT -1
SFAC C  
C      1  0.4747470000000  0.4503510000000  0.4831440000000 1.0
C      1  0.4903850000000  0.4941260000000  0.6185110000000 1.0
C      1  0.5558400000000  0.5063500000000  0.4725460000000 1.0
C      1  0.6002960000000  0.4728210000000  0.5265450000000 1.0
C      1  0.5740980000000  0.5524330000000  0.4705500000000 1.0
C      1  0.5200940000000  0.5815510000000  0.5933940000000 1.0
C      1  0.4931540000000  0.4134220000000  0.5481310000000 1.0
C      1  0.5630120000000  0.5855660000000  0.5054430000000 1.0
C      1  0.5694230000000  0.5346840000000  0.5697770000000 1.0
C      1  0.5080620000000  0.5063800000000  0.4926610000000 1.0
C      1  0.6040700000000  0.5179190000000  0.4520520000000 1.0
C      1  0.5118740000000  0.4806240000000  0.5759740000000 1.0
C      1  0.5070870000000  0.4515320000000  0.5175020000000 1.0
C      1  0.5642940000000  0.5982730000000  0.5802130000000 1.0
C      1  0.5345890000000  0.5038680000000  0.5326230000000 1.0
C      1  0.5227640000000  0.6192990000000  0.4989280000000 1.0
C      1  0.6032270000000  0.5461380000000  0.4017250000000 1.0
C      1  0.4662860000000  0.5641260000000  0.4837120000000 1.0
C      1  0.5932590000000  0.5447170000000  0.4512230000000 1.0
C      1  0.5532160000000  0.4492130000000  0.5213470000000 1.0
C      1  0.5418110000000  0.5859190000000  0.4597900000000 1.0
C      1  0.5067880000000  0.4886260000000  0.4428120000000 1.0
C      1  0.5296000000000  0.5307250000000  0.4328190000000 1.0
C      1  0.4108350000000  0.4479280000000  0.4535730000000 1.0
C      1  0.4320250000000  0.4997190000000  0.4710280000000 1.0
C      1  0.6047540000000  0.4752540000000  0.4771400000000 1.0
C      1  0.5187100000000  0.4549530000000  0.5617450000000 1.0
C      1  0.5601700000000  0.4255780000000  0.5064050000000 1.0
C      1  0.5643940000000  0.5786330000000  0.4766950000000 1.0
C      1  0.5810970000000  0.5435880000000  0.5420030000000 1.0
C      1  0.4863910000000  0.5450690000000  0.5866000000000 1.0
C      1  0.4294680000000  0.4289840000000  0.4951330000000 1.0
C      1  0.4092450000000  0.3617530000000  0.4830760000000 1.0
C      1  0.4786780000000  0.3322460000000  0.4839400000000 1.0
C      1  0.5035060000000  0.4312280000000  0.5711820000000 1.0
C      1  0.5845280000000  0.4950500000000  0.5337210000000 1.0
C      1  0.4961430000000  0.5278620000000  0.5664930000000 1.0
C      1  0.5904910000000  0.4627270000000  0.4542020000000 1.0
C      1  0.5608030000000  0.4437100000000  0.3920230000000 1.0
C      1  0.5134680000000  0.4981670000000  0.3814590000000 1.0
C      1  0.4562400000000  0.5905600000000  0.4838230000000 1.0
C      1  0.5606020000000  0.4551920000000  0.4591280000000 1.0
C      1  0.4055850000000  0.4722310000000  0.4404900000000 1.0
C      1  0.5202280000000  0.5678110000000  0.4631460000000 1.0
C      1  0.4534920000000  0.4678660000000  0.5574420000000 1.0
C      1  0.4605980000000  0.4579150000000  0.6063920000000 1.0
C      1  0.5591570000000  0.3911660000000  0.5449010000000 1.0
C      1  0.5420230000000  0.5405650000000  0.5048470000000 1.0
C      1  0.6085330000000  0.4634640000000  0.5025490000000 1.0
C      1  0.5947520000000  0.6370050000000  0.5619860000000 1.0
C      1  0.5086320000000  0.4933890000000  0.4699290000000 1.0
C      1  0.4378910000000  0.5472510000000  0.4461060000000 1.0
C      1  0.5562140000000  0.4717370000000  0.5047730000000 1.0
C      1  0.5413190000000  0.4571140000000  0.4073380000000 1.0
C      1  0.4427510000000  0.5958210000000  0.5511590000000 1.0
C      1  0.4134730000000  0.4093030000000  0.5082070000000 1.0
C      1  0.4848850000000  0.5379490000000  0.4457720000000 1.0
C      1  0.5456040000000  0.5367880000000  0.6127830000000 1.0
C      1  0.4414610000000  0.5028850000000  0.6013040000000 1.0
C      1  0.4694560000000  0.4039200000000  0.4734680000000 1.0
C      1  0.3996500000000  0.4896750000000  0.5765720000000 1.0
C      1  0.5218570000000  0.4239140000000  0.4746940000000 1.0
C      1  0.4895310000000  0.3852840000000  0.4812990000000 1.0
C      1  0.4491730000000  0.4539530000000  0.5810870000000 1.0
C      1  0.4157130000000  0.6321550000000  0.5329580000000 1.0
C      1  0.4933100000000  0.4994250000000  0.5650300000000 1.0
C      1  0.4615310000000  0.6048100000000  0.4596450000000 1.0
C      1  0.3981170000000  0.4981790000000  0.5070190000000 1.0
C      1  0.4225060000000  0.4946140000000  0.4439410000000 1.0
C      1  0.4209220000000  0.5285020000000  0.5370430000000 1.0
C      1  0.4699730000000  0.4116080000000  0.4456710000000 1.0
C      1  0.5979020000000  0.4752430000000  0.4296330000000 1.0
C      1  0.6042620000000  0.5027150000000  0.4273040000000 1.0
C      1  0.4997000000000  0.5218320000000  0.3802250000000 1.0
C      1  0.5038910000000  0.6256730000000  0.4807390000000 1.0
C      1  0.4224530000000  0.4262210000000  0.4400370000000 1.0
C      1  0.4650740000000  0.4993730000000  0.4233270000000 1.0
C      1  0.4410770000000  0.4751590000000  0.5119250000000 1.0
C      1  0.5433640000000  0.6058360000000  0.5101430000000 1.0
C      1  0.4954650000000  0.4123400000000  0.4041470000000 1.0
C      1  0.4100950000000  0.3844160000000  0.4959140000000 1.0
C      1  0.4196360000000  0.5089940000000  0.5829670000000 1.0
C      1  0.4598480000000  0.4244380000000  0.4943800000000 1.0
C      1  0.4677300000000  0.4714490000000  0.5036520000000 1.0
C      1  0.4455210000000  0.4136940000000  0.4301440000000 1.0
C      1  0.6063380000000  0.5180140000000  0.4037340000000 1.0
C      1  0.5253110000000  0.4763010000000  0.3927320000000 1.0
C      1  0.5474270000000  0.5773800000000  0.5873850000000 1.0
C      1  0.5574900000000  0.5324370000000  0.4825200000000 1.0
C      1  0.5255350000000  0.5043060000000  0.4285900000000 1.0
C      1  0.4196730000000  0.4808590000000  0.4920920000000 1.0
C      1  0.4167780000000  0.5585650000000  0.5750930000000 1.0
C      1  0.4703950000000  0.5362580000000  0.6740530000000 1.0
C      1  0.3834540000000  0.4853940000000  0.5280270000000 1.0
C      1  0.4826220000000  0.5375050000000  0.3969350000000 1.0
C      1  0.5972110000000  0.5582260000000  0.4266700000000 1.0
C      1  0.4957510000000  0.4177080000000  0.4320940000000 1.0
C      1  0.4804490000000  0.4791810000000  0.4362420000000 1.0
C      1  0.4766580000000  0.4824080000000  0.5495640000000 1.0
C      1  0.4472140000000  0.5205920000000  0.5307940000000 1.0
C      1  0.4788430000000  0.5241500000000  0.4219460000000 1.0
C      1  0.4079220000000  0.5676030000000  0.4726930000000 1.0
C      1  0.5155540000000  0.6031130000000  0.4202980000000 1.0
C      1  0.5525500000000  0.4629660000000  0.6054860000000 1.0
C      1  0.6079320000000  0.5735870000000  0.3557100000000 1.0
C      1  0.4968180000000  0.5682970000000  0.5955370000000 1.0
C      1  0.5632910000000  0.4853040000000  0.5934140000000 1.0
C      1  0.5138210000000  0.5412730000000  0.5484430000000 1.0
C      1  0.4255410000000  0.5728970000000  0.4491160000000 1.0
C      1  0.4796310000000  0.5683440000000  0.5301530000000 1.0
C      1  0.3853180000000  0.4825880000000  0.5548120000000 1.0
C      1  0.4369340000000  0.5029420000000  0.4212070000000 1.0
C      1  0.5936770000000  0.5214050000000  0.5260710000000 1.0
C      1  0.4853050000000  0.5263130000000  0.6551350000000 1.0
C      1  0.4629420000000  0.4863640000000  0.6125420000000 1.0
C      1  0.5254550000000  0.3933920000000  0.5138580000000 1.0
C      1  0.4360380000000  0.5465590000000  0.3934780000000 1.0
C      1  0.4325460000000  0.6110060000000  0.5293700000000 1.0
C      1  0.5786410000000  0.4307150000000  0.3781640000000 1.0
C      1  0.4175470000000  0.5322530000000  0.5655540000000 1.0
C      1  0.4259900000000  0.5830370000000  0.5695940000000 1.0
C      1  0.4835280000000  0.6222720000000  0.4631850000000 1.0
C      1  0.5114930000000  0.5464030000000  0.4480590000000 1.0
C      1  0.5586690000000  0.4955400000000  0.5460490000000 1.0
C      1  0.5634840000000  0.5053490000000  0.5728410000000 1.0
C      1  0.4614690000000  0.5262790000000  0.5078370000000 1.0
C      1  0.4524870000000  0.5184280000000  0.4808300000000 1.0
C      1  0.4905840000000  0.5959430000000  0.4129080000000 1.0
C      1  0.5797720000000  0.6180560000000  0.5717880000000 1.0
C      1  0.4615790000000  0.5421400000000  0.4630120000000 1.0
C      1  0.5103050000000  0.4792030000000  0.6045870000000 1.0
C      1  0.4474270000000  0.5911170000000  0.4378420000000 1.0
C      1  0.4795490000000  0.4379020000000  0.6137810000000 1.0
C      1  0.4898220000000  0.4757050000000  0.5235870000000 1.0
C      1  0.4728780000000  0.4181740000000  0.5266550000000 1.0
C      1  0.5566470000000  0.5505030000000  0.5903160000000 1.0
C      1  0.4412330000000  0.6028760000000  0.5039140000000 1.0
C      1  0.5288750000000  0.4501070000000  0.5356200000000 1.0
C      1  0.6081670000000  0.5045830000000  0.4769090000000 1.0
C      1  0.4727130000000  0.4073490000000  0.3902110000000 1.0
C      1  0.5325960000000  0.5325850000000  0.5298280000000 1.0
C      1  0.4737580000000  0.5522270000000  0.5083320000000 1.0
C      1  0.5106720000000  0.4961020000000  0.5182990000000 1.0
C      1  0.4617630000000  0.5586610000000  0.3973500000000 1.0
C      1  0.4485430000000  0.4075420000000  0.4025740000000 1.0
C      1  0.5744490000000  0.5683530000000  0.5267550000000 1.0
C      1  0.5396950000000  0.4488140000000  0.4352720000000 1.0
C      1  0.4648810000000  0.5828890000000  0.4143730000000 1.0
C      1  0.6076690000000  0.5202220000000  0.5011840000000 1.0
C      1  0.4686620000000  0.5855150000000  0.5474230000000 1.0
C      1  0.5001830000000  0.5158990000000  0.6340000000000 1.0
C      1  0.4718170000000  0.3071550000000  0.4856600000000 1.0
C      1  0.4017180000000  0.4146880000000  0.5323040000000 1.0
C      1  0.5352110000000  0.3863460000000  0.5581020000000 1.0
C      1  0.4275270000000  0.5223080000000  0.4025420000000 1.0
C      1  0.6057080000000  0.5602500000000  0.3779900000000 1.0
C      1  0.5539450000000  0.4789870000000  0.4778300000000 1.0
C      1  0.4042910000000  0.5269520000000  0.5126060000000 1.0
C      1  0.4850030000000  0.3579160000000  0.4822700000000 1.0
C      1  0.5050220000000  0.4339210000000  0.6009330000000 1.0
C      1  0.5255220000000  0.5267640000000  0.6273950000000 1.0
C      1  0.5368980000000  0.6023480000000  0.4371750000000 1.0
C      1  0.5186790000000  0.4294380000000  0.4447930000000 1.0
C      1  0.5144120000000  0.3973250000000  0.4880190000000 1.0
C      1  0.4708130000000  0.4601910000000  0.4551300000000 1.0
C      1  0.5523540000000  0.4303510000000  0.4786630000000 1.0
C      1  0.4028830000000  0.5490470000000  0.4930310000000 1.0
C      1  0.5037720000000  0.4430220000000  0.4903350000000 1.0
C      1  0.4162490000000  0.4514200000000  0.4814170000000 1.0
C      1  0.5252300000000  0.4544040000000  0.6100260000000 1.0
C      1  0.4342300000000  0.4669840000000  0.5375740000000 1.0
C      1  0.5126330000000  0.3930420000000  0.5408590000000 1.0
C      1  0.5540540000000  0.4006130000000  0.5180440000000 1.0
END
