TITL C-612601-4209-1033 0.500333455286697 125000 -304.666173979642 0 0 52 (C1) n - 1
REM
REM in /home/nfs/bkarasulu/CARBON/AIRSS/Generating-Clusters/TERSOFF/Only-C1/FIRE-HFTN
REM
REM
REM
REM
REM
REM ./C.cell (11c1c37f851c82e70ff6c80c92926a4b)
REM AIRSS Version 0.9.1 bugfix July 2018 build 013d7b7c2542+ Fri, 06 Jul 2018 19:26:36 +0100
REM compiler GCC version 9.2.1 20190827 (Red Hat 9.2.1-1)
REM options -cpp -mtune=generic -march=x86-64 -g -O0 -fpre-include=/usr/include/finclude/math-vector-fortran.h
REM seed 22464015 1065519548 623311258 445010294 247909839 -852290382 -1744177326 -1500100632 272231218 1976281723 -373741683 585292589 -531097674 199743505 254409811 -905768337 -2016405672 729834080 -1921869873 -934420378 -842033911 1836673834 -219586748 -231533636 2039300186 -779143605 -1324400646 602144564 -1553187068 844057740 1455137752 1058019446 143824801
REM
CELL 1.54180   50.00000   50.00000   50.00000   90.00000   90.00000   90.00000
LATT -1
SFAC C  
C      1  0.4429970000000  0.5038000000000  0.5482270000000 1.0
C      1  0.4524600000000  0.5381840000000  0.5115680000000 1.0
C      1  0.4340550000000  0.4598610000000  0.5254210000000 1.0
C      1  0.4981920000000  0.5066220000000  0.5302710000000 1.0
C      1  0.4653350000000  0.4203030000000  0.5256660000000 1.0
C      1  0.5994150000000  0.5447300000000  0.5002880000000 1.0
C      1  0.4764890000000  0.5500750000000  0.5012340000000 1.0
C      1  0.4876310000000  0.5719260000000  0.5147360000000 1.0
C      1  0.4734400000000  0.4140810000000  0.4614510000000 1.0
C      1  0.6188850000000  0.5625020000000  0.5029930000000 1.0
C      1  0.5059500000000  0.4500880000000  0.4624580000000 1.0
C      1  0.6769830000000  0.6155350000000  0.5110650000000 1.0
C      1  0.5066750000000  0.4814220000000  0.4263950000000 1.0
C      1  0.5240310000000  0.4521940000000  0.5296100000000 1.0
C      1  0.4826870000000  0.4906330000000  0.5156420000000 1.0
C      1  0.5380020000000  0.4926060000000  0.4931950000000 1.0
C      1  0.5601930000000  0.5094940000000  0.4950740000000 1.0
C      1  0.4200600000000  0.5033120000000  0.5060080000000 1.0
C      1  0.4313240000000  0.5272350000000  0.4951880000000 1.0
C      1  0.4601290000000  0.5779880000000  0.4164530000000 1.0
C      1  0.5162210000000  0.4746040000000  0.4524180000000 1.0
C      1  0.4986910000000  0.4284720000000  0.5605450000000 1.0
C      1  0.4706870000000  0.4805030000000  0.4921180000000 1.0
C      1  0.5344690000000  0.4721750000000  0.5127460000000 1.0
C      1  0.4805960000000  0.4881960000000  0.4223390000000 1.0
C      1  0.4980650000000  0.5922860000000  0.5272140000000 1.0
C      1  0.4291600000000  0.4877120000000  0.5283960000000 1.0
C      1  0.6383540000000  0.5802740000000  0.5056980000000 1.0
C      1  0.4890420000000  0.5413650000000  0.4766450000000 1.0
C      1  0.5043720000000  0.4743600000000  0.5733250000000 1.0
C      1  0.5145650000000  0.4265710000000  0.5185400000000 1.0
C      1  0.5279930000000  0.4110410000000  0.4999140000000 1.0
C      1  0.4917870000000  0.4175420000000  0.5347860000000 1.0
C      1  0.5414670000000  0.3957850000000  0.4836380000000 1.0
C      1  0.4725900000000  0.4972730000000  0.4695760000000 1.0
C      1  0.4962380000000  0.5141570000000  0.4723810000000 1.0
C      1  0.4637100000000  0.4934140000000  0.4430270000000 1.0
C      1  0.4818190000000  0.4380930000000  0.4714320000000 1.0
C      1  0.4500650000000  0.5298760000000  0.5387210000000 1.0
C      1  0.4356960000000  0.5526440000000  0.4499420000000 1.0
C      1  0.4255720000000  0.5388740000000  0.4704820000000 1.0
C      1  0.4522520000000  0.4418500000000  0.5129340000000 1.0
C      1  0.5195500000000  0.4964510000000  0.4715830000000 1.0
C      1  0.4829470000000  0.5568980000000  0.4538250000000 1.0
C      1  0.5135550000000  0.4533330000000  0.5574140000000 1.0
C      1  0.4661950000000  0.4526960000000  0.4903770000000 1.0
C      1  0.5799350000000  0.5269680000000  0.4975950000000 1.0
C      1  0.5142370000000  0.5233980000000  0.5422290000000 1.0
C      1  0.4808920000000  0.4858550000000  0.5792780000000 1.0
C      1  0.6578290000000  0.5980510000000  0.5084040000000 1.0
C      1  0.4595850000000  0.5630720000000  0.4392470000000 1.0
C      1  0.4569340000000  0.4936210000000  0.5702860000000 1.0
END
