TITL C-612607-4507-85 0.0836064107361534 125000 -130.469603394851 0 0 24 (C1) n - 1
REM
REM in /home/nfs/bkarasulu/CARBON/AIRSS/Generating-Clusters/TERSOFF/Only-C1/FIRE-HFTN
REM
REM
REM
REM
REM
REM ./C.cell (11c1c37f851c82e70ff6c80c92926a4b)
REM AIRSS Version 0.9.1 bugfix July 2018 build 013d7b7c2542+ Fri, 06 Jul 2018 19:26:36 +0100
REM compiler GCC version 9.2.1 20190827 (Red Hat 9.2.1-1)
REM options -cpp -mtune=generic -march=x86-64 -g -O0 -fpre-include=/usr/include/finclude/math-vector-fortran.h
REM seed 1413488333 -1713927122 1528435902 -216819648 -1745586341 1508035190 -163332246 -2011902587 614148745 -1078650802 104947290 -305848526 650958437 -1830845767 -1557165286 2106825490 -498220858 77277364 -1761743988 1230441028 -1516062654 936124834 -783357113 -1303339447 1061078802 -2016753456 1343341170 -728884843 482127668 -255740498 950716691 1160740852 -1067345433
REM
CELL 1.54180   50.00000   50.00000   50.00000   90.00000   90.00000   90.00000
LATT -1
SFAC C  
C      1  0.4215320000000  0.4575150000000  0.5222340000000 1.0
C      1  0.4416930000000  0.4634850000000  0.5038410000000 1.0
C      1  0.4428680000000  0.4265460000000  0.4302300000000 1.0
C      1  0.4989930000000  0.6152840000000  0.5977930000000 1.0
C      1  0.5038520000000  0.5958610000000  0.5810960000000 1.0
C      1  0.5847400000000  0.4710050000000  0.4547060000000 1.0
C      1  0.4822260000000  0.4391600000000  0.3954320000000 1.0
C      1  0.4027280000000  0.4519540000000  0.5394010000000 1.0
C      1  0.4423470000000  0.4390090000000  0.4552540000000 1.0
C      1  0.4803390000000  0.4996100000000  0.5166030000000 1.0
C      1  0.4615300000000  0.4820270000000  0.5103900000000 1.0
C      1  0.4991530000000  0.5171910000000  0.5228130000000 1.0
C      1  0.5697780000000  0.5309870000000  0.5062580000000 1.0
C      1  0.4237000000000  0.4082290000000  0.4235010000000 1.0
C      1  0.5137320000000  0.5563820000000  0.5471530000000 1.0
C      1  0.5750980000000  0.5102190000000  0.4883560000000 1.0
C      1  0.5191140000000  0.5356370000000  0.5292440000000 1.0
C      1  0.4632070000000  0.4330190000000  0.4121600000000 1.0
C      1  0.5087910000000  0.5761140000000  0.5641190000000 1.0
C      1  0.6083570000000  0.5666570000000  0.5187040000000 1.0
C      1  0.4420170000000  0.4509130000000  0.4789020000000 1.0
C      1  0.5799620000000  0.4904550000000  0.4713950000000 1.0
C      1  0.5897850000000  0.5494040000000  0.5126510000000 1.0
C      1  0.5444560000000  0.5333370000000  0.5177670000000 1.0
END
