TITL C-612601-4209-18 0.00128374965080084 125000 -1100.45918998248 0 0 179 (C1) n - 1
REM
REM in /home/nfs/bkarasulu/CARBON/AIRSS/Generating-Clusters/TERSOFF/Only-C1/FIRE-HFTN
REM
REM
REM
REM
REM
REM ./C.cell (11c1c37f851c82e70ff6c80c92926a4b)
REM AIRSS Version 0.9.1 bugfix July 2018 build 013d7b7c2542+ Fri, 06 Jul 2018 19:26:36 +0100
REM compiler GCC version 9.2.1 20190827 (Red Hat 9.2.1-1)
REM options -cpp -mtune=generic -march=x86-64 -g -O0 -fpre-include=/usr/include/finclude/math-vector-fortran.h
REM seed -1346892609 -1339007164 -2122524294 -1733838991 735794436 1333362399 1077779141 -1647236363 1191885474 1808828401 -1205505114 -1846096792 1600673211 229407394 -406895497 902877838 1226866580 -1322484980 1282004590 -2033775519 -2132265407 290812310 605993596 1860435843 -966088392 317070336 -961331860 -1259933126 -1700556045 414835993 1627508940 1951431583 -1613936544
REM
CELL 1.54180   50.00000   50.00000   50.00000   90.00000   90.00000   90.00000
LATT -1
SFAC C  
C      1  0.5287910000000  0.5597020000000  0.4167000000000 1.0
C      1  0.4689410000000  0.4732330000000  0.3954050000000 1.0
C      1  0.5871300000000  0.4423980000000  0.4370020000000 1.0
C      1  0.4531200000000  0.3820570000000  0.4904950000000 1.0
C      1  0.5297420000000  0.4595310000000  0.4369890000000 1.0
C      1  0.3582680000000  0.4496850000000  0.5180890000000 1.0
C      1  0.3820700000000  0.4469360000000  0.5078390000000 1.0
C      1  0.5419220000000  0.5185530000000  0.3931700000000 1.0
C      1  0.4293380000000  0.4326490000000  0.5120570000000 1.0
C      1  0.4793350000000  0.5302970000000  0.4849350000000 1.0
C      1  0.5780470000000  0.5393860000000  0.4447130000000 1.0
C      1  0.3779090000000  0.5591320000000  0.4726270000000 1.0
C      1  0.5996540000000  0.4324740000000  0.4946890000000 1.0
C      1  0.5812890000000  0.5156030000000  0.5169160000000 1.0
C      1  0.4977980000000  0.5220820000000  0.5861240000000 1.0
C      1  0.4746850000000  0.4382850000000  0.4694850000000 1.0
C      1  0.5899230000000  0.4360240000000  0.5391740000000 1.0
C      1  0.5063000000000  0.5091950000000  0.5387400000000 1.0
C      1  0.5889660000000  0.4917630000000  0.4940790000000 1.0
C      1  0.5954240000000  0.5160610000000  0.4449720000000 1.0
C      1  0.4956510000000  0.5399380000000  0.3868640000000 1.0
C      1  0.5806600000000  0.4843950000000  0.4060580000000 1.0
C      1  0.4333510000000  0.5206600000000  0.5273970000000 1.0
C      1  0.5355410000000  0.4838690000000  0.6154880000000 1.0
C      1  0.5449910000000  0.4554370000000  0.5548560000000 1.0
C      1  0.3691510000000  0.5159180000000  0.5245610000000 1.0
C      1  0.5894510000000  0.4080570000000  0.5447600000000 1.0
C      1  0.4564270000000  0.4433320000000  0.5185340000000 1.0
C      1  0.5127870000000  0.4870600000000  0.3793380000000 1.0
C      1  0.4289600000000  0.5776710000000  0.5193440000000 1.0
C      1  0.5418060000000  0.4471590000000  0.3787200000000 1.0
C      1  0.4913720000000  0.5379390000000  0.4583800000000 1.0
C      1  0.5391670000000  0.5336700000000  0.4162930000000 1.0
C      1  0.5334040000000  0.5413950000000  0.6145000000000 1.0
C      1  0.5058380000000  0.4108420000000  0.4938220000000 1.0
C      1  0.4069960000000  0.4416920000000  0.4969020000000 1.0
C      1  0.4670950000000  0.5375530000000  0.3820370000000 1.0
C      1  0.5514750000000  0.5418290000000  0.5487710000000 1.0
C      1  0.5478080000000  0.4164630000000  0.4475280000000 1.0
C      1  0.5414060000000  0.4126360000000  0.5868520000000 1.0
C      1  0.4680800000000  0.4811490000000  0.5537170000000 1.0
C      1  0.4363440000000  0.3979540000000  0.4756950000000 1.0
C      1  0.4934210000000  0.5034120000000  0.6068620000000 1.0
C      1  0.4918120000000  0.5494530000000  0.5922540000000 1.0
C      1  0.4472060000000  0.5110270000000  0.5891950000000 1.0
C      1  0.5411750000000  0.3865170000000  0.5414390000000 1.0
C      1  0.5963760000000  0.5025630000000  0.4207570000000 1.0
C      1  0.5155510000000  0.6141020000000  0.4540310000000 1.0
C      1  0.5440500000000  0.5133480000000  0.6116830000000 1.0
C      1  0.5000360000000  0.3983500000000  0.5659120000000 1.0
C      1  0.4488130000000  0.4651110000000  0.5379190000000 1.0
C      1  0.4084970000000  0.5439500000000  0.4415260000000 1.0
C      1  0.5081360000000  0.4795360000000  0.6077390000000 1.0
C      1  0.4703030000000  0.5954540000000  0.4887730000000 1.0
C      1  0.5434150000000  0.5221330000000  0.5655220000000 1.0
C      1  0.4178490000000  0.5884030000000  0.4740220000000 1.0
C      1  0.4546480000000  0.4332230000000  0.4495670000000 1.0
C      1  0.5064910000000  0.5154480000000  0.4478100000000 1.0
C      1  0.4361570000000  0.5200200000000  0.4995020000000 1.0
C      1  0.4498700000000  0.5589490000000  0.4646540000000 1.0
C      1  0.4030820000000  0.5208570000000  0.5927860000000 1.0
C      1  0.5804750000000  0.5822250000000  0.5258730000000 1.0
C      1  0.3765010000000  0.5304780000000  0.4741440000000 1.0
C      1  0.5591600000000  0.5906000000000  0.5119110000000 1.0
C      1  0.4739170000000  0.3712790000000  0.5046910000000 1.0
C      1  0.5400730000000  0.6401520000000  0.4861970000000 1.0
C      1  0.5792380000000  0.4707460000000  0.5997790000000 1.0
C      1  0.5243440000000  0.5830530000000  0.5808940000000 1.0
C      1  0.4917050000000  0.4914610000000  0.4426280000000 1.0
C      1  0.4466900000000  0.5763480000000  0.5820120000000 1.0
C      1  0.4802830000000  0.4110080000000  0.5529380000000 1.0
C      1  0.4969000000000  0.4736820000000  0.3985720000000 1.0
C      1  0.5010570000000  0.4621620000000  0.5860290000000 1.0
C      1  0.5257950000000  0.5701000000000  0.4430070000000 1.0
C      1  0.5058140000000  0.5647280000000  0.3999940000000 1.0
C      1  0.5634120000000  0.4460080000000  0.5361130000000 1.0
C      1  0.5168690000000  0.5613620000000  0.5990980000000 1.0
C      1  0.5521710000000  0.5882500000000  0.5797250000000 1.0
C      1  0.5809690000000  0.4946350000000  0.5869680000000 1.0
C      1  0.5332620000000  0.3957660000000  0.4613750000000 1.0
C      1  0.5769320000000  0.5379380000000  0.5001470000000 1.0
C      1  0.5283030000000  0.3975450000000  0.5657150000000 1.0
C      1  0.4986500000000  0.3674160000000  0.5161980000000 1.0
C      1  0.6081830000000  0.4753840000000  0.5137930000000 1.0
C      1  0.4470610000000  0.5868790000000  0.4713190000000 1.0
C      1  0.4714440000000  0.4557330000000  0.4938240000000 1.0
C      1  0.4559360000000  0.5275500000000  0.5440850000000 1.0
C      1  0.4896730000000  0.4762260000000  0.5057350000000 1.0
C      1  0.4593770000000  0.5313940000000  0.3562990000000 1.0
C      1  0.5531870000000  0.4409990000000  0.5095640000000 1.0
C      1  0.4732740000000  0.6051750000000  0.5178230000000 1.0
C      1  0.5541800000000  0.4612670000000  0.6097770000000 1.0
C      1  0.5512260000000  0.4649090000000  0.4579280000000 1.0
C      1  0.4592320000000  0.5079300000000  0.5639580000000 1.0
C      1  0.6066560000000  0.4472280000000  0.5179770000000 1.0
C      1  0.5139050000000  0.5283430000000  0.5191160000000 1.0
C      1  0.6165120000000  0.4939370000000  0.5351170000000 1.0
C      1  0.5294700000000  0.6153090000000  0.4798040000000 1.0
C      1  0.5337930000000  0.5215430000000  0.4417850000000 1.0
C      1  0.4518960000000  0.5432100000000  0.4900850000000 1.0
C      1  0.4190220000000  0.5675840000000  0.5861070000000 1.0
C      1  0.5394900000000  0.4751250000000  0.3773510000000 1.0
C      1  0.4477650000000  0.5355960000000  0.6038690000000 1.0
C      1  0.4461970000000  0.5412700000000  0.4012750000000 1.0
C      1  0.6027210000000  0.5441270000000  0.5491460000000 1.0
C      1  0.4420100000000  0.4833620000000  0.4614940000000 1.0
C      1  0.4881120000000  0.4884730000000  0.5320830000000 1.0
C      1  0.3887770000000  0.5338380000000  0.5709230000000 1.0
C      1  0.4946520000000  0.5800400000000  0.4827620000000 1.0
C      1  0.5593220000000  0.5126410000000  0.5866820000000 1.0
C      1  0.3959880000000  0.5622230000000  0.5694890000000 1.0
C      1  0.6026790000000  0.5396290000000  0.4858460000000 1.0
C      1  0.5587190000000  0.4829350000000  0.4793830000000 1.0
C      1  0.4310700000000  0.4228390000000  0.4612760000000 1.0
C      1  0.5213500000000  0.4565100000000  0.5672870000000 1.0
C      1  0.4213090000000  0.4976590000000  0.5926510000000 1.0
C      1  0.6010050000000  0.5180960000000  0.5377360000000 1.0
C      1  0.5921220000000  0.5638750000000  0.4481390000000 1.0
C      1  0.5534750000000  0.5337100000000  0.4584730000000 1.0
C      1  0.4954540000000  0.3892760000000  0.4255630000000 1.0
C      1  0.4496110000000  0.4569060000000  0.5920690000000 1.0
C      1  0.4611390000000  0.4256040000000  0.4234320000000 1.0
C      1  0.4573520000000  0.5950350000000  0.5639580000000 1.0
C      1  0.5348680000000  0.4323360000000  0.4265350000000 1.0
C      1  0.3754370000000  0.5211430000000  0.5499380000000 1.0
C      1  0.4019730000000  0.5685570000000  0.4588780000000 1.0
C      1  0.4161050000000  0.4709830000000  0.4568370000000 1.0
C      1  0.4718230000000  0.5500180000000  0.5323770000000 1.0
C      1  0.5857310000000  0.4576300000000  0.4145080000000 1.0
C      1  0.4799440000000  0.6002050000000  0.5469180000000 1.0
C      1  0.4257230000000  0.4698890000000  0.5956680000000 1.0
C      1  0.5054850000000  0.5946180000000  0.5611020000000 1.0
C      1  0.4130720000000  0.4442420000000  0.4690620000000 1.0
C      1  0.5035100000000  0.3658120000000  0.4142830000000 1.0
C      1  0.5357460000000  0.4923420000000  0.4933920000000 1.0
C      1  0.5520330000000  0.5363360000000  0.4865320000000 1.0
C      1  0.5377870000000  0.4295610000000  0.3987340000000 1.0
C      1  0.3973970000000  0.4916600000000  0.4498450000000 1.0
C      1  0.4529660000000  0.4825060000000  0.4150390000000 1.0
C      1  0.5257260000000  0.4472940000000  0.5084740000000 1.0
C      1  0.4252950000000  0.5429950000000  0.4184550000000 1.0
C      1  0.5335830000000  0.5941540000000  0.5005080000000 1.0
C      1  0.5720460000000  0.4334320000000  0.4879810000000 1.0
C      1  0.5285860000000  0.3927620000000  0.4909750000000 1.0
C      1  0.4122520000000  0.5904120000000  0.5020280000000 1.0
C      1  0.4929970000000  0.4164620000000  0.4695860000000 1.0
C      1  0.5263530000000  0.3779700000000  0.5168190000000 1.0
C      1  0.5051260000000  0.5644560000000  0.4613600000000 1.0
C      1  0.5170270000000  0.4724850000000  0.4996950000000 1.0
C      1  0.4648460000000  0.5568560000000  0.5947370000000 1.0
C      1  0.4517480000000  0.5614420000000  0.5145830000000 1.0
C      1  0.5898530000000  0.5698500000000  0.5497240000000 1.0
C      1  0.5472930000000  0.4338340000000  0.6032030000000 1.0
C      1  0.5145480000000  0.5164350000000  0.3815830000000 1.0
C      1  0.5667240000000  0.4373690000000  0.4590800000000 1.0
C      1  0.4415560000000  0.4968590000000  0.4856450000000 1.0
C      1  0.5324340000000  0.5200860000000  0.4994140000000 1.0
C      1  0.6077530000000  0.5630330000000  0.4705490000000 1.0
C      1  0.6036750000000  0.5117620000000  0.4726830000000 1.0
C      1  0.5768870000000  0.5801900000000  0.5727470000000 1.0
C      1  0.5067380000000  0.4730190000000  0.4262730000000 1.0
C      1  0.4621960000000  0.4874020000000  0.4416520000000 1.0
C      1  0.4663260000000  0.5473620000000  0.4447060000000 1.0
C      1  0.5109560000000  0.5761820000000  0.5063290000000 1.0
C      1  0.3691160000000  0.5180380000000  0.4979710000000 1.0
C      1  0.5580090000000  0.4936600000000  0.3904830000000 1.0
C      1  0.5003740000000  0.5536040000000  0.5224190000000 1.0
C      1  0.3814810000000  0.5812120000000  0.5564560000000 1.0
C      1  0.4764530000000  0.4060570000000  0.4133550000000 1.0
C      1  0.3938180000000  0.5199000000000  0.4528610000000 1.0
C      1  0.4736990000000  0.4633200000000  0.5777750000000 1.0
C      1  0.5155600000000  0.5154700000000  0.5645930000000 1.0
C      1  0.4799640000000  0.4273540000000  0.5302010000000 1.0
C      1  0.5052820000000  0.3984030000000  0.4502990000000 1.0
C      1  0.5696020000000  0.3898050000000  0.5413500000000 1.0
C      1  0.5033200000000  0.6079700000000  0.4300830000000 1.0
C      1  0.4966730000000  0.5910990000000  0.4090850000000 1.0
C      1  0.5046730000000  0.4287600000000  0.5150090000000 1.0
C      1  0.4196800000000  0.5435670000000  0.6040660000000 1.0
END
