TITL C-612605-9286-402 4.65358778859562 125000 -242.506563459779 0 0 42 (C1) n - 1
REM
REM in /home/nfs/bkarasulu/CARBON/AIRSS/Generating-Clusters/TERSOFF/Only-C1/FIRE-HFTN
REM
REM
REM
REM
REM
REM ./C.cell (11c1c37f851c82e70ff6c80c92926a4b)
REM AIRSS Version 0.9.1 bugfix July 2018 build 013d7b7c2542+ Fri, 06 Jul 2018 19:26:36 +0100
REM compiler GCC version 9.2.1 20190827 (Red Hat 9.2.1-1)
REM options -cpp -mtune=generic -march=x86-64 -g -O0 -fpre-include=/usr/include/finclude/math-vector-fortran.h
REM seed -407812839 -2061834715 912514968 -610662427 -1144183571 2107138961 -1956987903 619392111 211713261 2072962531 -1211481918 -1197346733 114929000 1789972688 -1527923193 1838591485 1989535333 1731302953 1407397267 982262207 1175690434 570664420 -1208544235 1323803981 438386547 -1158390461 1314503601 2048203118 -990360039 22477699 -1125621313 -240180200 1718671747
REM
CELL 1.54180   50.00000   50.00000   50.00000   90.00000   90.00000   90.00000
LATT -1
SFAC C  
C      1  0.4851670000000  0.4768150000000  0.4613120000000 1.0
C      1  0.5548130000000  0.5508170000000  0.5427510000000 1.0
C      1  0.4370170000000  0.5730170000000  0.4962930000000 1.0
C      1  0.5002250000000  0.4646490000000  0.5907340000000 1.0
C      1  0.5151570000000  0.5669790000000  0.4782020000000 1.0
C      1  0.4589900000000  0.5741190000000  0.5114960000000 1.0
C      1  0.4735880000000  0.5638630000000  0.5332560000000 1.0
C      1  0.4486830000000  0.4495160000000  0.4466750000000 1.0
C      1  0.5211610000000  0.3401280000000  0.4258710000000 1.0
C      1  0.4958550000000  0.5235420000000  0.4713100000000 1.0
C      1  0.5181550000000  0.5400020000000  0.4749230000000 1.0
C      1  0.5399720000000  0.5727800000000  0.5448950000000 1.0
C      1  0.4505960000000  0.5096980000000  0.4580960000000 1.0
C      1  0.5332330000000  0.4209960000000  0.4794160000000 1.0
C      1  0.5166290000000  0.3872080000000  0.4488060000000 1.0
C      1  0.4157210000000  0.5568280000000  0.4937410000000 1.0
C      1  0.5135510000000  0.5014810000000  0.5535720000000 1.0
C      1  0.5065970000000  0.4826160000000  0.5729650000000 1.0
C      1  0.5506090000000  0.4556410000000  0.5146290000000 1.0
C      1  0.6105050000000  0.4868770000000  0.4794480000000 1.0
C      1  0.4879410000000  0.5819050000000  0.5499380000000 1.0
C      1  0.4299200000000  0.4944270000000  0.4499870000000 1.0
C      1  0.4477270000000  0.5223880000000  0.5368650000000 1.0
C      1  0.4240210000000  0.5200920000000  0.5247050000000 1.0
C      1  0.5157680000000  0.5834100000000  0.5474510000000 1.0
C      1  0.5892210000000  0.5016520000000  0.4765640000000 1.0
C      1  0.5668640000000  0.5157670000000  0.4747110000000 1.0
C      1  0.5189140000000  0.3634780000000  0.4372460000000 1.0
C      1  0.5141740000000  0.4121950000000  0.4609560000000 1.0
C      1  0.4758800000000  0.4510950000000  0.4541910000000 1.0
C      1  0.4951670000000  0.5211910000000  0.5459960000000 1.0
C      1  0.4290840000000  0.4679420000000  0.4449330000000 1.0
C      1  0.5454020000000  0.4361050000000  0.4974800000000 1.0
C      1  0.5436520000000  0.5285230000000  0.4748000000000 1.0
C      1  0.5394910000000  0.5007600000000  0.5417860000000 1.0
C      1  0.4776290000000  0.5039030000000  0.4639610000000 1.0
C      1  0.4723430000000  0.5358420000000  0.5392230000000 1.0
C      1  0.4926070000000  0.4289100000000  0.4549040000000 1.0
C      1  0.4746760000000  0.5973100000000  0.5682410000000 1.0
C      1  0.5546900000000  0.5242430000000  0.5417440000000 1.0
C      1  0.5487180000000  0.4774870000000  0.5295070000000 1.0
C      1  0.4098890000000  0.5337970000000  0.5064160000000 1.0
END
