TITL C-612601-4209-788 0.220921487647833 125000 -1131.37627644849 0 0 185 (C1) n - 1
REM
REM in /home/nfs/bkarasulu/CARBON/AIRSS/Generating-Clusters/TERSOFF/Only-C1/FIRE-HFTN
REM
REM
REM
REM
REM
REM ./C.cell (11c1c37f851c82e70ff6c80c92926a4b)
REM AIRSS Version 0.9.1 bugfix July 2018 build 013d7b7c2542+ Fri, 06 Jul 2018 19:26:36 +0100
REM compiler GCC version 9.2.1 20190827 (Red Hat 9.2.1-1)
REM options -cpp -mtune=generic -march=x86-64 -g -O0 -fpre-include=/usr/include/finclude/math-vector-fortran.h
REM seed 1598757961 1907477603 -1076352725 -564944607 -1510757901 660525196 662587622 -323521033 904013773 -1765206973 -728011630 1612159859 -1212791966 1372888625 -300245353 1396333749 -877578383 1654484370 497576456 -957622399 1556774618 1910671929 551138547 -1516167493 -908556746 829039770 -1869493265 -972282545 -1315177672 609419818 1066957675 1025332476 -919684094
REM
CELL 1.54180   50.00000   50.00000   50.00000   90.00000   90.00000   90.00000
LATT -1
SFAC C  
C      1  0.5068840000000  0.6119710000000  0.5007380000000 1.0
C      1  0.4817230000000  0.5662980000000  0.6009240000000 1.0
C      1  0.4693530000000  0.5825220000000  0.5208600000000 1.0
C      1  0.4601970000000  0.4831360000000  0.4896100000000 1.0
C      1  0.4463210000000  0.5985370000000  0.4209480000000 1.0
C      1  0.5468720000000  0.3784030000000  0.5472190000000 1.0
C      1  0.5234280000000  0.5860580000000  0.5909410000000 1.0
C      1  0.3652480000000  0.4528200000000  0.5591250000000 1.0
C      1  0.4561200000000  0.6113230000000  0.4455310000000 1.0
C      1  0.5045670000000  0.6122600000000  0.4720450000000 1.0
C      1  0.4368460000000  0.4482760000000  0.4663380000000 1.0
C      1  0.5715280000000  0.4531120000000  0.5440510000000 1.0
C      1  0.4504220000000  0.5285900000000  0.5159760000000 1.0
C      1  0.5667020000000  0.4478470000000  0.5720090000000 1.0
C      1  0.5635770000000  0.5108550000000  0.5771500000000 1.0
C      1  0.4504590000000  0.5299080000000  0.5904210000000 1.0
C      1  0.3880930000000  0.5153610000000  0.4536580000000 1.0
C      1  0.4838030000000  0.5274960000000  0.3901980000000 1.0
C      1  0.4815440000000  0.5461840000000  0.4361540000000 1.0
C      1  0.4416060000000  0.4318360000000  0.5973120000000 1.0
C      1  0.6043860000000  0.4769940000000  0.5774420000000 1.0
C      1  0.5767380000000  0.4543360000000  0.4242360000000 1.0
C      1  0.5978190000000  0.5518050000000  0.5811590000000 1.0
C      1  0.4924700000000  0.4989960000000  0.5803350000000 1.0
C      1  0.4417950000000  0.4495350000000  0.4380680000000 1.0
C      1  0.4019740000000  0.5874260000000  0.4583480000000 1.0
C      1  0.4418490000000  0.4021130000000  0.4908420000000 1.0
C      1  0.5699700000000  0.5895930000000  0.5682470000000 1.0
C      1  0.4475320000000  0.6256580000000  0.5369780000000 1.0
C      1  0.4497080000000  0.4265190000000  0.4791050000000 1.0
C      1  0.5489250000000  0.5813060000000  0.4225390000000 1.0
C      1  0.5148600000000  0.4396660000000  0.5222530000000 1.0
C      1  0.5672500000000  0.3708150000000  0.5320020000000 1.0
C      1  0.5494710000000  0.5872450000000  0.3934670000000 1.0
C      1  0.5995410000000  0.5348230000000  0.5263940000000 1.0
C      1  0.4592590000000  0.4460970000000  0.6130230000000 1.0
C      1  0.3541600000000  0.5188290000000  0.5864530000000 1.0
C      1  0.4434870000000  0.5216660000000  0.5418190000000 1.0
C      1  0.5066980000000  0.4772240000000  0.4504140000000 1.0
C      1  0.5938250000000  0.4616360000000  0.4022500000000 1.0
C      1  0.4482650000000  0.6031990000000  0.5219250000000 1.0
C      1  0.5592660000000  0.5979610000000  0.5425880000000 1.0
C      1  0.5725180000000  0.5362140000000  0.5161690000000 1.0
C      1  0.3934310000000  0.4336960000000  0.5081820000000 1.0
C      1  0.5241240000000  0.4131910000000  0.5731390000000 1.0
C      1  0.4989170000000  0.4116740000000  0.4191900000000 1.0
C      1  0.6279130000000  0.4943720000000  0.4140780000000 1.0
C      1  0.5671030000000  0.4927890000000  0.4870130000000 1.0
C      1  0.4781110000000  0.4680400000000  0.6161930000000 1.0
C      1  0.5296190000000  0.6261320000000  0.5126510000000 1.0
C      1  0.4382960000000  0.3897250000000  0.5377580000000 1.0
C      1  0.4836060000000  0.6061020000000  0.4517610000000 1.0
C      1  0.5315990000000  0.3629030000000  0.4621750000000 1.0
C      1  0.4223230000000  0.4104640000000  0.5493310000000 1.0
C      1  0.4683380000000  0.4488760000000  0.4270850000000 1.0
C      1  0.4763520000000  0.3729310000000  0.4407610000000 1.0
C      1  0.5187280000000  0.4219630000000  0.5023060000000 1.0
C      1  0.5268150000000  0.4197870000000  0.4166640000000 1.0
C      1  0.5085440000000  0.5701080000000  0.6126700000000 1.0
C      1  0.5212360000000  0.4965630000000  0.6284680000000 1.0
C      1  0.5495970000000  0.4791050000000  0.5040730000000 1.0
C      1  0.5816170000000  0.3703330000000  0.5096750000000 1.0
C      1  0.4257590000000  0.4775660000000  0.5610000000000 1.0
C      1  0.5248250000000  0.3838900000000  0.4462470000000 1.0
C      1  0.3837840000000  0.4472800000000  0.4863550000000 1.0
C      1  0.4556960000000  0.6209900000000  0.3728010000000 1.0
C      1  0.4230840000000  0.5038580000000  0.4157580000000 1.0
C      1  0.5426610000000  0.4048210000000  0.4360920000000 1.0
C      1  0.5790050000000  0.4684640000000  0.5885170000000 1.0
C      1  0.5866680000000  0.3773340000000  0.4845570000000 1.0
C      1  0.4102660000000  0.6128270000000  0.4627790000000 1.0
C      1  0.5958610000000  0.5770730000000  0.5682570000000 1.0
C      1  0.3766560000000  0.4776680000000  0.5596670000000 1.0
C      1  0.5308940000000  0.5347940000000  0.5458520000000 1.0
C      1  0.4859370000000  0.5687520000000  0.5722510000000 1.0
C      1  0.4703680000000  0.5310490000000  0.4145530000000 1.0
C      1  0.5365010000000  0.4591280000000  0.3815870000000 1.0
C      1  0.4368910000000  0.5679840000000  0.4922160000000 1.0
C      1  0.5307100000000  0.6144490000000  0.4594320000000 1.0
C      1  0.5346570000000  0.4373210000000  0.3966330000000 1.0
C      1  0.4541370000000  0.3906640000000  0.5141970000000 1.0
C      1  0.4702060000000  0.4433060000000  0.3610530000000 1.0
C      1  0.5917290000000  0.4526780000000  0.4670700000000 1.0
C      1  0.5078370000000  0.5855590000000  0.5660570000000 1.0
C      1  0.5199790000000  0.5462140000000  0.6257390000000 1.0
C      1  0.4177200000000  0.5627590000000  0.4480380000000 1.0
C      1  0.5872230000000  0.5272640000000  0.5780920000000 1.0
C      1  0.6131850000000  0.4915590000000  0.5562850000000 1.0
C      1  0.4724320000000  0.4891670000000  0.5979100000000 1.0
C      1  0.4449050000000  0.5191530000000  0.4163030000000 1.0
C      1  0.4417610000000  0.5574430000000  0.4663270000000 1.0
C      1  0.4133310000000  0.4295440000000  0.5285080000000 1.0
C      1  0.5513060000000  0.5293890000000  0.3604360000000 1.0
C      1  0.5578190000000  0.5168040000000  0.4070230000000 1.0
C      1  0.4624750000000  0.5109960000000  0.4963050000000 1.0
C      1  0.4352860000000  0.6230850000000  0.4604440000000 1.0
C      1  0.4470010000000  0.4619140000000  0.5488040000000 1.0
C      1  0.4991730000000  0.5370130000000  0.5066070000000 1.0
C      1  0.5771620000000  0.4783660000000  0.4653790000000 1.0
C      1  0.5029760000000  0.5373590000000  0.5361650000000 1.0
C      1  0.4286720000000  0.4196500000000  0.5763400000000 1.0
C      1  0.4014290000000  0.4827890000000  0.5463800000000 1.0
C      1  0.4813500000000  0.4926600000000  0.3522320000000 1.0
C      1  0.5533850000000  0.4703720000000  0.5311650000000 1.0
C      1  0.5122300000000  0.5171900000000  0.5884470000000 1.0
C      1  0.3903380000000  0.4874320000000  0.4485230000000 1.0
C      1  0.6099540000000  0.5107730000000  0.5375910000000 1.0
C      1  0.5709550000000  0.4809610000000  0.4374060000000 1.0
C      1  0.4933530000000  0.4481220000000  0.5742040000000 1.0
C      1  0.4957940000000  0.5928240000000  0.4286780000000 1.0
C      1  0.4977970000000  0.4207460000000  0.5834110000000 1.0
C      1  0.4352520000000  0.4477630000000  0.5273120000000 1.0
C      1  0.5284220000000  0.4762630000000  0.5468930000000 1.0
C      1  0.5420590000000  0.5335180000000  0.4229140000000 1.0
C      1  0.4005820000000  0.4946640000000  0.5203510000000 1.0
C      1  0.4269030000000  0.4879880000000  0.5869640000000 1.0
C      1  0.4744990000000  0.4545040000000  0.5533860000000 1.0
C      1  0.4196150000000  0.4572310000000  0.4227950000000 1.0
C      1  0.5001710000000  0.3879060000000  0.5367240000000 1.0
C      1  0.5814630000000  0.3905760000000  0.4621350000000 1.0
C      1  0.5507420000000  0.5784270000000  0.5869260000000 1.0
C      1  0.3862760000000  0.5178060000000  0.5167330000000 1.0
C      1  0.4879250000000  0.4685220000000  0.4330540000000 1.0
C      1  0.5387420000000  0.5281380000000  0.5746860000000 1.0
C      1  0.6124810000000  0.5790540000000  0.5454710000000 1.0
C      1  0.5205400000000  0.4591470000000  0.5687520000000 1.0
C      1  0.5270210000000  0.6034220000000  0.3888360000000 1.0
C      1  0.4765800000000  0.4338800000000  0.4852260000000 1.0
C      1  0.6197090000000  0.4548680000000  0.4700000000000 1.0
C      1  0.5152400000000  0.5843570000000  0.5386160000000 1.0
C      1  0.4549410000000  0.5572010000000  0.5121860000000 1.0
C      1  0.5029120000000  0.5646910000000  0.4311890000000 1.0
C      1  0.5215120000000  0.4844280000000  0.4995410000000 1.0
C      1  0.5117210000000  0.4888710000000  0.5267040000000 1.0
C      1  0.4138860000000  0.4832420000000  0.4983380000000 1.0
C      1  0.6142700000000  0.5589180000000  0.5275290000000 1.0
C      1  0.5503030000000  0.5506210000000  0.5932800000000 1.0
C      1  0.5481570000000  0.5394080000000  0.6200790000000 1.0
C      1  0.5411850000000  0.4845190000000  0.3753500000000 1.0
C      1  0.3821880000000  0.4660740000000  0.4663860000000 1.0
C      1  0.5146290000000  0.6094680000000  0.4143410000000 1.0
C      1  0.5683890000000  0.4102230000000  0.4469730000000 1.0
C      1  0.4827410000000  0.3934640000000  0.5145550000000 1.0
C      1  0.4703720000000  0.4284150000000  0.3831430000000 1.0
C      1  0.4813870000000  0.5298650000000  0.4839350000000 1.0
C      1  0.6415640000000  0.4846840000000  0.4351860000000 1.0
C      1  0.5058380000000  0.4748410000000  0.4784380000000 1.0
C      1  0.4857560000000  0.5141860000000  0.3672360000000 1.0
C      1  0.4594710000000  0.5505110000000  0.6076030000000 1.0
C      1  0.4478040000000  0.5028140000000  0.5977730000000 1.0
C      1  0.4577960000000  0.5325050000000  0.5628870000000 1.0
C      1  0.4811790000000  0.4632200000000  0.4866290000000 1.0
C      1  0.5234870000000  0.3925610000000  0.5531370000000 1.0
C      1  0.5494520000000  0.5027470000000  0.6214340000000 1.0
C      1  0.3642830000000  0.4985580000000  0.5735790000000 1.0
C      1  0.5084870000000  0.5211940000000  0.6176580000000 1.0
C      1  0.4981740000000  0.3883540000000  0.4359360000000 1.0
C      1  0.4506720000000  0.6103030000000  0.3960310000000 1.0
C      1  0.4774530000000  0.4276140000000  0.4102330000000 1.0
C      1  0.6385050000000  0.4687280000000  0.4565790000000 1.0
C      1  0.5804520000000  0.4356020000000  0.4457000000000 1.0
C      1  0.5691300000000  0.5202330000000  0.4930020000000 1.0
C      1  0.5031300000000  0.4739110000000  0.6301360000000 1.0
C      1  0.4748930000000  0.4669600000000  0.3497660000000 1.0
C      1  0.4934820000000  0.4121500000000  0.4945340000000 1.0
C      1  0.4687410000000  0.5450610000000  0.4619520000000 1.0
C      1  0.5380470000000  0.6067040000000  0.4334390000000 1.0
C      1  0.5498990000000  0.5107190000000  0.3803070000000 1.0
C      1  0.5511260000000  0.6220980000000  0.5293440000000 1.0
C      1  0.4346390000000  0.4724550000000  0.4827860000000 1.0
C      1  0.5504120000000  0.5492550000000  0.5298180000000 1.0
C      1  0.5403350000000  0.4378620000000  0.5752790000000 1.0
C      1  0.4306850000000  0.5748010000000  0.4234050000000 1.0
C      1  0.3992380000000  0.5392750000000  0.4480180000000 1.0
C      1  0.5629250000000  0.4910180000000  0.5984170000000 1.0
C      1  0.4904410000000  0.4485400000000  0.5305010000000 1.0
C      1  0.6018630000000  0.4897200000000  0.4044960000000 1.0
C      1  0.5314880000000  0.5586860000000  0.4284700000000 1.0
C      1  0.4821240000000  0.5457720000000  0.5558520000000 1.0
C      1  0.5784470000000  0.5014620000000  0.4183850000000 1.0
C      1  0.4078180000000  0.4824130000000  0.4260940000000 1.0
C      1  0.5426560000000  0.5768560000000  0.5321230000000 1.0
C      1  0.4288320000000  0.5930810000000  0.5034070000000 1.0
C      1  0.4837040000000  0.4030700000000  0.5984980000000 1.0
C      1  0.4963090000000  0.5918310000000  0.5185270000000 1.0
END
