TITL C-612602-9376-754 170.077446474059 125000 -1156.67812274866 0 0 188 (C1) n - 1
REM
REM in /home/nfs/bkarasulu/CARBON/AIRSS/Generating-Clusters/TERSOFF/Only-C1/FIRE-HFTN
REM
REM
REM
REM
REM
REM ./C.cell (11c1c37f851c82e70ff6c80c92926a4b)
REM AIRSS Version 0.9.1 bugfix July 2018 build 013d7b7c2542+ Fri, 06 Jul 2018 19:26:36 +0100
REM compiler GCC version 9.2.1 20190827 (Red Hat 9.2.1-1)
REM options -cpp -mtune=generic -march=x86-64 -g -O0 -fpre-include=/usr/include/finclude/math-vector-fortran.h
REM seed -24681947 1095123246 -2103608888 1027089818 -1476084492 -1028880192 -270353188 -1511299957 424217681 -252186603 -1945308242 1838610129 1650988457 1075425441 1300557179 1068028754 -827813025 -1746229815 1882368747 819010678 -975759200 -1937136183 1359336878 707461200 -1812755509 541493901 2063073379 20700152 -1639741341 -1053616903 498962918 -2006146781 715184224
REM
CELL 1.54180   50.00000   50.00000   50.00000   90.00000   90.00000   90.00000
LATT -1
SFAC C  
C      1  0.4586680000000  0.5254090000000  0.5468380000000 1.0
C      1  0.6131040000000  0.5434970000000  0.3538340000000 1.0
C      1  0.5401030000000  0.4394150000000  0.4564760000000 1.0
C      1  0.5422900000000  0.4625260000000  0.6319230000000 1.0
C      1  0.3971830000000  0.4398640000000  0.4532420000000 1.0
C      1  0.4327280000000  0.4692340000000  0.4703390000000 1.0
C      1  0.4822000000000  0.3724790000000  0.5312170000000 1.0
C      1  0.4714540000000  0.5199010000000  0.3915320000000 1.0
C      1  0.5337530000000  0.6361890000000  0.5112930000000 1.0
C      1  0.6247870000000  0.5177950000000  0.3575920000000 1.0
C      1  0.5814650000000  0.4151060000000  0.4669760000000 1.0
C      1  0.4055240000000  0.5714900000000  0.4932610000000 1.0
C      1  0.5850690000000  0.5512080000000  0.5965500000000 1.0
C      1  0.5997440000000  0.5067880000000  0.6105790000000 1.0
C      1  0.5155690000000  0.4594160000000  0.6334470000000 1.0
C      1  0.4758630000000  0.5046960000000  0.4327810000000 1.0
C      1  0.5655930000000  0.4719090000000  0.6219800000000 1.0
C      1  0.5155040000000  0.4243060000000  0.4593450000000 1.0
C      1  0.6132480000000  0.4943470000000  0.3475420000000 1.0
C      1  0.5605920000000  0.5478990000000  0.5829750000000 1.0
C      1  0.5212310000000  0.4612160000000  0.5114860000000 1.0
C      1  0.4022090000000  0.4139010000000  0.4569270000000 1.0
C      1  0.3874180000000  0.5209890000000  0.4856930000000 1.0
C      1  0.6058700000000  0.4583350000000  0.4674870000000 1.0
C      1  0.4689580000000  0.5850460000000  0.5132760000000 1.0
C      1  0.4885320000000  0.6300430000000  0.4840450000000 1.0
C      1  0.4881370000000  0.4897100000000  0.5600520000000 1.0
C      1  0.5540740000000  0.3937200000000  0.4188200000000 1.0
C      1  0.4528020000000  0.4880400000000  0.4309430000000 1.0
C      1  0.4725600000000  0.5535860000000  0.5818510000000 1.0
C      1  0.3896990000000  0.4716350000000  0.4919430000000 1.0
C      1  0.5941180000000  0.4824030000000  0.4779350000000 1.0
C      1  0.4319640000000  0.5748400000000  0.4823220000000 1.0
C      1  0.4747390000000  0.4938690000000  0.4773920000000 1.0
C      1  0.5764920000000  0.6093440000000  0.4328000000000 1.0
C      1  0.4062810000000  0.6093310000000  0.5285030000000 1.0
C      1  0.5855210000000  0.5379600000000  0.4404560000000 1.0
C      1  0.4748540000000  0.4468440000000  0.4345340000000 1.0
C      1  0.4363610000000  0.5242340000000  0.4670750000000 1.0
C      1  0.3455230000000  0.4803870000000  0.5310120000000 1.0
C      1  0.3702790000000  0.4835460000000  0.4259890000000 1.0
C      1  0.6391880000000  0.5168640000000  0.3822940000000 1.0
C      1  0.4473130000000  0.4736980000000  0.6009780000000 1.0
C      1  0.5760380000000  0.4863260000000  0.4110860000000 1.0
C      1  0.5240160000000  0.4865090000000  0.5253140000000 1.0
C      1  0.4447000000000  0.5499420000000  0.4751320000000 1.0
C      1  0.5148170000000  0.5939140000000  0.5187470000000 1.0
C      1  0.3785160000000  0.4085490000000  0.5258120000000 1.0
C      1  0.5215220000000  0.4731480000000  0.5844760000000 1.0
C      1  0.5318390000000  0.4815490000000  0.4258430000000 1.0
C      1  0.5143350000000  0.5253880000000  0.4963700000000 1.0
C      1  0.4879590000000  0.5088800000000  0.4574870000000 1.0
C      1  0.5446220000000  0.5596880000000  0.4843430000000 1.0
C      1  0.3927600000000  0.5154140000000  0.4568960000000 1.0
C      1  0.3518040000000  0.4107130000000  0.5339180000000 1.0
C      1  0.5124270000000  0.4980010000000  0.5480110000000 1.0
C      1  0.5423660000000  0.4549460000000  0.4329090000000 1.0
C      1  0.5229540000000  0.4094630000000  0.5324320000000 1.0
C      1  0.5129340000000  0.4256000000000  0.5088400000000 1.0
C      1  0.5580980000000  0.5282280000000  0.4405500000000 1.0
C      1  0.4834610000000  0.4298720000000  0.5056090000000 1.0
C      1  0.4363700000000  0.5001360000000  0.6033130000000 1.0
C      1  0.4040810000000  0.4525140000000  0.5077060000000 1.0
C      1  0.4785790000000  0.5590710000000  0.5066970000000 1.0
C      1  0.4926080000000  0.4745100000000  0.5835300000000 1.0
C      1  0.5827210000000  0.5926720000000  0.5477230000000 1.0
C      1  0.4922950000000  0.5533070000000  0.4619390000000 1.0
C      1  0.4316550000000  0.4542270000000  0.5011740000000 1.0
C      1  0.5041700000000  0.3860390000000  0.5378170000000 1.0
C      1  0.3869750000000  0.4890900000000  0.4474990000000 1.0
C      1  0.6146590000000  0.4252690000000  0.5239330000000 1.0
C      1  0.6020590000000  0.5335450000000  0.6077900000000 1.0
C      1  0.4873570000000  0.4591830000000  0.6292950000000 1.0
C      1  0.5412850000000  0.6043440000000  0.5727330000000 1.0
C      1  0.3799020000000  0.5058130000000  0.5533770000000 1.0
C      1  0.3809540000000  0.4970630000000  0.5021740000000 1.0
C      1  0.4338790000000  0.5344970000000  0.5384330000000 1.0
C      1  0.4173300000000  0.5252020000000  0.4456610000000 1.0
C      1  0.4995480000000  0.5913100000000  0.5915410000000 1.0
C      1  0.5272810000000  0.5819390000000  0.5884110000000 1.0
C      1  0.4091930000000  0.3928990000000  0.4718440000000 1.0
C      1  0.4514730000000  0.6211610000000  0.5519280000000 1.0
C      1  0.4119080000000  0.3808470000000  0.4971300000000 1.0
C      1  0.4698640000000  0.6111710000000  0.4730990000000 1.0
C      1  0.3327050000000  0.4573740000000  0.5349800000000 1.0
C      1  0.3985700000000  0.5439380000000  0.5001020000000 1.0
C      1  0.5590480000000  0.6073460000000  0.5504050000000 1.0
C      1  0.4881100000000  0.5997920000000  0.5284480000000 1.0
C      1  0.5940690000000  0.5593460000000  0.4234630000000 1.0
C      1  0.5858700000000  0.5855980000000  0.4275730000000 1.0
C      1  0.5546450000000  0.3837350000000  0.4938770000000 1.0
C      1  0.4466250000000  0.5289080000000  0.3998530000000 1.0
C      1  0.5665340000000  0.4643950000000  0.5164150000000 1.0
C      1  0.5596500000000  0.5013280000000  0.5846560000000 1.0
C      1  0.5170620000000  0.4313160000000  0.5548330000000 1.0
C      1  0.5180890000000  0.4712970000000  0.4847690000000 1.0
C      1  0.6063300000000  0.5206030000000  0.4494140000000 1.0
C      1  0.5804290000000  0.4613720000000  0.3696750000000 1.0
C      1  0.4527970000000  0.5951370000000  0.4908810000000 1.0
C      1  0.6081400000000  0.5595290000000  0.3753150000000 1.0
C      1  0.4768090000000  0.6004270000000  0.4472620000000 1.0
C      1  0.6282590000000  0.5279240000000  0.4062230000000 1.0
C      1  0.4883520000000  0.4335800000000  0.4557520000000 1.0
C      1  0.4949440000000  0.6148510000000  0.5749460000000 1.0
C      1  0.5000750000000  0.4342820000000  0.3941280000000 1.0
C      1  0.4262200000000  0.6190330000000  0.5434360000000 1.0
C      1  0.6040490000000  0.4316510000000  0.4618970000000 1.0
C      1  0.5229410000000  0.5272640000000  0.6014290000000 1.0
C      1  0.4598780000000  0.6242300000000  0.4019580000000 1.0
C      1  0.5558080000000  0.4626490000000  0.5442300000000 1.0
C      1  0.4288300000000  0.4567700000000  0.5868230000000 1.0
C      1  0.4147950000000  0.5090540000000  0.5890120000000 1.0
C      1  0.4794290000000  0.4439950000000  0.4812550000000 1.0
C      1  0.5612090000000  0.4338360000000  0.4770650000000 1.0
C      1  0.5248400000000  0.5708330000000  0.5040490000000 1.0
C      1  0.3926860000000  0.4326520000000  0.5231270000000 1.0
C      1  0.4897870000000  0.5045570000000  0.4078120000000 1.0
C      1  0.5731710000000  0.4016100000000  0.5340300000000 1.0
C      1  0.5321400000000  0.4991400000000  0.5937220000000 1.0
C      1  0.4922070000000  0.5765500000000  0.4465370000000 1.0
C      1  0.5733570000000  0.5257740000000  0.5402120000000 1.0
C      1  0.3688660000000  0.5294760000000  0.5624410000000 1.0
C      1  0.5064270000000  0.4808460000000  0.4111430000000 1.0
C      1  0.5709760000000  0.4385310000000  0.5049790000000 1.0
C      1  0.5952250000000  0.5437260000000  0.5412320000000 1.0
C      1  0.3968010000000  0.5927310000000  0.5096950000000 1.0
C      1  0.4682830000000  0.6128640000000  0.4238510000000 1.0
C      1  0.5348250000000  0.5545740000000  0.5941360000000 1.0
C      1  0.4709000000000  0.4494870000000  0.6497310000000 1.0
C      1  0.3911510000000  0.3857460000000  0.5156070000000 1.0
C      1  0.6035930000000  0.4887890000000  0.4161310000000 1.0
C      1  0.4008810000000  0.4679620000000  0.4633940000000 1.0
C      1  0.4591590000000  0.3672840000000  0.5189270000000 1.0
C      1  0.5340730000000  0.4543690000000  0.5634740000000 1.0
C      1  0.5571670000000  0.5241970000000  0.5644760000000 1.0
C      1  0.6078190000000  0.5073110000000  0.4743690000000 1.0
C      1  0.3691670000000  0.4956810000000  0.5285980000000 1.0
C      1  0.5967100000000  0.4739430000000  0.3525640000000 1.0
C      1  0.5433760000000  0.4824280000000  0.4768330000000 1.0
C      1  0.5459820000000  0.4165070000000  0.4040240000000 1.0
C      1  0.5776090000000  0.4906270000000  0.6041370000000 1.0
C      1  0.5596320000000  0.5236500000000  0.5155020000000 1.0
C      1  0.4474390000000  0.4788250000000  0.5382170000000 1.0
C      1  0.5699720000000  0.4623080000000  0.3956270000000 1.0
C      1  0.5490530000000  0.3942410000000  0.5211170000000 1.0
C      1  0.4548290000000  0.4406870000000  0.6682640000000 1.0
C      1  0.4793030000000  0.5735550000000  0.5980090000000 1.0
C      1  0.4785970000000  0.6135230000000  0.5518160000000 1.0
C      1  0.5213010000000  0.6258810000000  0.5734540000000 1.0
C      1  0.5651570000000  0.5453630000000  0.4981280000000 1.0
C      1  0.4638710000000  0.4979730000000  0.5491380000000 1.0
C      1  0.6237400000000  0.5171990000000  0.4943140000000 1.0
C      1  0.5878350000000  0.4217570000000  0.5210330000000 1.0
C      1  0.5346270000000  0.5096460000000  0.5100100000000 1.0
C      1  0.5116390000000  0.6378750000000  0.4957470000000 1.0
C      1  0.5053450000000  0.5486830000000  0.5144660000000 1.0
C      1  0.4703350000000  0.4378270000000  0.5291790000000 1.0
C      1  0.4459490000000  0.4979520000000  0.4769430000000 1.0
C      1  0.5556900000000  0.4427040000000  0.4103850000000 1.0
C      1  0.3992250000000  0.4932710000000  0.5705250000000 1.0
C      1  0.5593940000000  0.3814290000000  0.4423300000000 1.0
C      1  0.4272720000000  0.5300640000000  0.4191940000000 1.0
C      1  0.6189380000000  0.5098260000000  0.4261960000000 1.0
C      1  0.5050200000000  0.5430660000000  0.5442580000000 1.0
C      1  0.4787310000000  0.5427170000000  0.5569390000000 1.0
C      1  0.5680370000000  0.3894920000000  0.4681690000000 1.0
C      1  0.4512280000000  0.4622610000000  0.4423380000000 1.0
C      1  0.5058980000000  0.5283800000000  0.4678780000000 1.0
C      1  0.3343150000000  0.4307850000000  0.5368110000000 1.0
C      1  0.5182910000000  0.4104710000000  0.4838230000000 1.0
C      1  0.4070290000000  0.4657610000000  0.5726250000000 1.0
C      1  0.5684990000000  0.4811380000000  0.4916630000000 1.0
C      1  0.4873740000000  0.4354760000000  0.5524280000000 1.0
C      1  0.4360800000000  0.3698200000000  0.5059220000000 1.0
C      1  0.4917050000000  0.4548380000000  0.4117270000000 1.0
C      1  0.5968840000000  0.5704270000000  0.5435810000000 1.0
C      1  0.6119380000000  0.5519410000000  0.4024730000000 1.0
C      1  0.5207260000000  0.4172380000000  0.3912160000000 1.0
C      1  0.4487910000000  0.4554090000000  0.5234470000000 1.0
C      1  0.4714390000000  0.5519620000000  0.4808300000000 1.0
C      1  0.5424750000000  0.5460880000000  0.4579660000000 1.0
C      1  0.3550340000000  0.4783330000000  0.4055080000000 1.0
C      1  0.5506270000000  0.6251560000000  0.5293820000000 1.0
C      1  0.5232110000000  0.5236910000000  0.5535860000000 1.0
C      1  0.4752440000000  0.4684160000000  0.6048270000000 1.0
C      1  0.4893220000000  0.4708120000000  0.4822040000000 1.0
C      1  0.5538420000000  0.5016950000000  0.4253690000000 1.0
C      1  0.4117940000000  0.5366770000000  0.5240800000000 1.0
END
