TITL C-612606-7351-576 -0.372525678572819 125000 -217.859757070516 0 0 39 (C1) n - 1
REM
REM in /home/nfs/bkarasulu/CARBON/AIRSS/Generating-Clusters/TERSOFF/Only-C1/FIRE-HFTN
REM
REM
REM
REM
REM
REM ./C.cell (11c1c37f851c82e70ff6c80c92926a4b)
REM AIRSS Version 0.9.1 bugfix July 2018 build 013d7b7c2542+ Fri, 06 Jul 2018 19:26:36 +0100
REM compiler GCC version 9.2.1 20190827 (Red Hat 9.2.1-1)
REM options -cpp -mtune=generic -march=x86-64 -g -O0 -fpre-include=/usr/include/finclude/math-vector-fortran.h
REM seed 1468827078 1163207701 -466613349 -2024780371 568679640 -1386894484 -1087820929 273645964 2055165025 2001770168 690526702 1729214594 -1349348143 -1192340474 -62003077 -2084637010 -1659807250 -666854400 1983168705 -919569459 295930519 -560798940 -723758630 511915636 -2079280917 1704345252 1358951970 1971950408 2044789228 1165929109 1003578624 682786351 306797316
REM
CELL 1.54180   50.00000   50.00000   50.00000   90.00000   90.00000   90.00000
LATT -1
SFAC C  
C      1  0.4685190000000  0.4989470000000  0.4822390000000 1.0
C      1  0.5488430000000  0.5494870000000  0.4099190000000 1.0
C      1  0.4359190000000  0.4761730000000  0.5712200000000 1.0
C      1  0.4806580000000  0.5038460000000  0.4592080000000 1.0
C      1  0.5276200000000  0.4613810000000  0.4955600000000 1.0
C      1  0.4990420000000  0.4533360000000  0.5492750000000 1.0
C      1  0.4946890000000  0.4367590000000  0.5263650000000 1.0
C      1  0.4299910000000  0.5189090000000  0.5938290000000 1.0
C      1  0.3992420000000  0.4645720000000  0.5418170000000 1.0
C      1  0.5590610000000  0.4983000000000  0.4903630000000 1.0
C      1  0.5412060000000  0.5319580000000  0.4302640000000 1.0
C      1  0.5560700000000  0.5661020000000  0.3905970000000 1.0
C      1  0.5705290000000  0.5993440000000  0.3519350000000 1.0
C      1  0.4241480000000  0.4916690000000  0.5918850000000 1.0
C      1  0.4383020000000  0.4859710000000  0.5237240000000 1.0
C      1  0.4765330000000  0.5007250000000  0.4114930000000 1.0
C      1  0.5777610000000  0.6159690000000  0.3325980000000 1.0
C      1  0.4540190000000  0.4931890000000  0.5036600000000 1.0
C      1  0.4945700000000  0.4335340000000  0.5936070000000 1.0
C      1  0.5633000000000  0.5827230000000  0.3712660000000 1.0
C      1  0.5179050000000  0.4740710000000  0.5473440000000 1.0
C      1  0.4068020000000  0.4796080000000  0.6101470000000 1.0
C      1  0.5044520000000  0.4183730000000  0.6123600000000 1.0
C      1  0.4240470000000  0.4755350000000  0.5453990000000 1.0
C      1  0.5095020000000  0.4433580000000  0.5033840000000 1.0
C      1  0.5593260000000  0.5249990000000  0.4503260000000 1.0
C      1  0.5366610000000  0.4898120000000  0.5335060000000 1.0
C      1  0.5848740000000  0.6323210000000  0.3135800000000 1.0
C      1  0.4594290000000  0.4619100000000  0.5759670000000 1.0
C      1  0.5415750000000  0.4834000000000  0.5060600000000 1.0
C      1  0.5991150000000  0.5211180000000  0.4769260000000 1.0
C      1  0.4771570000000  0.4158390000000  0.5265870000000 1.0
C      1  0.3905350000000  0.4678090000000  0.6267400000000 1.0
C      1  0.5728520000000  0.5148820000000  0.4725890000000 1.0
C      1  0.4357140000000  0.5443070000000  0.5949750000000 1.0
C      1  0.5496320000000  0.5104090000000  0.5459290000000 1.0
C      1  0.4907120000000  0.5085420000000  0.4335390000000 1.0
C      1  0.5154070000000  0.5212930000000  0.4306440000000 1.0
C      1  0.4842830000000  0.4495220000000  0.5731750000000 1.0
END
