TITL C-612605-9286-678 0.207083282870553 125000 -281.385508315925 0 0 48 (C1) n - 1
REM
REM in /home/nfs/bkarasulu/CARBON/AIRSS/Generating-Clusters/TERSOFF/Only-C1/FIRE-HFTN
REM
REM
REM
REM
REM
REM ./C.cell (11c1c37f851c82e70ff6c80c92926a4b)
REM AIRSS Version 0.9.1 bugfix July 2018 build 013d7b7c2542+ Fri, 06 Jul 2018 19:26:36 +0100
REM compiler GCC version 9.2.1 20190827 (Red Hat 9.2.1-1)
REM options -cpp -mtune=generic -march=x86-64 -g -O0 -fpre-include=/usr/include/finclude/math-vector-fortran.h
REM seed 1486576463 -72715601 2098678349 -210131326 1290602752 1481696034 -142441123 109316846 -671561553 -899103972 -1975548955 -662130571 543106097 -1201028386 1350017804 -1219605215 1835780445 -1582383491 -482587714 -974860186 450836230 -156315802 -1334471671 155443822 1357332982 -125005639 -1513520127 -701653607 1174429016 -51525573 177065868 -1027641348 369203549
REM
CELL 1.54180   50.00000   50.00000   50.00000   90.00000   90.00000   90.00000
LATT -1
SFAC C  
C      1  0.4656450000000  0.5264380000000  0.5146040000000 1.0
C      1  0.5519500000000  0.5093660000000  0.4650010000000 1.0
C      1  0.5220440000000  0.5098760000000  0.4649660000000 1.0
C      1  0.4826480000000  0.5110330000000  0.5647830000000 1.0
C      1  0.4406710000000  0.5294560000000  0.4555640000000 1.0
C      1  0.5369810000000  0.4667950000000  0.5693450000000 1.0
C      1  0.5709470000000  0.5012980000000  0.5090420000000 1.0
C      1  0.5628990000000  0.5269190000000  0.5475010000000 1.0
C      1  0.4820150000000  0.5169690000000  0.5370010000000 1.0
C      1  0.6027000000000  0.5595800000000  0.4782870000000 1.0
C      1  0.5148580000000  0.4838030000000  0.4527750000000 1.0
C      1  0.5872870000000  0.5387810000000  0.4812830000000 1.0
C      1  0.5036870000000  0.4428070000000  0.5460430000000 1.0
C      1  0.3809310000000  0.5031800000000  0.4231500000000 1.0
C      1  0.5083400000000  0.5697410000000  0.5216640000000 1.0
C      1  0.5308940000000  0.4517540000000  0.5453880000000 1.0
C      1  0.5595190000000  0.4852470000000  0.4506920000000 1.0
C      1  0.4895850000000  0.4751780000000  0.4454520000000 1.0
C      1  0.4984070000000  0.5258740000000  0.5842280000000 1.0
C      1  0.5183190000000  0.4836710000000  0.5827430000000 1.0
C      1  0.5192820000000  0.5103220000000  0.5939150000000 1.0
C      1  0.4777770000000  0.4819810000000  0.5059220000000 1.0
C      1  0.5402630000000  0.4448060000000  0.4704480000000 1.0
C      1  0.4897910000000  0.5673430000000  0.5023300000000 1.0
C      1  0.5358080000000  0.5278570000000  0.5383230000000 1.0
C      1  0.4756110000000  0.4343200000000  0.4945970000000 1.0
C      1  0.5472430000000  0.4862450000000  0.5157200000000 1.0
C      1  0.5815370000000  0.5141400000000  0.5322210000000 1.0
C      1  0.4987370000000  0.4968390000000  0.5221320000000 1.0
C      1  0.5027980000000  0.5267060000000  0.4774230000000 1.0
C      1  0.5429770000000  0.4583700000000  0.5201470000000 1.0
C      1  0.5262420000000  0.5034550000000  0.5248440000000 1.0
C      1  0.4553030000000  0.5010120000000  0.5054060000000 1.0
C      1  0.4844720000000  0.4579640000000  0.5582550000000 1.0
C      1  0.4740440000000  0.4606570000000  0.4878490000000 1.0
C      1  0.4577330000000  0.5443030000000  0.4698030000000 1.0
C      1  0.3574550000000  0.5023590000000  0.4108700000000 1.0
C      1  0.5381260000000  0.4661090000000  0.4522790000000 1.0
C      1  0.4290730000000  0.5048470000000  0.4483430000000 1.0
C      1  0.5237220000000  0.5529630000000  0.5356080000000 1.0
C      1  0.5703390000000  0.5169660000000  0.4849570000000 1.0
C      1  0.4788460000000  0.5420490000000  0.4910820000000 1.0
C      1  0.5429670000000  0.4421500000000  0.4971140000000 1.0
C      1  0.4043900000000  0.5039990000000  0.4354220000000 1.0
C      1  0.4673240000000  0.4692030000000  0.4613010000000 1.0
C      1  0.4905460000000  0.4826230000000  0.5709300000000 1.0
C      1  0.4428980000000  0.4810920000000  0.4544540000000 1.0
C      1  0.3343660000000  0.5015520000000  0.3987920000000 1.0
END
