TITL C-612601-4209-24 -1.6035987858513e-06 125000 -594.192479266129 0 0 97 (C1) n - 1
REM
REM in /home/nfs/bkarasulu/CARBON/AIRSS/Generating-Clusters/TERSOFF/Only-C1/FIRE-HFTN
REM
REM
REM
REM
REM
REM ./C.cell (11c1c37f851c82e70ff6c80c92926a4b)
REM AIRSS Version 0.9.1 bugfix July 2018 build 013d7b7c2542+ Fri, 06 Jul 2018 19:26:36 +0100
REM compiler GCC version 9.2.1 20190827 (Red Hat 9.2.1-1)
REM options -cpp -mtune=generic -march=x86-64 -g -O0 -fpre-include=/usr/include/finclude/math-vector-fortran.h
REM seed -1506950247 1056148308 -1921940691 -465939333 -1102843046 -374430092 -2023452866 594534243 1003932831 562257604 -1426526739 2117270741 2030766325 449309932 -1542447440 2121306377 915065114 114029427 875610278 -457417675 -1622240754 -1932165729 78628297 1922869072 -335296838 690576164 -786459259 651619661 -152205083 -1759785334 774705211 1816416094 2037146580
REM
CELL 1.54180   50.00000   50.00000   50.00000   90.00000   90.00000   90.00000
LATT -1
SFAC C  
C      1  0.4749680000000  0.5201410000000  0.5833880000000 1.0
C      1  0.4852920000000  0.4389450000000  0.5542940000000 1.0
C      1  0.4175030000000  0.4857600000000  0.5302140000000 1.0
C      1  0.5786530000000  0.5279910000000  0.5286610000000 1.0
C      1  0.5123020000000  0.5028920000000  0.4991720000000 1.0
C      1  0.3878160000000  0.4173880000000  0.4760850000000 1.0
C      1  0.5684100000000  0.5600510000000  0.4399120000000 1.0
C      1  0.5423780000000  0.5732000000000  0.5004710000000 1.0
C      1  0.5887860000000  0.5516010000000  0.4872820000000 1.0
C      1  0.4625130000000  0.5487670000000  0.4227520000000 1.0
C      1  0.4609160000000  0.4968780000000  0.4139030000000 1.0
C      1  0.4344340000000  0.4924990000000  0.4554090000000 1.0
C      1  0.4978040000000  0.4834470000000  0.4402870000000 1.0
C      1  0.5606110000000  0.5407990000000  0.4195130000000 1.0
C      1  0.4243120000000  0.4781770000000  0.5568490000000 1.0
C      1  0.5163290000000  0.5409020000000  0.5287480000000 1.0
C      1  0.5750010000000  0.5131960000000  0.5759820000000 1.0
C      1  0.5832950000000  0.5158170000000  0.4510430000000 1.0
C      1  0.5602780000000  0.5061930000000  0.5202900000000 1.0
C      1  0.5456950000000  0.5712230000000  0.4527890000000 1.0
C      1  0.5529370000000  0.4679930000000  0.5689890000000 1.0
C      1  0.4100140000000  0.4868480000000  0.4701430000000 1.0
C      1  0.5389260000000  0.5133470000000  0.5016210000000 1.0
C      1  0.5773960000000  0.4354900000000  0.5325980000000 1.0
C      1  0.4003940000000  0.5142100000000  0.4748470000000 1.0
C      1  0.4805920000000  0.4520550000000  0.4080840000000 1.0
C      1  0.4647640000000  0.4954360000000  0.5780140000000 1.0
C      1  0.4460910000000  0.5214190000000  0.5330820000000 1.0
C      1  0.5969660000000  0.5006630000000  0.4947530000000 1.0
C      1  0.4520730000000  0.4748650000000  0.5626390000000 1.0
C      1  0.5111780000000  0.4867090000000  0.5616920000000 1.0
C      1  0.4922100000000  0.5424290000000  0.5761710000000 1.0
C      1  0.4820610000000  0.4782340000000  0.4178900000000 1.0
C      1  0.4552520000000  0.4554070000000  0.5157580000000 1.0
C      1  0.5683620000000  0.4493020000000  0.5814280000000 1.0
C      1  0.5956800000000  0.5295140000000  0.5044220000000 1.0
C      1  0.5403690000000  0.5290540000000  0.4769650000000 1.0
C      1  0.5273370000000  0.4622440000000  0.5204890000000 1.0
C      1  0.4831240000000  0.5657580000000  0.5587250000000 1.0
C      1  0.4716310000000  0.4136000000000  0.4363990000000 1.0
C      1  0.4282980000000  0.4671930000000  0.5104150000000 1.0
C      1  0.5112720000000  0.4659210000000  0.4597060000000 1.0
C      1  0.5262620000000  0.5065120000000  0.5767320000000 1.0
C      1  0.4772030000000  0.4174030000000  0.4890490000000 1.0
C      1  0.4457130000000  0.5156070000000  0.4691580000000 1.0
C      1  0.4945750000000  0.5132130000000  0.4778190000000 1.0
C      1  0.5813170000000  0.4568780000000  0.5139000000000 1.0
C      1  0.5078580000000  0.4765210000000  0.5062100000000 1.0
C      1  0.5530850000000  0.4957770000000  0.5782520000000 1.0
C      1  0.4749130000000  0.4084210000000  0.3886890000000 1.0
C      1  0.5273820000000  0.4629470000000  0.5513660000000 1.0
C      1  0.5050200000000  0.5096270000000  0.4510600000000 1.0
C      1  0.5657520000000  0.4718830000000  0.4691330000000 1.0
C      1  0.5358380000000  0.5098760000000  0.4521840000000 1.0
C      1  0.5571560000000  0.4186910000000  0.5406060000000 1.0
C      1  0.5211360000000  0.5834220000000  0.5173810000000 1.0
C      1  0.5132340000000  0.3999900000000  0.5245860000000 1.0
C      1  0.5591330000000  0.5155830000000  0.4333540000000 1.0
C      1  0.4679460000000  0.5880570000000  0.4859670000000 1.0
C      1  0.4646510000000  0.5247520000000  0.4108780000000 1.0
C      1  0.4714970000000  0.4095100000000  0.4627220000000 1.0
C      1  0.5864400000000  0.5450910000000  0.4589040000000 1.0
C      1  0.4703690000000  0.5862590000000  0.5140070000000 1.0
C      1  0.4669750000000  0.5231010000000  0.5142300000000 1.0
C      1  0.5311420000000  0.5451540000000  0.5507900000000 1.0
C      1  0.4935180000000  0.4020870000000  0.5063820000000 1.0
C      1  0.4913310000000  0.5334710000000  0.5233790000000 1.0
C      1  0.5654460000000  0.4519720000000  0.4898000000000 1.0
C      1  0.4738600000000  0.4453560000000  0.4948630000000 1.0
C      1  0.4193560000000  0.5139410000000  0.5256590000000 1.0
C      1  0.5812400000000  0.4853740000000  0.5149910000000 1.0
C      1  0.4247980000000  0.5626650000000  0.5114210000000 1.0
C      1  0.4678730000000  0.5172320000000  0.4862080000000 1.0
C      1  0.5863530000000  0.4936570000000  0.4687530000000 1.0
C      1  0.4449190000000  0.5383190000000  0.5557870000000 1.0
C      1  0.5406270000000  0.4447810000000  0.5018080000000 1.0
C      1  0.4959210000000  0.4613790000000  0.4849970000000 1.0
C      1  0.4646490000000  0.4558290000000  0.5443280000000 1.0
C      1  0.4377990000000  0.4892540000000  0.4280430000000 1.0
C      1  0.4078010000000  0.5404320000000  0.5213410000000 1.0
C      1  0.5285720000000  0.4149170000000  0.5432310000000 1.0
C      1  0.5363030000000  0.5580280000000  0.4762860000000 1.0
C      1  0.4466030000000  0.5756400000000  0.5272990000000 1.0
C      1  0.5717330000000  0.5718150000000  0.5004400000000 1.0
C      1  0.4545580000000  0.5643570000000  0.5527690000000 1.0
C      1  0.4117970000000  0.4643020000000  0.4872000000000 1.0
C      1  0.5198260000000  0.5340650000000  0.5739860000000 1.0
C      1  0.3986400000000  0.4404450000000  0.4815920000000 1.0
C      1  0.4292890000000  0.5594040000000  0.4828860000000 1.0
C      1  0.4757060000000  0.4245070000000  0.4107960000000 1.0
C      1  0.5841980000000  0.5289500000000  0.5560970000000 1.0
C      1  0.5136580000000  0.4364120000000  0.5559510000000 1.0
C      1  0.4573160000000  0.5659040000000  0.4427230000000 1.0
C      1  0.4225040000000  0.5334580000000  0.4735930000000 1.0
C      1  0.4949230000000  0.5823670000000  0.5300810000000 1.0
C      1  0.5395400000000  0.4785370000000  0.4593560000000 1.0
C      1  0.4505220000000  0.5733110000000  0.4691050000000 1.0
END
