TITL C-612604-1799-345 6557.68825498993 125000 -647.876976187533 0 0 107 (C1) n - 1
REM
REM in /home/nfs/bkarasulu/CARBON/AIRSS/Generating-Clusters/TERSOFF/Only-C1/FIRE-HFTN
REM
REM
REM
REM
REM
REM ./C.cell (11c1c37f851c82e70ff6c80c92926a4b)
REM AIRSS Version 0.9.1 bugfix July 2018 build 013d7b7c2542+ Fri, 06 Jul 2018 19:26:36 +0100
REM compiler GCC version 9.2.1 20190827 (Red Hat 9.2.1-1)
REM options -cpp -mtune=generic -march=x86-64 -g -O0 -fpre-include=/usr/include/finclude/math-vector-fortran.h
REM seed 288448779 -807308843 -1556783015 650890493 -204616992 -1461734348 -553425130 27820630 -2043453810 930586893 -874129000 1330565905 78560542 -586400366 -940521468 2137664331 870197106 1734225180 -1577725781 -66735749 -401030488 732178037 1466986125 -271421297 2116224504 -855772803 1775290630 -1446691856 1698512486 -79041548 -729848784 -1444899299 399690155
REM
CELL 1.54180   50.00000   50.00000   50.00000   90.00000   90.00000   90.00000
LATT -1
SFAC C  
C      1  0.4182400000000  0.4974870000000  0.5308140000000 1.0
C      1  0.4204110000000  0.4653020000000  0.5816740000000 1.0
C      1  0.5091940000000  0.3969380000000  0.4788180000000 1.0
C      1  0.5771570000000  0.4614570000000  0.4704020000000 1.0
C      1  0.4974190000000  0.5634860000000  0.4512780000000 1.0
C      1  0.5730690000000  0.4427860000000  0.5161880000000 1.0
C      1  0.5318920000000  0.5204720000000  0.4126890000000 1.0
C      1  0.4631950000000  0.4600860000000  0.5246610000000 1.0
C      1  0.4444490000000  0.5203770000000  0.4807410000000 1.0
C      1  0.4801780000000  0.5298820000000  0.5887050000000 1.0
C      1  0.4471830000000  0.4282860000000  0.4721320000000 1.0
C      1  0.5482920000000  0.5314680000000  0.5375370000000 1.0
C      1  0.4950340000000  0.4641110000000  0.4746300000000 1.0
C      1  0.5302510000000  0.5808850000000  0.4784950000000 1.0
C      1  0.5407360000000  0.4824580000000  0.5240360000000 1.0
C      1  0.4160200000000  0.4692740000000  0.5225830000000 1.0
C      1  0.4468560000000  0.5535650000000  0.5651820000000 1.0
C      1  0.5050400000000  0.4605470000000  0.5479840000000 1.0
C      1  0.4996470000000  0.4246960000000  0.5140910000000 1.0
C      1  0.4751720000000  0.5015980000000  0.5869920000000 1.0
C      1  0.4507660000000  0.4973890000000  0.5715460000000 1.0
C      1  0.4740370000000  0.5774480000000  0.4868600000000 1.0
C      1  0.4218790000000  0.4701670000000  0.4701500000000 1.0
C      1  0.4150150000000  0.4910800000000  0.4522400000000 1.0
C      1  0.4708060000000  0.4693560000000  0.4617110000000 1.0
C      1  0.5539000000000  0.5573120000000  0.4426380000000 1.0
C      1  0.5917260000000  0.4220830000000  0.4458080000000 1.0
C      1  0.4799150000000  0.5271720000000  0.4172770000000 1.0
C      1  0.4145160000000  0.5195250000000  0.5877600000000 1.0
C      1  0.5256210000000  0.4887890000000  0.5859290000000 1.0
C      1  0.5820410000000  0.5270480000000  0.4962530000000 1.0
C      1  0.4727160000000  0.4890570000000  0.4416850000000 1.0
C      1  0.5531560000000  0.5647820000000  0.4698590000000 1.0
C      1  0.4448270000000  0.4998880000000  0.5433870000000 1.0
C      1  0.5587950000000  0.5816880000000  0.6111660000000 1.0
C      1  0.5287620000000  0.4244100000000  0.5095540000000 1.0
C      1  0.5011940000000  0.4914320000000  0.5451120000000 1.0
C      1  0.4193510000000  0.5146860000000  0.4398970000000 1.0
C      1  0.4985830000000  0.5356070000000  0.4606800000000 1.0
C      1  0.6107530000000  0.4091150000000  0.4336080000000 1.0
C      1  0.4745410000000  0.5775450000000  0.4394490000000 1.0
C      1  0.4841940000000  0.5156420000000  0.4438590000000 1.0
C      1  0.5713100000000  0.4362190000000  0.4586510000000 1.0
C      1  0.4615550000000  0.4097700000000  0.4848610000000 1.0
C      1  0.5693400000000  0.6037730000000  0.6201490000000 1.0
C      1  0.5479500000000  0.5593660000000  0.6018610000000 1.0
C      1  0.4556110000000  0.5779950000000  0.4620140000000 1.0
C      1  0.5368490000000  0.5377280000000  0.5913770000000 1.0
C      1  0.5377890000000  0.5555610000000  0.5273240000000 1.0
C      1  0.5079940000000  0.5170910000000  0.5543050000000 1.0
C      1  0.4463140000000  0.4557260000000  0.4664060000000 1.0
C      1  0.5103760000000  0.5504760000000  0.5198860000000 1.0
C      1  0.4950590000000  0.5414140000000  0.5440360000000 1.0
C      1  0.4333150000000  0.5394680000000  0.4370580000000 1.0
C      1  0.5103500000000  0.4822630000000  0.4870000000000 1.0
C      1  0.5596070000000  0.5682530000000  0.5149090000000 1.0
C      1  0.4247240000000  0.5426260000000  0.5769930000000 1.0
C      1  0.4746560000000  0.5468010000000  0.5652190000000 1.0
C      1  0.5699310000000  0.5541440000000  0.4919940000000 1.0
C      1  0.4632230000000  0.5700870000000  0.4149860000000 1.0
C      1  0.5017950000000  0.5064630000000  0.4977570000000 1.0
C      1  0.4327250000000  0.5679420000000  0.5069750000000 1.0
C      1  0.4315850000000  0.5599390000000  0.4595770000000 1.0
C      1  0.4934670000000  0.4397260000000  0.4043120000000 1.0
C      1  0.4550710000000  0.5427620000000  0.4166180000000 1.0
C      1  0.4764960000000  0.5084360000000  0.5098370000000 1.0
C      1  0.5682250000000  0.4938400000000  0.4304120000000 1.0
C      1  0.5748530000000  0.4869820000000  0.4572080000000 1.0
C      1  0.4725840000000  0.4565720000000  0.4024710000000 1.0
C      1  0.5451320000000  0.4249980000000  0.4597200000000 1.0
C      1  0.4599910000000  0.5592410000000  0.5048930000000 1.0
C      1  0.5417110000000  0.4928320000000  0.4179150000000 1.0
C      1  0.6001970000000  0.4829930000000  0.5078330000000 1.0
C      1  0.5770080000000  0.5204060000000  0.4221910000000 1.0
C      1  0.4164090000000  0.5570780000000  0.4855220000000 1.0
C      1  0.5793350000000  0.5100510000000  0.4731670000000 1.0
C      1  0.4040180000000  0.5173970000000  0.5162880000000 1.0
C      1  0.5461320000000  0.5080600000000  0.5250470000000 1.0
C      1  0.5332370000000  0.4130620000000  0.4825850000000 1.0
C      1  0.5018260000000  0.5788920000000  0.4765680000000 1.0
C      1  0.4644160000000  0.4892930000000  0.5254510000000 1.0
C      1  0.5921480000000  0.5087350000000  0.5186580000000 1.0
C      1  0.5540690000000  0.5383520000000  0.4219200000000 1.0
C      1  0.4966840000000  0.4806600000000  0.5896840000000 1.0
C      1  0.4093480000000  0.4656620000000  0.4952480000000 1.0
C      1  0.4880010000000  0.4463670000000  0.5277530000000 1.0
C      1  0.5079220000000  0.5323030000000  0.4886530000000 1.0
C      1  0.4904020000000  0.4561850000000  0.5750130000000 1.0
C      1  0.4007710000000  0.5355180000000  0.4961470000000 1.0
C      1  0.5296310000000  0.4275910000000  0.4362160000000 1.0
C      1  0.5306510000000  0.4684210000000  0.4110930000000 1.0
C      1  0.4378530000000  0.4491140000000  0.5648610000000 1.0
C      1  0.5468290000000  0.4743410000000  0.5700490000000 1.0
C      1  0.4609850000000  0.5302720000000  0.5003690000000 1.0
C      1  0.5863110000000  0.5046750000000  0.5471060000000 1.0
C      1  0.4644380000000  0.4440680000000  0.5753280000000 1.0
C      1  0.4872510000000  0.4066240000000  0.4948810000000 1.0
C      1  0.5054820000000  0.5272780000000  0.4042190000000 1.0
C      1  0.4256550000000  0.4932170000000  0.5859110000000 1.0
C      1  0.5471590000000  0.4372510000000  0.5270890000000 1.0
C      1  0.5247650000000  0.5167960000000  0.5779380000000 1.0
C      1  0.5357680000000  0.4595780000000  0.5441310000000 1.0
C      1  0.4660010000000  0.4788550000000  0.4159690000000 1.0
C      1  0.5720710000000  0.4887770000000  0.5646480000000 1.0
C      1  0.5855170000000  0.4608610000000  0.4980850000000 1.0
C      1  0.5187810000000  0.4435020000000  0.4159380000000 1.0
C      1  0.4368040000000  0.4528880000000  0.5356550000000 1.0
END
