TITL C-612600-6631-1091 -0.00189566328044448 125000 -286.238287434932 0 0 48 (C1) n - 1
REM
REM in /home/nfs/bkarasulu/CARBON/AIRSS/Generating-Clusters/TERSOFF/Only-C1/FIRE-HFTN
REM
REM
REM
REM
REM
REM ./C.cell (11c1c37f851c82e70ff6c80c92926a4b)
REM AIRSS Version 0.9.1 bugfix July 2018 build 013d7b7c2542+ Fri, 06 Jul 2018 19:26:36 +0100
REM compiler GCC version 9.2.1 20190827 (Red Hat 9.2.1-1)
REM options -cpp -mtune=generic -march=x86-64 -g -O0 -fpre-include=/usr/include/finclude/math-vector-fortran.h
REM seed 1446072448 -1205916377 1670089909 904622042 -1460766001 -270685754 -2004415680 279380408 -610894824 1621275770 1403854310 -1783295369 1164385215 123681122 -958803817 -1615940742 -1367718583 -470084342 569637109 1403704250 1245002393 -2119119727 2007457013 -1309063000 -136864751 292551092 -2003634703 -874227221 -634056442 -1345903300 1682648051 869497652 247119550
REM
CELL 1.54180   50.00000   50.00000   50.00000   90.00000   90.00000   90.00000
LATT -1
SFAC C  
C      1  0.5028730000000  0.5510730000000  0.5329860000000 1.0
C      1  0.5179210000000  0.5590290000000  0.4405920000000 1.0
C      1  0.5004310000000  0.4911220000000  0.4568140000000 1.0
C      1  0.5616450000000  0.4594590000000  0.4892970000000 1.0
C      1  0.4202780000000  0.4665720000000  0.6017640000000 1.0
C      1  0.5551230000000  0.5310440000000  0.4953230000000 1.0
C      1  0.5106560000000  0.4572310000000  0.5367430000000 1.0
C      1  0.4392860000000  0.4765860000000  0.4864290000000 1.0
C      1  0.4363630000000  0.4782780000000  0.5849290000000 1.0
C      1  0.5705890000000  0.5099230000000  0.4852380000000 1.0
C      1  0.5446860000000  0.5190710000000  0.4128550000000 1.0
C      1  0.4880810000000  0.5083140000000  0.4753720000000 1.0
C      1  0.5014410000000  0.5578870000000  0.4643530000000 1.0
C      1  0.5430730000000  0.4447170000000  0.5040620000000 1.0
C      1  0.4888400000000  0.4425520000000  0.5226300000000 1.0
C      1  0.4383870000000  0.5586580000000  0.5438600000000 1.0
C      1  0.4547110000000  0.5184920000000  0.5645190000000 1.0
C      1  0.5231510000000  0.4279790000000  0.4929350000000 1.0
C      1  0.4620540000000  0.3889340000000  0.4810560000000 1.0
C      1  0.4821000000000  0.4981170000000  0.5012380000000 1.0
C      1  0.4611200000000  0.4779830000000  0.5035260000000 1.0
C      1  0.4535560000000  0.4905080000000  0.5667220000000 1.0
C      1  0.5126510000000  0.5547180000000  0.4132320000000 1.0
C      1  0.5188800000000  0.5643640000000  0.4870040000000 1.0
C      1  0.4992020000000  0.5029280000000  0.5245800000000 1.0
C      1  0.4791340000000  0.4058050000000  0.4911940000000 1.0
C      1  0.5378290000000  0.4519850000000  0.5313200000000 1.0
C      1  0.5573610000000  0.4533310000000  0.5502740000000 1.0
C      1  0.5088790000000  0.5696110000000  0.5125890000000 1.0
C      1  0.4001870000000  0.4741150000000  0.4513920000000 1.0
C      1  0.5150600000000  0.5257220000000  0.5285080000000 1.0
C      1  0.5259940000000  0.5356680000000  0.3989600000000 1.0
C      1  0.5590250000000  0.5339420000000  0.4327500000000 1.0
C      1  0.4853850000000  0.5555550000000  0.5547450000000 1.0
C      1  0.4591760000000  0.5442730000000  0.5543950000000 1.0
C      1  0.5451500000000  0.5514120000000  0.4502370000000 1.0
C      1  0.5178540000000  0.4844660000000  0.4377690000000 1.0
C      1  0.5417480000000  0.5261030000000  0.5196990000000 1.0
C      1  0.4847060000000  0.5355390000000  0.4685180000000 1.0
C      1  0.4702050000000  0.4753340000000  0.5500860000000 1.0
C      1  0.4649970000000  0.4598550000000  0.5254790000000 1.0
C      1  0.4935730000000  0.5704780000000  0.5761940000000 1.0
C      1  0.5447610000000  0.5521300000000  0.4792040000000 1.0
C      1  0.5717790000000  0.4833350000000  0.4830760000000 1.0
C      1  0.5359500000000  0.4933210000000  0.4200850000000 1.0
C      1  0.4982570000000  0.4824350000000  0.5446790000000 1.0
C      1  0.4963980000000  0.4247160000000  0.5019250000000 1.0
C      1  0.4194930000000  0.4753320000000  0.4688670000000 1.0
END
