TITL C-612604-1799-397 13330.8732121714 125000 -1017.73892433736 0 0 165 (C1) n - 1
REM
REM in /home/nfs/bkarasulu/CARBON/AIRSS/Generating-Clusters/TERSOFF/Only-C1/FIRE-HFTN
REM
REM
REM
REM
REM
REM ./C.cell (11c1c37f851c82e70ff6c80c92926a4b)
REM AIRSS Version 0.9.1 bugfix July 2018 build 013d7b7c2542+ Fri, 06 Jul 2018 19:26:36 +0100
REM compiler GCC version 9.2.1 20190827 (Red Hat 9.2.1-1)
REM options -cpp -mtune=generic -march=x86-64 -g -O0 -fpre-include=/usr/include/finclude/math-vector-fortran.h
REM seed 78470082 942576547 295830022 -12648593 -1862247596 534484310 -1267218204 2006582890 -646873664 1058553675 -381845667 -1796100778 -264035057 -881929194 -1609097021 -1815912987 -899926924 -1797681520 -580085540 1020756334 1616275358 1517066866 -1645047752 -16343489 1397962943 727556718 -1283642845 1262622473 1247626593 -1270365013 -143591106 -1488850485 -110643577
REM
CELL 1.54180   50.00000   50.00000   50.00000   90.00000   90.00000   90.00000
LATT -1
SFAC C  
C      1  0.4744950000000  0.4764680000000  0.4746360000000 1.0
C      1  0.5094570000000  0.3856860000000  0.4792100000000 1.0
C      1  0.4251880000000  0.4479030000000  0.5556010000000 1.0
C      1  0.4538930000000  0.4195450000000  0.3826260000000 1.0
C      1  0.5010630000000  0.4036360000000  0.3647580000000 1.0
C      1  0.5386830000000  0.4025850000000  0.5836940000000 1.0
C      1  0.4708210000000  0.4438770000000  0.5797300000000 1.0
C      1  0.5582670000000  0.4650960000000  0.4623130000000 1.0
C      1  0.5325590000000  0.4008200000000  0.4840190000000 1.0
C      1  0.6697930000000  0.4728580000000  0.5449910000000 1.0
C      1  0.4457110000000  0.4338610000000  0.5695870000000 1.0
C      1  0.4194490000000  0.5391540000000  0.5378310000000 1.0
C      1  0.4689750000000  0.6001660000000  0.5678780000000 1.0
C      1  0.4801320000000  0.5355610000000  0.5447770000000 1.0
C      1  0.4156610000000  0.5273210000000  0.4360260000000 1.0
C      1  0.5474850000000  0.5200440000000  0.5470680000000 1.0
C      1  0.4400690000000  0.5384650000000  0.4227440000000 1.0
C      1  0.4330270000000  0.5004300000000  0.4824060000000 1.0
C      1  0.3943210000000  0.4769080000000  0.4732020000000 1.0
C      1  0.4634880000000  0.4900820000000  0.4055500000000 1.0
C      1  0.4457680000000  0.4680210000000  0.5158580000000 1.0
C      1  0.4057260000000  0.4968230000000  0.4890220000000 1.0
C      1  0.3758940000000  0.4515060000000  0.5325810000000 1.0
C      1  0.4679180000000  0.5785700000000  0.5176340000000 1.0
C      1  0.4169580000000  0.4364790000000  0.4161370000000 1.0
C      1  0.4816980000000  0.4592240000000  0.6264210000000 1.0
C      1  0.5088930000000  0.5476970000000  0.5437210000000 1.0
C      1  0.4680710000000  0.5508530000000  0.5199400000000 1.0
C      1  0.4218510000000  0.5117150000000  0.5324700000000 1.0
C      1  0.5120910000000  0.4773740000000  0.5169180000000 1.0
C      1  0.4960060000000  0.4154380000000  0.6099500000000 1.0
C      1  0.5747950000000  0.5128490000000  0.6252400000000 1.0
C      1  0.5946070000000  0.5375050000000  0.4332510000000 1.0
C      1  0.5066100000000  0.5906380000000  0.4328400000000 1.0
C      1  0.5221920000000  0.4378270000000  0.2992630000000 1.0
C      1  0.5557100000000  0.4701560000000  0.6083540000000 1.0
C      1  0.4975800000000  0.5064840000000  0.6169620000000 1.0
C      1  0.5248140000000  0.4548230000000  0.3210600000000 1.0
C      1  0.5392740000000  0.4134060000000  0.5096410000000 1.0
C      1  0.5028240000000  0.4653750000000  0.3350150000000 1.0
C      1  0.4922520000000  0.4552170000000  0.5635580000000 1.0
C      1  0.5154690000000  0.4821900000000  0.4481890000000 1.0
C      1  0.5120050000000  0.4979480000000  0.4962320000000 1.0
C      1  0.3993060000000  0.4328210000000  0.4632870000000 1.0
C      1  0.4599920000000  0.3918960000000  0.5509000000000 1.0
C      1  0.4443300000000  0.5855620000000  0.5655500000000 1.0
C      1  0.6132340000000  0.5735750000000  0.5438880000000 1.0
C      1  0.5004400000000  0.4874250000000  0.4718680000000 1.0
C      1  0.4496400000000  0.4780810000000  0.4876380000000 1.0
C      1  0.4253010000000  0.5887200000000  0.5446320000000 1.0
C      1  0.5112080000000  0.4403710000000  0.4254050000000 1.0
C      1  0.5337290000000  0.5306010000000  0.4001230000000 1.0
C      1  0.5040610000000  0.4677080000000  0.4260990000000 1.0
C      1  0.6945550000000  0.4721770000000  0.5368670000000 1.0
C      1  0.5916010000000  0.4777950000000  0.5638330000000 1.0
C      1  0.5196470000000  0.4210090000000  0.2795190000000 1.0
C      1  0.5131090000000  0.5371830000000  0.4474630000000 1.0
C      1  0.5333680000000  0.4050720000000  0.5357820000000 1.0
C      1  0.5745770000000  0.5490800000000  0.5774820000000 1.0
C      1  0.4051340000000  0.4624470000000  0.5701980000000 1.0
C      1  0.4442270000000  0.4056650000000  0.5677580000000 1.0
C      1  0.4159740000000  0.5654080000000  0.5286300000000 1.0
C      1  0.5967390000000  0.5481040000000  0.5031790000000 1.0
C      1  0.5721880000000  0.4593510000000  0.5540300000000 1.0
C      1  0.4454520000000  0.5597130000000  0.5775320000000 1.0
C      1  0.4800970000000  0.4035920000000  0.5351670000000 1.0
C      1  0.5062050000000  0.4892460000000  0.3823490000000 1.0
C      1  0.4030540000000  0.5585110000000  0.4781660000000 1.0
C      1  0.5609930000000  0.5436050000000  0.4684860000000 1.0
C      1  0.4005950000000  0.5024420000000  0.5159100000000 1.0
C      1  0.5588350000000  0.6138570000000  0.5336260000000 1.0
C      1  0.4067560000000  0.4474010000000  0.4393990000000 1.0
C      1  0.5294580000000  0.5338050000000  0.5289810000000 1.0
C      1  0.4619470000000  0.6155920000000  0.4720050000000 1.0
C      1  0.3934670000000  0.4501450000000  0.4856180000000 1.0
C      1  0.5156350000000  0.4625630000000  0.5788400000000 1.0
C      1  0.4906370000000  0.4811610000000  0.4048580000000 1.0
C      1  0.5182210000000  0.4033870000000  0.6009900000000 1.0
C      1  0.5150770000000  0.5722240000000  0.4153640000000 1.0
C      1  0.4230850000000  0.4514300000000  0.5266180000000 1.0
C      1  0.6105670000000  0.5548570000000  0.5250050000000 1.0
C      1  0.5713550000000  0.6073130000000  0.4877510000000 1.0
C      1  0.5068000000000  0.3970160000000  0.5395720000000 1.0
C      1  0.6188660000000  0.4750040000000  0.5594100000000 1.0
C      1  0.5804390000000  0.5001440000000  0.5781700000000 1.0
C      1  0.4911810000000  0.4838680000000  0.6327530000000 1.0
C      1  0.5215200000000  0.5452330000000  0.4208390000000 1.0
C      1  0.6173780000000  0.5449870000000  0.4230140000000 1.0
C      1  0.4465400000000  0.4958770000000  0.5320690000000 1.0
C      1  0.6009220000000  0.5950040000000  0.5541090000000 1.0
C      1  0.4873380000000  0.5474010000000  0.5967400000000 1.0
C      1  0.4768190000000  0.4115060000000  0.3720360000000 1.0
C      1  0.5044230000000  0.5906050000000  0.4605600000000 1.0
C      1  0.4700540000000  0.4132460000000  0.4897990000000 1.0
C      1  0.5533270000000  0.5003750000000  0.3678620000000 1.0
C      1  0.5266200000000  0.4227970000000  0.4386640000000 1.0
C      1  0.5832290000000  0.5858680000000  0.4769690000000 1.0
C      1  0.4050320000000  0.4758280000000  0.4455920000000 1.0
C      1  0.3972250000000  0.4482480000000  0.5137750000000 1.0
C      1  0.4855760000000  0.5993830000000  0.5242240000000 1.0
C      1  0.5692240000000  0.4314800000000  0.5579650000000 1.0
C      1  0.5712030000000  0.5293310000000  0.4460710000000 1.0
C      1  0.5228470000000  0.5754670000000  0.4783720000000 1.0
C      1  0.5364570000000  0.4628070000000  0.5200980000000 1.0
C      1  0.4923130000000  0.5964890000000  0.5517230000000 1.0
C      1  0.4838220000000  0.3937030000000  0.4774440000000 1.0
C      1  0.5438590000000  0.4846220000000  0.4486520000000 1.0
C      1  0.4212910000000  0.4973080000000  0.4359120000000 1.0
C      1  0.6444850000000  0.4736680000000  0.5528280000000 1.0
C      1  0.5583830000000  0.4795510000000  0.3502860000000 1.0
C      1  0.4703750000000  0.4515860000000  0.5217000000000 1.0
C      1  0.5514940000000  0.4424510000000  0.4762650000000 1.0
C      1  0.4510990000000  0.4955700000000  0.4311890000000 1.0
C      1  0.5304120000000  0.5449490000000  0.4745690000000 1.0
C      1  0.5497000000000  0.4628380000000  0.3313760000000 1.0
C      1  0.5270510000000  0.5951030000000  0.5001970000000 1.0
C      1  0.4795770000000  0.4383800000000  0.6071120000000 1.0
C      1  0.4333340000000  0.4275610000000  0.3973090000000 1.0
C      1  0.4717740000000  0.5033860000000  0.5391020000000 1.0
C      1  0.5402640000000  0.4193680000000  0.4629420000000 1.0
C      1  0.5512350000000  0.6073510000000  0.5074820000000 1.0
C      1  0.5496780000000  0.4721800000000  0.5428630000000 1.0
C      1  0.5804880000000  0.5584860000000  0.4828790000000 1.0
C      1  0.4110930000000  0.5737080000000  0.5005500000000 1.0
C      1  0.4896900000000  0.4696580000000  0.5358830000000 1.0
C      1  0.4971460000000  0.5346120000000  0.6202040000000 1.0
C      1  0.5103760000000  0.5743050000000  0.5551600000000 1.0
C      1  0.5492070000000  0.4113040000000  0.5589070000000 1.0
C      1  0.4657180000000  0.4970550000000  0.5842140000000 1.0
C      1  0.5584950000000  0.5412100000000  0.3889000000000 1.0
C      1  0.4885820000000  0.6087480000000  0.4764960000000 1.0
C      1  0.4256140000000  0.5504980000000  0.5938530000000 1.0
C      1  0.5237970000000  0.5254700000000  0.5002570000000 1.0
C      1  0.4224020000000  0.6108040000000  0.5263420000000 1.0
C      1  0.4857140000000  0.5304450000000  0.4483950000000 1.0
C      1  0.5772470000000  0.5396770000000  0.6249020000000 1.0
C      1  0.4982810000000  0.4793750000000  0.3572540000000 1.0
C      1  0.4628700000000  0.5377790000000  0.4964290000000 1.0
C      1  0.5582380000000  0.5059780000000  0.4388030000000 1.0
C      1  0.4196440000000  0.6018760000000  0.4989030000000 1.0
C      1  0.4031220000000  0.5433120000000  0.4558440000000 1.0
C      1  0.4729420000000  0.4237500000000  0.5158360000000 1.0
C      1  0.4363670000000  0.6122790000000  0.4790830000000 1.0
C      1  0.5454060000000  0.4413780000000  0.5042790000000 1.0
C      1  0.5052420000000  0.5477980000000  0.6425330000000 1.0
C      1  0.5701760000000  0.5244560000000  0.5645540000000 1.0
C      1  0.5353830000000  0.4558400000000  0.5977330000000 1.0
C      1  0.5368500000000  0.4950420000000  0.5550090000000 1.0
C      1  0.4452370000000  0.5249920000000  0.4818880000000 1.0
C      1  0.5012370000000  0.6082640000000  0.5028930000000 1.0
C      1  0.4702410000000  0.5460510000000  0.5737960000000 1.0
C      1  0.4157510000000  0.4820990000000  0.5871230000000 1.0
C      1  0.4429400000000  0.5335460000000  0.3945340000000 1.0
C      1  0.3794730000000  0.4597100000000  0.5584150000000 1.0
C      1  0.4536720000000  0.5094400000000  0.3862520000000 1.0
C      1  0.4398430000000  0.4935330000000  0.5900880000000 1.0
C      1  0.5789430000000  0.6098670000000  0.5507930000000 1.0
C      1  0.5772040000000  0.5559770000000  0.6033990000000 1.0
C      1  0.4612040000000  0.5234890000000  0.4371310000000 1.0
C      1  0.5254590000000  0.3963930000000  0.3591070000000 1.0
C      1  0.5699240000000  0.5236040000000  0.3711370000000 1.0
C      1  0.5294290000000  0.5053740000000  0.3848430000000 1.0
C      1  0.5712390000000  0.4936120000000  0.6050180000000 1.0
C      1  0.4935080000000  0.5007350000000  0.5889980000000 1.0
C      1  0.5161050000000  0.4914540000000  0.5740740000000 1.0
END
