TITL C-612605-9286-1218 0.375068882169014 125000 -739.811811380598 0 0 120 (C1) n - 1
REM
REM in /home/nfs/bkarasulu/CARBON/AIRSS/Generating-Clusters/TERSOFF/Only-C1/FIRE-HFTN
REM
REM
REM
REM
REM
REM ./C.cell (11c1c37f851c82e70ff6c80c92926a4b)
REM AIRSS Version 0.9.1 bugfix July 2018 build 013d7b7c2542+ Fri, 06 Jul 2018 19:26:36 +0100
REM compiler GCC version 9.2.1 20190827 (Red Hat 9.2.1-1)
REM options -cpp -mtune=generic -march=x86-64 -g -O0 -fpre-include=/usr/include/finclude/math-vector-fortran.h
REM seed 1973499320 132945183 1231805082 430644569 -1921542033 480472054 2101777750 1112190196 1619681463 -1495952540 -1915678583 1338864583 1424223146 -100230353 1618767735 -1458070007 -1011357163 1712182989 1129196029 245602049 770262360 -76024982 1057995169 558077519 -1557743990 1739306364 -855998896 565860823 -1536743603 -729310539 1519143757 -1045695377 751163705
REM
CELL 1.54180   50.00000   50.00000   50.00000   90.00000   90.00000   90.00000
LATT -1
SFAC C  
C      1  0.4506250000000  0.5744580000000  0.4737870000000 1.0
C      1  0.4495740000000  0.4654070000000  0.5351240000000 1.0
C      1  0.4834660000000  0.5291230000000  0.6033970000000 1.0
C      1  0.4880190000000  0.4627610000000  0.5930560000000 1.0
C      1  0.5103450000000  0.3949950000000  0.5068560000000 1.0
C      1  0.4766190000000  0.4555350000000  0.5255400000000 1.0
C      1  0.4804100000000  0.4668360000000  0.4992440000000 1.0
C      1  0.4822180000000  0.4259740000000  0.5632730000000 1.0
C      1  0.4149860000000  0.5275840000000  0.5816190000000 1.0
C      1  0.4531290000000  0.5511610000000  0.4897770000000 1.0
C      1  0.5682400000000  0.5769400000000  0.4603100000000 1.0
C      1  0.5292550000000  0.4046240000000  0.5729670000000 1.0
C      1  0.4445010000000  0.4091000000000  0.4089440000000 1.0
C      1  0.4930350000000  0.5521260000000  0.4237370000000 1.0
C      1  0.4081310000000  0.5677120000000  0.5393880000000 1.0
C      1  0.4608470000000  0.4097950000000  0.5202930000000 1.0
C      1  0.5980260000000  0.3793840000000  0.5777000000000 1.0
C      1  0.6412510000000  0.3545560000000  0.5944160000000 1.0
C      1  0.5723390000000  0.4916100000000  0.4621580000000 1.0
C      1  0.4879660000000  0.5785640000000  0.4315150000000 1.0
C      1  0.4778500000000  0.5949520000000  0.5315680000000 1.0
C      1  0.4493070000000  0.5029970000000  0.5025890000000 1.0
C      1  0.4382620000000  0.4327080000000  0.4510320000000 1.0
C      1  0.4130490000000  0.4459090000000  0.4507490000000 1.0
C      1  0.5851400000000  0.5276130000000  0.3681690000000 1.0
C      1  0.4563460000000  0.5209190000000  0.6054460000000 1.0
C      1  0.4149730000000  0.5019830000000  0.5719810000000 1.0
C      1  0.4550950000000  0.4249930000000  0.4293680000000 1.0
C      1  0.5548250000000  0.5312800000000  0.4407620000000 1.0
C      1  0.4567360000000  0.5212070000000  0.4317970000000 1.0
C      1  0.3967880000000  0.5412490000000  0.4771750000000 1.0
C      1  0.4948390000000  0.5729560000000  0.5377700000000 1.0
C      1  0.4484090000000  0.4642050000000  0.5636960000000 1.0
C      1  0.5307570000000  0.5961030000000  0.4927850000000 1.0
C      1  0.4816170000000  0.5312700000000  0.4394810000000 1.0
C      1  0.5190100000000  0.5487390000000  0.4138700000000 1.0
C      1  0.5765760000000  0.4251750000000  0.5161590000000 1.0
C      1  0.4490770000000  0.4936220000000  0.6027340000000 1.0
C      1  0.5589290000000  0.5783810000000  0.5323350000000 1.0
C      1  0.5334270000000  0.5203000000000  0.5244910000000 1.0
C      1  0.5661820000000  0.5354380000000  0.4876400000000 1.0
C      1  0.4099680000000  0.5341020000000  0.5012260000000 1.0
C      1  0.5956610000000  0.4857250000000  0.4488600000000 1.0
C      1  0.4961080000000  0.5504410000000  0.5213400000000 1.0
C      1  0.5494320000000  0.4459430000000  0.4594790000000 1.0
C      1  0.5812600000000  0.4534920000000  0.5129260000000 1.0
C      1  0.5097320000000  0.5281900000000  0.5109910000000 1.0
C      1  0.4492320000000  0.4326300000000  0.4771050000000 1.0
C      1  0.5649100000000  0.5181940000000  0.5582500000000 1.0
C      1  0.4040850000000  0.5604830000000  0.4596530000000 1.0
C      1  0.5553420000000  0.4202080000000  0.5350370000000 1.0
C      1  0.4014230000000  0.5461190000000  0.5251250000000 1.0
C      1  0.4264810000000  0.5755010000000  0.4588400000000 1.0
C      1  0.5161430000000  0.5747670000000  0.5572320000000 1.0
C      1  0.6004950000000  0.5463170000000  0.3584740000000 1.0
C      1  0.4267200000000  0.5863850000000  0.5433020000000 1.0
C      1  0.5632180000000  0.4223670000000  0.4681330000000 1.0
C      1  0.5773050000000  0.5327190000000  0.5367090000000 1.0
C      1  0.4546950000000  0.4580700000000  0.4874580000000 1.0
C      1  0.4904460000000  0.5568370000000  0.5964370000000 1.0
C      1  0.5424630000000  0.5770430000000  0.4478300000000 1.0
C      1  0.5369780000000  0.4773410000000  0.4058450000000 1.0
C      1  0.5048960000000  0.4244310000000  0.4447750000000 1.0
C      1  0.5540440000000  0.4053690000000  0.5592220000000 1.0
C      1  0.5402940000000  0.5534530000000  0.4313070000000 1.0
C      1  0.4967220000000  0.5144570000000  0.4897770000000 1.0
C      1  0.5311980000000  0.4340290000000  0.5270850000000 1.0
C      1  0.5678900000000  0.5643130000000  0.4855400000000 1.0
C      1  0.4620120000000  0.6215000000000  0.4753460000000 1.0
C      1  0.5746830000000  0.4123810000000  0.4906660000000 1.0
C      1  0.4381330000000  0.5285850000000  0.4987850000000 1.0
C      1  0.5602140000000  0.5257180000000  0.5134620000000 1.0
C      1  0.4512620000000  0.5959460000000  0.5396730000000 1.0
C      1  0.4356770000000  0.4749340000000  0.5069670000000 1.0
C      1  0.5270540000000  0.4436250000000  0.4421490000000 1.0
C      1  0.5085580000000  0.4180850000000  0.5225830000000 1.0
C      1  0.5348550000000  0.4600670000000  0.5163440000000 1.0
C      1  0.5031310000000  0.4844360000000  0.5962170000000 1.0
C      1  0.4430920000000  0.5667940000000  0.5985450000000 1.0
C      1  0.5092450000000  0.3877980000000  0.4812540000000 1.0
C      1  0.4705140000000  0.4489800000000  0.5758060000000 1.0
C      1  0.5066070000000  0.4000340000000  0.4578110000000 1.0
C      1  0.5575390000000  0.4701650000000  0.4736660000000 1.0
C      1  0.4016660000000  0.4605070000000  0.4706900000000 1.0
C      1  0.5184840000000  0.6145030000000  0.5117190000000 1.0
C      1  0.4938560000000  0.5899410000000  0.4567780000000 1.0
C      1  0.4825010000000  0.4326140000000  0.4281570000000 1.0
C      1  0.5387920000000  0.5905890000000  0.5485700000000 1.0
C      1  0.6198170000000  0.3668670000000  0.5861280000000 1.0
C      1  0.5039070000000  0.5118670000000  0.5925200000000 1.0
C      1  0.4934960000000  0.4525520000000  0.4100520000000 1.0
C      1  0.4407740000000  0.4945390000000  0.3921050000000 1.0
C      1  0.5032600000000  0.4110260000000  0.5749780000000 1.0
C      1  0.4503640000000  0.4113830000000  0.4954530000000 1.0
C      1  0.5199720000000  0.5274900000000  0.5745220000000 1.0
C      1  0.5793750000000  0.5606960000000  0.5403640000000 1.0
C      1  0.5531780000000  0.4921420000000  0.3910160000000 1.0
C      1  0.4950250000000  0.5229000000000  0.4629390000000 1.0
C      1  0.4904910000000  0.6145650000000  0.5155540000000 1.0
C      1  0.5532250000000  0.5802810000000  0.5041660000000 1.0
C      1  0.4355480000000  0.5396260000000  0.5971330000000 1.0
C      1  0.5362440000000  0.5174960000000  0.5540440000000 1.0
C      1  0.5321980000000  0.6160440000000  0.5370160000000 1.0
C      1  0.5130460000000  0.5559390000000  0.5780580000000 1.0
C      1  0.5693780000000  0.5090080000000  0.3785550000000 1.0
C      1  0.4821770000000  0.4266130000000  0.5331590000000 1.0
C      1  0.4407150000000  0.5107010000000  0.4133420000000 1.0
C      1  0.4088290000000  0.4708960000000  0.4948100000000 1.0
C      1  0.5644960000000  0.5189490000000  0.4641590000000 1.0
C      1  0.4776520000000  0.4955700000000  0.4978060000000 1.0
C      1  0.5763220000000  0.3919280000000  0.5691480000000 1.0
C      1  0.4573270000000  0.4764380000000  0.3815280000000 1.0
C      1  0.4789380000000  0.4625630000000  0.3886580000000 1.0
C      1  0.4698470000000  0.5955400000000  0.4712190000000 1.0
C      1  0.4352200000000  0.4835270000000  0.5797610000000 1.0
C      1  0.4348030000000  0.3952120000000  0.3891420000000 1.0
C      1  0.5584260000000  0.4673860000000  0.5022100000000 1.0
C      1  0.4690080000000  0.5749960000000  0.5984560000000 1.0
C      1  0.5201620000000  0.4595650000000  0.4187760000000 1.0
C      1  0.5215900000000  0.5893180000000  0.4653770000000 1.0
END
