TITL C-612607-4507-98 26.0791597052091 125000 -904.436232660527 0 0 149 (C1) n - 1
REM
REM in /home/nfs/bkarasulu/CARBON/AIRSS/Generating-Clusters/TERSOFF/Only-C1/FIRE-HFTN
REM
REM
REM
REM
REM
REM ./C.cell (11c1c37f851c82e70ff6c80c92926a4b)
REM AIRSS Version 0.9.1 bugfix July 2018 build 013d7b7c2542+ Fri, 06 Jul 2018 19:26:36 +0100
REM compiler GCC version 9.2.1 20190827 (Red Hat 9.2.1-1)
REM options -cpp -mtune=generic -march=x86-64 -g -O0 -fpre-include=/usr/include/finclude/math-vector-fortran.h
REM seed 439168517 179090099 -988130273 -504212768 -314250247 -1444747035 428056452 -1875173755 707202361 -1241512445 1305850843 -1421570230 1662489974 1201323022 -1571558095 -586729170 1403708420 433134290 -567497084 1383353265 -2142981967 -422639439 1760200835 1156822255 -2045253268 983518036 -106580778 -794835436 1046489905 703204071 1141605828 -1623970776 598240847
REM
CELL 1.54180   50.00000   50.00000   50.00000   90.00000   90.00000   90.00000
LATT -1
SFAC C  
C      1  0.4258830000000  0.5298380000000  0.6356640000000 1.0
C      1  0.5596910000000  0.5858820000000  0.4238530000000 1.0
C      1  0.5436350000000  0.4316780000000  0.5322150000000 1.0
C      1  0.5022020000000  0.4723520000000  0.4733580000000 1.0
C      1  0.4846300000000  0.5428980000000  0.4600930000000 1.0
C      1  0.5238080000000  0.4234860000000  0.5171090000000 1.0
C      1  0.4763850000000  0.4555830000000  0.3918340000000 1.0
C      1  0.5218880000000  0.5120030000000  0.3601060000000 1.0
C      1  0.3868220000000  0.5091340000000  0.5513490000000 1.0
C      1  0.4885480000000  0.5582800000000  0.4357280000000 1.0
C      1  0.4493830000000  0.3931360000000  0.5212550000000 1.0
C      1  0.6341390000000  0.5047960000000  0.5783110000000 1.0
C      1  0.5500760000000  0.3701790000000  0.4946200000000 1.0
C      1  0.5101350000000  0.3404790000000  0.5913800000000 1.0
C      1  0.6149360000000  0.6400040000000  0.4159210000000 1.0
C      1  0.3984030000000  0.5338370000000  0.6436330000000 1.0
C      1  0.5070850000000  0.5257060000000  0.4721300000000 1.0
C      1  0.5359150000000  0.4927590000000  0.3723690000000 1.0
C      1  0.5940650000000  0.5405680000000  0.5550040000000 1.0
C      1  0.4733550000000  0.4958650000000  0.4457080000000 1.0
C      1  0.4022290000000  0.4333380000000  0.4845540000000 1.0
C      1  0.4515020000000  0.4276990000000  0.4541950000000 1.0
C      1  0.4489540000000  0.4941320000000  0.4321540000000 1.0
C      1  0.3657010000000  0.5872690000000  0.4207640000000 1.0
C      1  0.3883020000000  0.5258470000000  0.5723370000000 1.0
C      1  0.5369240000000  0.3647600000000  0.5177880000000 1.0
C      1  0.4003650000000  0.4918640000000  0.4801490000000 1.0
C      1  0.3820750000000  0.5373980000000  0.6215360000000 1.0
C      1  0.5799050000000  0.5027950000000  0.5253460000000 1.0
C      1  0.4729450000000  0.5063260000000  0.3818280000000 1.0
C      1  0.4606700000000  0.6029240000000  0.4750510000000 1.0
C      1  0.5462800000000  0.5915940000000  0.4479920000000 1.0
C      1  0.4593010000000  0.5404980000000  0.4748850000000 1.0
C      1  0.5157300000000  0.3793120000000  0.5298010000000 1.0
C      1  0.4637760000000  0.4938840000000  0.6438760000000 1.0
C      1  0.5032880000000  0.5634250000000  0.5209410000000 1.0
C      1  0.4625640000000  0.4540240000000  0.6158300000000 1.0
C      1  0.4775270000000  0.4746420000000  0.6285140000000 1.0
C      1  0.4289230000000  0.4983040000000  0.4820700000000 1.0
C      1  0.5479130000000  0.4875920000000  0.3973890000000 1.0
C      1  0.5871590000000  0.4738070000000  0.5200790000000 1.0
C      1  0.5054000000000  0.5511970000000  0.3886960000000 1.0
C      1  0.4970820000000  0.4785150000000  0.5709160000000 1.0
C      1  0.5356750000000  0.4405280000000  0.4225290000000 1.0
C      1  0.5408200000000  0.4683190000000  0.5007130000000 1.0
C      1  0.6101240000000  0.5576000000000  0.4889780000000 1.0
C      1  0.5280660000000  0.5657340000000  0.3954220000000 1.0
C      1  0.5514830000000  0.5014640000000  0.5368430000000 1.0
C      1  0.5056390000000  0.4851960000000  0.5277200000000 1.0
C      1  0.5033030000000  0.4801790000000  0.6181230000000 1.0
C      1  0.4299100000000  0.4453920000000  0.4456120000000 1.0
C      1  0.5565790000000  0.5280540000000  0.4866160000000 1.0
C      1  0.6315120000000  0.4606940000000  0.5305820000000 1.0
C      1  0.5434520000000  0.4899330000000  0.4591700000000 1.0
C      1  0.4495060000000  0.4329360000000  0.5719770000000 1.0
C      1  0.5081940000000  0.5577600000000  0.5494910000000 1.0
C      1  0.4821270000000  0.5216330000000  0.5459540000000 1.0
C      1  0.4974140000000  0.4997480000000  0.5508120000000 1.0
C      1  0.5807550000000  0.5191290000000  0.4990820000000 1.0
C      1  0.5529560000000  0.3854030000000  0.4725460000000 1.0
C      1  0.5331360000000  0.4846040000000  0.5222830000000 1.0
C      1  0.6350200000000  0.6040310000000  0.4904650000000 1.0
C      1  0.5953740000000  0.6234200000000  0.4089770000000 1.0
C      1  0.4899320000000  0.3954560000000  0.4920930000000 1.0
C      1  0.6217270000000  0.5811750000000  0.4926180000000 1.0
C      1  0.4878390000000  0.5592730000000  0.5700680000000 1.0
C      1  0.6244780000000  0.5028860000000  0.5527640000000 1.0
C      1  0.4770750000000  0.4300740000000  0.5642870000000 1.0
C      1  0.6388410000000  0.4879610000000  0.5329430000000 1.0
C      1  0.5047550000000  0.3814930000000  0.5561120000000 1.0
C      1  0.5081740000000  0.4008580000000  0.5126410000000 1.0
C      1  0.4758250000000  0.4797110000000  0.3804510000000 1.0
C      1  0.4421440000000  0.4853270000000  0.5054760000000 1.0
C      1  0.5140770000000  0.4848990000000  0.5926410000000 1.0
C      1  0.4460180000000  0.4522620000000  0.5928600000000 1.0
C      1  0.4038680000000  0.4749920000000  0.5908140000000 1.0
C      1  0.4653420000000  0.4673100000000  0.5070620000000 1.0
C      1  0.4315590000000  0.4762410000000  0.5874650000000 1.0
C      1  0.5086620000000  0.5345670000000  0.3660950000000 1.0
C      1  0.4156090000000  0.5373890000000  0.4564190000000 1.0
C      1  0.5622440000000  0.5366790000000  0.4125470000000 1.0
C      1  0.4458580000000  0.5136000000000  0.6465190000000 1.0
C      1  0.5517250000000  0.5626900000000  0.4099480000000 1.0
C      1  0.5129320000000  0.3206420000000  0.6080630000000 1.0
C      1  0.4753590000000  0.4258380000000  0.4371250000000 1.0
C      1  0.3819350000000  0.5707380000000  0.4327150000000 1.0
C      1  0.4297080000000  0.4139630000000  0.5263000000000 1.0
C      1  0.4050350000000  0.4407980000000  0.4585930000000 1.0
C      1  0.4848110000000  0.4643550000000  0.5281240000000 1.0
C      1  0.4470960000000  0.4159220000000  0.4805080000000 1.0
C      1  0.4348990000000  0.4699660000000  0.4329420000000 1.0
C      1  0.4305210000000  0.4253450000000  0.5521100000000 1.0
C      1  0.5562960000000  0.5752000000000  0.4946280000000 1.0
C      1  0.4999000000000  0.4132370000000  0.4453010000000 1.0
C      1  0.3795550000000  0.4684940000000  0.5976550000000 1.0
C      1  0.4442680000000  0.5172000000000  0.4165180000000 1.0
C      1  0.4851160000000  0.5465360000000  0.4086760000000 1.0
C      1  0.5311770000000  0.5419260000000  0.5563070000000 1.0
C      1  0.5147780000000  0.6134680000000  0.4756560000000 1.0
C      1  0.6438500000000  0.6260950000000  0.4785960000000 1.0
C      1  0.5996080000000  0.5153940000000  0.5453820000000 1.0
C      1  0.4253870000000  0.5354970000000  0.6065960000000 1.0
C      1  0.3984960000000  0.5539610000000  0.4448250000000 1.0
C      1  0.4874020000000  0.4548690000000  0.5558420000000 1.0
C      1  0.4973240000000  0.3937580000000  0.4653740000000 1.0
C      1  0.6060550000000  0.4549870000000  0.5233650000000 1.0
C      1  0.4273060000000  0.4974910000000  0.5277680000000 1.0
C      1  0.4801820000000  0.4585610000000  0.4840880000000 1.0
C      1  0.4941900000000  0.4976430000000  0.4639800000000 1.0
C      1  0.4939630000000  0.5865320000000  0.4411830000000 1.0
C      1  0.3973340000000  0.5359030000000  0.5968740000000 1.0
C      1  0.5155270000000  0.5469620000000  0.5006110000000 1.0
C      1  0.5397460000000  0.5164900000000  0.4671970000000 1.0
C      1  0.5603310000000  0.5101010000000  0.4093130000000 1.0
C      1  0.5073350000000  0.3606070000000  0.5743830000000 1.0
C      1  0.6437100000000  0.6425680000000  0.4577070000000 1.0
C      1  0.4243280000000  0.4234430000000  0.4988770000000 1.0
C      1  0.5778110000000  0.6038960000000  0.4126900000000 1.0
C      1  0.5424220000000  0.5159530000000  0.5602510000000 1.0
C      1  0.3870410000000  0.4890500000000  0.5051640000000 1.0
C      1  0.3862520000000  0.4912420000000  0.4567390000000 1.0
C      1  0.4657270000000  0.5264630000000  0.4006340000000 1.0
C      1  0.4909090000000  0.4054390000000  0.5634470000000 1.0
C      1  0.6062390000000  0.5299650000000  0.4911210000000 1.0
C      1  0.4684440000000  0.5466600000000  0.5845460000000 1.0
C      1  0.6329630000000  0.6477300000000  0.4339020000000 1.0
C      1  0.3988160000000  0.4949970000000  0.5300330000000 1.0
C      1  0.6295050000000  0.5142020000000  0.4915610000000 1.0
C      1  0.4458430000000  0.5005070000000  0.5837050000000 1.0
C      1  0.4551520000000  0.5603030000000  0.4945380000000 1.0
C      1  0.4360490000000  0.5231090000000  0.5346510000000 1.0
C      1  0.4600050000000  0.5335020000000  0.5378490000000 1.0
C      1  0.4708350000000  0.6011180000000  0.4499320000000 1.0
C      1  0.6452280000000  0.5013330000000  0.5090300000000 1.0
C      1  0.4476200000000  0.5280140000000  0.5908400000000 1.0
C      1  0.5360350000000  0.5013560000000  0.5843230000000 1.0
C      1  0.5186620000000  0.5979050000000  0.4517930000000 1.0
C      1  0.4657480000000  0.5859410000000  0.4973540000000 1.0
C      1  0.5274100000000  0.4194340000000  0.4392700000000 1.0
C      1  0.4909820000000  0.5876680000000  0.5109690000000 1.0
C      1  0.4362720000000  0.5239890000000  0.4704400000000 1.0
C      1  0.5074600000000  0.6084910000000  0.5011520000000 1.0
C      1  0.5304170000000  0.4700820000000  0.4748160000000 1.0
C      1  0.5436170000000  0.5505390000000  0.4981030000000 1.0
C      1  0.4626560000000  0.3974830000000  0.4965320000000 1.0
C      1  0.4749660000000  0.4376070000000  0.4114650000000 1.0
C      1  0.5463180000000  0.4033670000000  0.4535770000000 1.0
C      1  0.5441290000000  0.4627340000000  0.4101540000000 1.0
C      1  0.5607160000000  0.5892130000000  0.4721830000000 1.0
END
