TITL C-612605-9286-1211 30.5559119390174 125000 -438.88220507352 0 0 72 (C1) n - 1
REM
REM in /home/nfs/bkarasulu/CARBON/AIRSS/Generating-Clusters/TERSOFF/Only-C1/FIRE-HFTN
REM
REM
REM
REM
REM
REM ./C.cell (11c1c37f851c82e70ff6c80c92926a4b)
REM AIRSS Version 0.9.1 bugfix July 2018 build 013d7b7c2542+ Fri, 06 Jul 2018 19:26:36 +0100
REM compiler GCC version 9.2.1 20190827 (Red Hat 9.2.1-1)
REM options -cpp -mtune=generic -march=x86-64 -g -O0 -fpre-include=/usr/include/finclude/math-vector-fortran.h
REM seed -1750441370 -1959373231 1963562327 1632991908 -1776539358 1087826591 1043189299 -243277949 272263293 -1889410963 -271818000 1903312202 -639372129 -2072832967 602481331 -598039054 757435374 -2133553962 -766269482 1256095771 523149048 437012340 -360702338 -602364357 710253874 -1892289684 -823909003 1604981409 415283779 -1380802225 704309816 -465255106 -447875293
REM
CELL 1.54180   50.00000   50.00000   50.00000   90.00000   90.00000   90.00000
LATT -1
SFAC C  
C      1  0.4884050000000  0.4565900000000  0.5091220000000 1.0
C      1  0.5441500000000  0.5785150000000  0.4295410000000 1.0
C      1  0.4724950000000  0.4624650000000  0.4423920000000 1.0
C      1  0.4979540000000  0.5216120000000  0.4811160000000 1.0
C      1  0.4596920000000  0.5671350000000  0.5045770000000 1.0
C      1  0.5967930000000  0.5321570000000  0.4610950000000 1.0
C      1  0.5022210000000  0.5364660000000  0.6206270000000 1.0
C      1  0.3996360000000  0.3804770000000  0.5799520000000 1.0
C      1  0.5189730000000  0.5079630000000  0.4953880000000 1.0
C      1  0.5528440000000  0.3854750000000  0.5463990000000 1.0
C      1  0.5336610000000  0.5257770000000  0.5552090000000 1.0
C      1  0.4669890000000  0.5371900000000  0.5430090000000 1.0
C      1  0.5585130000000  0.4510250000000  0.5687880000000 1.0
C      1  0.5439590000000  0.4802260000000  0.4655750000000 1.0
C      1  0.4491050000000  0.5184500000000  0.4708200000000 1.0
C      1  0.5039460000000  0.6061000000000  0.4456090000000 1.0
C      1  0.4767180000000  0.4881080000000  0.4491220000000 1.0
C      1  0.5311110000000  0.5635640000000  0.5264380000000 1.0
C      1  0.4487570000000  0.5750470000000  0.4796030000000 1.0
C      1  0.5619540000000  0.5020170000000  0.4651470000000 1.0
C      1  0.5465020000000  0.5034420000000  0.5656380000000 1.0
C      1  0.4756840000000  0.5098380000000  0.4668130000000 1.0
C      1  0.4783890000000  0.6000140000000  0.4503190000000 1.0
C      1  0.5544660000000  0.4785320000000  0.5698080000000 1.0
C      1  0.5292410000000  0.4654520000000  0.4210000000000 1.0
C      1  0.4023910000000  0.4004190000000  0.5633880000000 1.0
C      1  0.5901120000000  0.5314760000000  0.4879220000000 1.0
C      1  0.5440290000000  0.5526140000000  0.4187000000000 1.0
C      1  0.4556770000000  0.4848460000000  0.5343150000000 1.0
C      1  0.5688720000000  0.3759410000000  0.5657940000000 1.0
C      1  0.4606160000000  0.5589090000000  0.4336220000000 1.0
C      1  0.4090610000000  0.4410630000000  0.5300580000000 1.0
C      1  0.4052900000000  0.4207050000000  0.5465770000000 1.0
C      1  0.4224780000000  0.5104480000000  0.5093420000000 1.0
C      1  0.5062290000000  0.5372940000000  0.5948910000000 1.0
C      1  0.5103040000000  0.5374620000000  0.5673710000000 1.0
C      1  0.5407620000000  0.5369820000000  0.5297900000000 1.0
C      1  0.4647420000000  0.5090870000000  0.5456360000000 1.0
C      1  0.5029400000000  0.5663270000000  0.5284520000000 1.0
C      1  0.4151580000000  0.4625320000000  0.5135700000000 1.0
C      1  0.5439890000000  0.4100020000000  0.5399780000000 1.0
C      1  0.5464230000000  0.4351500000000  0.5488650000000 1.0
C      1  0.5115560000000  0.4455730000000  0.4631740000000 1.0
C      1  0.4738340000000  0.5425190000000  0.4169740000000 1.0
C      1  0.4072620000000  0.4639420000000  0.4862330000000 1.0
C      1  0.4483780000000  0.5503130000000  0.5249740000000 1.0
C      1  0.4738270000000  0.4443610000000  0.5531120000000 1.0
C      1  0.4998710000000  0.5028270000000  0.4006110000000 1.0
C      1  0.4875720000000  0.4410000000000  0.4489660000000 1.0
C      1  0.5247360000000  0.4815660000000  0.4877710000000 1.0
C      1  0.4883210000000  0.5661570000000  0.5041690000000 1.0
C      1  0.4115960000000  0.4856970000000  0.4704370000000 1.0
C      1  0.5149820000000  0.4810880000000  0.4045730000000 1.0
C      1  0.4599410000000  0.5789070000000  0.4536720000000 1.0
C      1  0.5206410000000  0.5449910000000  0.4053460000000 1.0
C      1  0.4726360000000  0.4618840000000  0.5320080000000 1.0
C      1  0.4245100000000  0.5359810000000  0.5207490000000 1.0
C      1  0.5328270000000  0.4598540000000  0.4483150000000 1.0
C      1  0.5747450000000  0.4376150000000  0.5875160000000 1.0
C      1  0.4249660000000  0.5084490000000  0.4808290000000 1.0
C      1  0.5630730000000  0.5331010000000  0.4253460000000 1.0
C      1  0.5819250000000  0.3879690000000  0.5860130000000 1.0
C      1  0.5423200000000  0.5209250000000  0.5066570000000 1.0
C      1  0.5762310000000  0.5188000000000  0.4454020000000 1.0
C      1  0.5284300000000  0.5980090000000  0.4387950000000 1.0
C      1  0.4296260000000  0.4856830000000  0.5225030000000 1.0
C      1  0.5839210000000  0.4134040000000  0.5943920000000 1.0
C      1  0.5658220000000  0.5164170000000  0.4914910000000 1.0
C      1  0.4985820000000  0.5497290000000  0.4836160000000 1.0
C      1  0.4967980000000  0.5302340000000  0.4061430000000 1.0
C      1  0.5082090000000  0.4583020000000  0.4894560000000 1.0
C      1  0.4916370000000  0.5498060000000  0.5493780000000 1.0
END
