TITL C-612604-1799-245 0.20403158016883 125000 -546.783124374455 0 0 89 (C1) n - 1
REM
REM in /home/nfs/bkarasulu/CARBON/AIRSS/Generating-Clusters/TERSOFF/Only-C1/FIRE-HFTN
REM
REM
REM
REM
REM
REM ./C.cell (11c1c37f851c82e70ff6c80c92926a4b)
REM AIRSS Version 0.9.1 bugfix July 2018 build 013d7b7c2542+ Fri, 06 Jul 2018 19:26:36 +0100
REM compiler GCC version 9.2.1 20190827 (Red Hat 9.2.1-1)
REM options -cpp -mtune=generic -march=x86-64 -g -O0 -fpre-include=/usr/include/finclude/math-vector-fortran.h
REM seed 1573129302 422836431 -240075059 -1127088445 406856839 -370860767 1032470025 -1119002658 -1515623777 1238366271 402450222 -232625047 1677605482 -301439562 2006737610 1311909656 409601188 -2057879756 -967721944 -1052258036 554545510 -613321804 -877297976 1979004426 8698448 -310759902 1930029743 -744061246 -963813279 -1666017928 1471603470 238513785 948699340
REM
CELL 1.54180   50.00000   50.00000   50.00000   90.00000   90.00000   90.00000
LATT -1
SFAC C  
C      1  0.5818250000000  0.4532400000000  0.4614190000000 1.0
C      1  0.4642670000000  0.4826760000000  0.5355940000000 1.0
C      1  0.5270120000000  0.4677660000000  0.5877620000000 1.0
C      1  0.5549370000000  0.4581000000000  0.4548440000000 1.0
C      1  0.5549080000000  0.5711350000000  0.5133870000000 1.0
C      1  0.4822300000000  0.5400120000000  0.5669350000000 1.0
C      1  0.4701730000000  0.5363780000000  0.4837950000000 1.0
C      1  0.4478680000000  0.5530320000000  0.4840950000000 1.0
C      1  0.5164810000000  0.4961240000000  0.5257630000000 1.0
C      1  0.6281230000000  0.5332150000000  0.4535610000000 1.0
C      1  0.4954250000000  0.5143950000000  0.5212250000000 1.0
C      1  0.4888900000000  0.5831220000000  0.4563110000000 1.0
C      1  0.4969430000000  0.5912170000000  0.4828680000000 1.0
C      1  0.4862220000000  0.4226330000000  0.4447690000000 1.0
C      1  0.4608770000000  0.5292580000000  0.5514590000000 1.0
C      1  0.5050640000000  0.5698580000000  0.4360630000000 1.0
C      1  0.4935760000000  0.4812050000000  0.3975200000000 1.0
C      1  0.4914720000000  0.5344850000000  0.5021820000000 1.0
C      1  0.4869610000000  0.4717440000000  0.4751970000000 1.0
C      1  0.5443670000000  0.5247360000000  0.5841640000000 1.0
C      1  0.5370690000000  0.4038470000000  0.5288320000000 1.0
C      1  0.5194250000000  0.5216480000000  0.4576810000000 1.0
C      1  0.5564950000000  0.4380240000000  0.5635010000000 1.0
C      1  0.3876240000000  0.5254920000000  0.5023010000000 1.0
C      1  0.5193960000000  0.5241390000000  0.5939340000000 1.0
C      1  0.4848000000000  0.5776920000000  0.5331700000000 1.0
C      1  0.5151750000000  0.4780280000000  0.4738400000000 1.0
C      1  0.5370760000000  0.4896170000000  0.4141670000000 1.0
C      1  0.5359150000000  0.4580410000000  0.4762910000000 1.0
C      1  0.4894410000000  0.4227170000000  0.4726820000000 1.0
C      1  0.5625030000000  0.5666700000000  0.4851240000000 1.0
C      1  0.4175720000000  0.5038410000000  0.4701220000000 1.0
C      1  0.6076300000000  0.5448410000000  0.4647180000000 1.0
C      1  0.5485010000000  0.4717030000000  0.4306940000000 1.0
C      1  0.5517190000000  0.4634360000000  0.5744710000000 1.0
C      1  0.4384020000000  0.4538680000000  0.5139950000000 1.0
C      1  0.3514200000000  0.4006890000000  0.4430880000000 1.0
C      1  0.4942240000000  0.5253660000000  0.4459570000000 1.0
C      1  0.5407440000000  0.4558090000000  0.5043210000000 1.0
C      1  0.4803330000000  0.4584990000000  0.5338380000000 1.0
C      1  0.4844640000000  0.4574170000000  0.4057180000000 1.0
C      1  0.4973620000000  0.5606760000000  0.5526870000000 1.0
C      1  0.4976180000000  0.5441820000000  0.4247110000000 1.0
C      1  0.5612600000000  0.5273310000000  0.5376800000000 1.0
C      1  0.4836740000000  0.5875320000000  0.5078990000000 1.0
C      1  0.5308690000000  0.4734850000000  0.5224950000000 1.0
C      1  0.5002170000000  0.4700560000000  0.5795250000000 1.0
C      1  0.4928950000000  0.5197030000000  0.5851780000000 1.0
C      1  0.5499410000000  0.5102660000000  0.4927660000000 1.0
C      1  0.4671730000000  0.4451070000000  0.5116580000000 1.0
C      1  0.4933260000000  0.4528790000000  0.5577850000000 1.0
C      1  0.4801490000000  0.4458610000000  0.4863620000000 1.0
C      1  0.4082200000000  0.5341830000000  0.5473410000000 1.0
C      1  0.5215690000000  0.3991430000000  0.5076310000000 1.0
C      1  0.6050110000000  0.4800450000000  0.4973850000000 1.0
C      1  0.3897480000000  0.5292060000000  0.5287390000000 1.0
C      1  0.5071630000000  0.5286570000000  0.4024330000000 1.0
C      1  0.5329590000000  0.5740790000000  0.4418530000000 1.0
C      1  0.4338440000000  0.4747070000000  0.5667330000000 1.0
C      1  0.5929540000000  0.4994410000000  0.5112450000000 1.0
C      1  0.4375140000000  0.4713840000000  0.5381720000000 1.0
C      1  0.5659840000000  0.4864580000000  0.5664460000000 1.0
C      1  0.4652940000000  0.4901330000000  0.4688270000000 1.0
C      1  0.5283810000000  0.5034920000000  0.4759850000000 1.0
C      1  0.5685760000000  0.5130750000000  0.5139490000000 1.0
C      1  0.4712420000000  0.5089220000000  0.5348380000000 1.0
C      1  0.4059150000000  0.5269540000000  0.4810620000000 1.0
C      1  0.5136880000000  0.5005470000000  0.4021310000000 1.0
C      1  0.4728240000000  0.5174600000000  0.4624830000000 1.0
C      1  0.3698360000000  0.4152790000000  0.4543850000000 1.0
C      1  0.4339930000000  0.5357470000000  0.5537620000000 1.0
C      1  0.5051730000000  0.4046530000000  0.4872950000000 1.0
C      1  0.5430320000000  0.5797500000000  0.4676800000000 1.0
C      1  0.5255270000000  0.5585890000000  0.5498960000000 1.0
C      1  0.5862100000000  0.5554110000000  0.4761790000000 1.0
C      1  0.5599270000000  0.5139020000000  0.5631500000000 1.0
C      1  0.6008430000000  0.4621560000000  0.4779720000000 1.0
C      1  0.5251240000000  0.5953920000000  0.4853960000000 1.0
C      1  0.4834900000000  0.4362280000000  0.4219320000000 1.0
C      1  0.4216510000000  0.5502720000000  0.4794870000000 1.0
C      1  0.4534130000000  0.4848750000000  0.5837730000000 1.0
C      1  0.4817670000000  0.4920100000000  0.5856760000000 1.0
C      1  0.4272360000000  0.4607730000000  0.4886880000000 1.0
C      1  0.5498760000000  0.4173710000000  0.5479390000000 1.0
C      1  0.5488950000000  0.5530710000000  0.5345570000000 1.0
C      1  0.3885610000000  0.4301130000000  0.4658700000000 1.0
C      1  0.4072870000000  0.4449620000000  0.4772850000000 1.0
C      1  0.5379980000000  0.5947620000000  0.5110940000000 1.0
C      1  0.4372420000000  0.4840010000000  0.4746290000000 1.0
END
