TITL C-612602-9376-234 9.00182322001442 125000 -1095.54746612296 0 0 178 (C1) n - 1
REM
REM in /home/nfs/bkarasulu/CARBON/AIRSS/Generating-Clusters/TERSOFF/Only-C1/FIRE-HFTN
REM
REM
REM
REM
REM
REM ./C.cell (11c1c37f851c82e70ff6c80c92926a4b)
REM AIRSS Version 0.9.1 bugfix July 2018 build 013d7b7c2542+ Fri, 06 Jul 2018 19:26:36 +0100
REM compiler GCC version 9.2.1 20190827 (Red Hat 9.2.1-1)
REM options -cpp -mtune=generic -march=x86-64 -g -O0 -fpre-include=/usr/include/finclude/math-vector-fortran.h
REM seed -908029218 -295486940 76666729 1619815632 1904825256 -521861818 -252230122 -2040009725 1293293940 1639639203 -1521144767 1288134795 -664174608 -2095291549 -1506365570 -630750471 1311902122 552563718 394286484 1180143375 -455845562 -218598902 2103756827 1075219039 644422739 1284160225 1876182944 1963826225 1504424573 -440539464 94582966 1221060754 -135508611
REM
CELL 1.54180   50.00000   50.00000   50.00000   90.00000   90.00000   90.00000
LATT -1
SFAC C  
C      1  0.5396050000000  0.4084460000000  0.4382350000000 1.0
C      1  0.5625640000000  0.4694650000000  0.4047770000000 1.0
C      1  0.4734130000000  0.4310400000000  0.4507440000000 1.0
C      1  0.5370490000000  0.6033100000000  0.5305350000000 1.0
C      1  0.5271240000000  0.5641750000000  0.5933820000000 1.0
C      1  0.5520010000000  0.4131710000000  0.5175600000000 1.0
C      1  0.5154780000000  0.4483960000000  0.5176790000000 1.0
C      1  0.5977730000000  0.5017220000000  0.4771200000000 1.0
C      1  0.5024120000000  0.5523540000000  0.5453650000000 1.0
C      1  0.3791400000000  0.5153540000000  0.4467540000000 1.0
C      1  0.4346930000000  0.5675630000000  0.4322830000000 1.0
C      1  0.5447560000000  0.5422680000000  0.5524090000000 1.0
C      1  0.5032070000000  0.4418960000000  0.5434070000000 1.0
C      1  0.3635740000000  0.4960680000000  0.5178480000000 1.0
C      1  0.4533610000000  0.5833570000000  0.5721040000000 1.0
C      1  0.4599300000000  0.4480020000000  0.6083580000000 1.0
C      1  0.6046800000000  0.4732060000000  0.5338670000000 1.0
C      1  0.5104420000000  0.4730460000000  0.5042730000000 1.0
C      1  0.5130140000000  0.4021370000000  0.4493350000000 1.0
C      1  0.4164370000000  0.5358660000000  0.5232410000000 1.0
C      1  0.5175140000000  0.5667220000000  0.4911670000000 1.0
C      1  0.5862050000000  0.3975480000000  0.4871950000000 1.0
C      1  0.4457140000000  0.4287440000000  0.4490450000000 1.0
C      1  0.4055380000000  0.5583130000000  0.4420240000000 1.0
C      1  0.5668110000000  0.4479560000000  0.5458710000000 1.0
C      1  0.3804780000000  0.4825800000000  0.5375790000000 1.0
C      1  0.5473950000000  0.4421400000000  0.4802740000000 1.0
C      1  0.4895890000000  0.4118240000000  0.4357110000000 1.0
C      1  0.5280590000000  0.4165290000000  0.5763340000000 1.0
C      1  0.4321470000000  0.5244250000000  0.5016070000000 1.0
C      1  0.4510060000000  0.4790000000000  0.5030110000000 1.0
C      1  0.4933180000000  0.4089020000000  0.4958660000000 1.0
C      1  0.5665760000000  0.4207010000000  0.4382400000000 1.0
C      1  0.6011470000000  0.5359880000000  0.5608610000000 1.0
C      1  0.4620830000000  0.6016980000000  0.5501030000000 1.0
C      1  0.6167390000000  0.4469190000000  0.5338590000000 1.0
C      1  0.4701070000000  0.5260220000000  0.4291470000000 1.0
C      1  0.5327950000000  0.5461970000000  0.5049940000000 1.0
C      1  0.4540680000000  0.5790610000000  0.4109710000000 1.0
C      1  0.4958640000000  0.3650450000000  0.4794570000000 1.0
C      1  0.5802090000000  0.5830020000000  0.5108150000000 1.0
C      1  0.4970840000000  0.4751050000000  0.4783170000000 1.0
C      1  0.5258340000000  0.5193910000000  0.4964110000000 1.0
C      1  0.5199210000000  0.5545660000000  0.4129790000000 1.0
C      1  0.5107530000000  0.3652640000000  0.5407360000000 1.0
C      1  0.4173180000000  0.4267640000000  0.5282750000000 1.0
C      1  0.4571540000000  0.5219010000000  0.5830060000000 1.0
C      1  0.4335430000000  0.5448360000000  0.4830130000000 1.0
C      1  0.5110090000000  0.5286340000000  0.4019620000000 1.0
C      1  0.5017580000000  0.4640420000000  0.4133540000000 1.0
C      1  0.5932940000000  0.5596220000000  0.4488720000000 1.0
C      1  0.5275800000000  0.5170860000000  0.4663680000000 1.0
C      1  0.4756880000000  0.6300190000000  0.4558540000000 1.0
C      1  0.4110320000000  0.5503510000000  0.5787010000000 1.0
C      1  0.4900330000000  0.6084370000000  0.5479150000000 1.0
C      1  0.5712610000000  0.5602300000000  0.4329270000000 1.0
C      1  0.5023640000000  0.4996350000000  0.4629270000000 1.0
C      1  0.5174350000000  0.5311290000000  0.5569170000000 1.0
C      1  0.3868260000000  0.5416330000000  0.4578750000000 1.0
C      1  0.4726390000000  0.5701110000000  0.5892150000000 1.0
C      1  0.5770830000000  0.4511510000000  0.4218400000000 1.0
C      1  0.4714710000000  0.4701370000000  0.6178910000000 1.0
C      1  0.5441200000000  0.5669270000000  0.5687060000000 1.0
C      1  0.4072050000000  0.5645200000000  0.5181600000000 1.0
C      1  0.5565180000000  0.4983070000000  0.4086580000000 1.0
C      1  0.6181590000000  0.4233340000000  0.5206180000000 1.0
C      1  0.5183720000000  0.4800910000000  0.3970740000000 1.0
C      1  0.5354750000000  0.3589860000000  0.5318690000000 1.0
C      1  0.4959670000000  0.4820490000000  0.6120410000000 1.0
C      1  0.5626690000000  0.6250450000000  0.4964260000000 1.0
C      1  0.5485520000000  0.4777340000000  0.4554450000000 1.0
C      1  0.4259690000000  0.5716970000000  0.5662050000000 1.0
C      1  0.5598750000000  0.6032190000000  0.5130660000000 1.0
C      1  0.5549980000000  0.5055840000000  0.4587890000000 1.0
C      1  0.5554890000000  0.5258090000000  0.6063320000000 1.0
C      1  0.5636970000000  0.3906540000000  0.5041600000000 1.0
C      1  0.5361480000000  0.4328130000000  0.5045790000000 1.0
C      1  0.3794270000000  0.5595580000000  0.5074370000000 1.0
C      1  0.4548420000000  0.4308890000000  0.5590190000000 1.0
C      1  0.3677170000000  0.4991480000000  0.4674630000000 1.0
C      1  0.6129100000000  0.5440710000000  0.4956400000000 1.0
C      1  0.4720620000000  0.4219980000000  0.3896470000000 1.0
C      1  0.3754250000000  0.5400330000000  0.4867880000000 1.0
C      1  0.4831900000000  0.3586830000000  0.5029180000000 1.0
C      1  0.4526150000000  0.5445510000000  0.4406460000000 1.0
C      1  0.4888330000000  0.4534550000000  0.4600440000000 1.0
C      1  0.5094760000000  0.6141160000000  0.5262430000000 1.0
C      1  0.4095690000000  0.4448870000000  0.3862230000000 1.0
C      1  0.6000210000000  0.5627030000000  0.5145850000000 1.0
C      1  0.4212710000000  0.4346720000000  0.5019340000000 1.0
C      1  0.4098960000000  0.4228260000000  0.4794180000000 1.0
C      1  0.6097520000000  0.5425970000000  0.4650560000000 1.0
C      1  0.4065120000000  0.4911500000000  0.5300240000000 1.0
C      1  0.4877180000000  0.3742040000000  0.5268560000000 1.0
C      1  0.5804560000000  0.4150390000000  0.4641660000000 1.0
C      1  0.4133690000000  0.5149360000000  0.5405920000000 1.0
C      1  0.6094260000000  0.4051010000000  0.5025720000000 1.0
C      1  0.3825580000000  0.5076690000000  0.4208910000000 1.0
C      1  0.5315600000000  0.5439570000000  0.4543280000000 1.0
C      1  0.4004880000000  0.4248630000000  0.4313010000000 1.0
C      1  0.5663460000000  0.5067490000000  0.5882070000000 1.0
C      1  0.5107360000000  0.4548490000000  0.4398050000000 1.0
C      1  0.4726190000000  0.4963950000000  0.3925780000000 1.0
C      1  0.5673680000000  0.5164400000000  0.5125360000000 1.0
C      1  0.6166080000000  0.4913450000000  0.5152370000000 1.0
C      1  0.4217500000000  0.5694690000000  0.4918680000000 1.0
C      1  0.5007900000000  0.5782660000000  0.5890080000000 1.0
C      1  0.4832380000000  0.4028610000000  0.5227090000000 1.0
C      1  0.4784970000000  0.5885860000000  0.4257260000000 1.0
C      1  0.4527580000000  0.6362740000000  0.4979860000000 1.0
C      1  0.6229700000000  0.5194870000000  0.5104520000000 1.0
C      1  0.5309630000000  0.4633640000000  0.5843520000000 1.0
C      1  0.4266930000000  0.4371590000000  0.5527470000000 1.0
C      1  0.5562620000000  0.4914070000000  0.5230840000000 1.0
C      1  0.5350400000000  0.5918500000000  0.5570070000000 1.0
C      1  0.3869620000000  0.4757840000000  0.5657650000000 1.0
C      1  0.4610700000000  0.4478590000000  0.3883260000000 1.0
C      1  0.5519260000000  0.4827770000000  0.5817200000000 1.0
C      1  0.4320410000000  0.5942190000000  0.4827560000000 1.0
C      1  0.3992170000000  0.5261440000000  0.5842780000000 1.0
C      1  0.5078760000000  0.5978160000000  0.5685410000000 1.0
C      1  0.5752420000000  0.4727020000000  0.5353880000000 1.0
C      1  0.5180070000000  0.4649810000000  0.6094880000000 1.0
C      1  0.5286060000000  0.4939850000000  0.5114860000000 1.0
C      1  0.4414620000000  0.5944780000000  0.4560540000000 1.0
C      1  0.4597000000000  0.4322540000000  0.5868760000000 1.0
C      1  0.5445420000000  0.5514820000000  0.4296550000000 1.0
C      1  0.4618560000000  0.5445950000000  0.5303710000000 1.0
C      1  0.4834430000000  0.4072310000000  0.4088390000000 1.0
C      1  0.4690740000000  0.6437530000000  0.4779950000000 1.0
C      1  0.5535590000000  0.5400380000000  0.5247740000000 1.0
C      1  0.4391560000000  0.4559000000000  0.4980430000000 1.0
C      1  0.4913490000000  0.5694740000000  0.5011220000000 1.0
C      1  0.5004150000000  0.5121780000000  0.5712300000000 1.0
C      1  0.4823630000000  0.5209380000000  0.4038390000000 1.0
C      1  0.4192490000000  0.5821330000000  0.5393000000000 1.0
C      1  0.5027000000000  0.5736820000000  0.4316190000000 1.0
C      1  0.6079180000000  0.4798140000000  0.4903760000000 1.0
C      1  0.5191770000000  0.4424540000000  0.5678950000000 1.0
C      1  0.4726530000000  0.5106460000000  0.5613830000000 1.0
C      1  0.3663580000000  0.5118630000000  0.4935790000000 1.0
C      1  0.5545780000000  0.3660160000000  0.5141880000000 1.0
C      1  0.4401100000000  0.6120020000000  0.5042460000000 1.0
C      1  0.4398570000000  0.6017060000000  0.5308430000000 1.0
C      1  0.5770830000000  0.4411900000000  0.4780570000000 1.0
C      1  0.4757390000000  0.4688330000000  0.4004350000000 1.0
C      1  0.5610970000000  0.4205680000000  0.5432630000000 1.0
C      1  0.4637480000000  0.5161930000000  0.5350200000000 1.0
C      1  0.4786980000000  0.4249170000000  0.5416640000000 1.0
C      1  0.4843220000000  0.5601030000000  0.5263270000000 1.0
C      1  0.5702750000000  0.5086530000000  0.4314770000000 1.0
C      1  0.5326700000000  0.5420920000000  0.6102600000000 1.0
C      1  0.6146270000000  0.4549960000000  0.4520690000000 1.0
C      1  0.4736340000000  0.5657730000000  0.4803310000000 1.0
C      1  0.6099580000000  0.5146600000000  0.4550340000000 1.0
C      1  0.4562360000000  0.5482980000000  0.4682750000000 1.0
C      1  0.5509150000000  0.4067660000000  0.5655950000000 1.0
C      1  0.5100040000000  0.5273610000000  0.6174190000000 1.0
C      1  0.4662140000000  0.6056010000000  0.4461440000000 1.0
C      1  0.5722210000000  0.5116890000000  0.4836610000000 1.0
C      1  0.6018780000000  0.4558240000000  0.4776440000000 1.0
C      1  0.4074050000000  0.4541730000000  0.5670040000000 1.0
C      1  0.5346210000000  0.4541110000000  0.4569360000000 1.0
C      1  0.5889160000000  0.5161430000000  0.5740660000000 1.0
C      1  0.5300320000000  0.5058430000000  0.4001530000000 1.0
C      1  0.4346840000000  0.4510820000000  0.3796670000000 1.0
C      1  0.5982170000000  0.4987930000000  0.4331290000000 1.0
C      1  0.3906470000000  0.5000380000000  0.5820410000000 1.0
C      1  0.5163130000000  0.5667560000000  0.4617020000000 1.0
C      1  0.4182900000000  0.4239810000000  0.4527430000000 1.0
C      1  0.5044720000000  0.3919090000000  0.4750260000000 1.0
C      1  0.3962920000000  0.4337040000000  0.4065080000000 1.0
C      1  0.4634310000000  0.5444170000000  0.5969530000000 1.0
C      1  0.4809110000000  0.5089070000000  0.4483630000000 1.0
C      1  0.6001040000000  0.4680790000000  0.4314320000000 1.0
C      1  0.4511250000000  0.5052040000000  0.5116150000000 1.0
C      1  0.6039530000000  0.5546710000000  0.5418400000000 1.0
C      1  0.5007650000000  0.5071900000000  0.6001850000000 1.0
END
