TITL C-612601-4209-890 -0.0663517419288239 125000 -262.285572037401 0 0 45 (C1) n - 1
REM
REM in /home/nfs/bkarasulu/CARBON/AIRSS/Generating-Clusters/TERSOFF/Only-C1/FIRE-HFTN
REM
REM
REM
REM
REM
REM ./C.cell (11c1c37f851c82e70ff6c80c92926a4b)
REM AIRSS Version 0.9.1 bugfix July 2018 build 013d7b7c2542+ Fri, 06 Jul 2018 19:26:36 +0100
REM compiler GCC version 9.2.1 20190827 (Red Hat 9.2.1-1)
REM options -cpp -mtune=generic -march=x86-64 -g -O0 -fpre-include=/usr/include/finclude/math-vector-fortran.h
REM seed 1181287223 -2067079344 -1872033210 -432911786 -1917566953 -1051574456 -1022272981 -573650982 -1715825473 2090921363 756886164 -437560687 -433322040 -600927485 2097790559 659026760 -112739131 -1247080908 -1570631880 997170756 2138495292 692602734 -1903543503 810673011 -1997679537 -1606587068 -141741373 1291097462 -1634399457 392018121 -1901943433 1136687474 -698224225
REM
CELL 1.54180   50.00000   50.00000   50.00000   90.00000   90.00000   90.00000
LATT -1
SFAC C  
C      1  0.5720550000000  0.4736920000000  0.4735010000000 1.0
C      1  0.5169320000000  0.5199020000000  0.5166500000000 1.0
C      1  0.4539540000000  0.4707910000000  0.4860750000000 1.0
C      1  0.4436940000000  0.5757080000000  0.5292140000000 1.0
C      1  0.4874440000000  0.5725970000000  0.5407950000000 1.0
C      1  0.4395540000000  0.4964850000000  0.5243690000000 1.0
C      1  0.4975420000000  0.4390750000000  0.4114840000000 1.0
C      1  0.4863150000000  0.4901820000000  0.5435730000000 1.0
C      1  0.4665960000000  0.4714600000000  0.4606950000000 1.0
C      1  0.5040850000000  0.4949830000000  0.5206710000000 1.0
C      1  0.5183600000000  0.4810690000000  0.4222180000000 1.0
C      1  0.4225370000000  0.5066440000000  0.4781850000000 1.0
C      1  0.4533940000000  0.4895350000000  0.4431950000000 1.0
C      1  0.5661780000000  0.4968530000000  0.5655630000000 1.0
C      1  0.5804280000000  0.5229930000000  0.4641510000000 1.0
C      1  0.5384200000000  0.5516680000000  0.4700650000000 1.0
C      1  0.5203630000000  0.4578200000000  0.5424780000000 1.0
C      1  0.5177350000000  0.4695110000000  0.5160300000000 1.0
C      1  0.5506470000000  0.4603350000000  0.4817790000000 1.0
C      1  0.5113970000000  0.5480340000000  0.4764280000000 1.0
C      1  0.4364880000000  0.4903450000000  0.4972750000000 1.0
C      1  0.4627820000000  0.5837840000000  0.5478310000000 1.0
C      1  0.4330680000000  0.5054130000000  0.4517740000000 1.0
C      1  0.5070510000000  0.4736420000000  0.5871570000000 1.0
C      1  0.5047860000000  0.4444130000000  0.4760160000000 1.0
C      1  0.5631770000000  0.5432070000000  0.4654520000000 1.0
C      1  0.4560960000000  0.5593470000000  0.5102160000000 1.0
C      1  0.4922450000000  0.5500860000000  0.4569840000000 1.0
C      1  0.4996880000000  0.4704400000000  0.5599730000000 1.0
C      1  0.5457950000000  0.4546350000000  0.5547450000000 1.0
C      1  0.5245070000000  0.4579470000000  0.4914280000000 1.0
C      1  0.3809600000000  0.5378160000000  0.4921680000000 1.0
C      1  0.5023400000000  0.4592760000000  0.4292960000000 1.0
C      1  0.5599680000000  0.5154880000000  0.5472660000000 1.0
C      1  0.5041730000000  0.5413270000000  0.5031230000000 1.0
C      1  0.4846840000000  0.5562930000000  0.5164570000000 1.0
C      1  0.4592980000000  0.4965790000000  0.5424000000000 1.0
C      1  0.5418720000000  0.5235530000000  0.5293200000000 1.0
C      1  0.5836850000000  0.4967350000000  0.4670720000000 1.0
C      1  0.4909970000000  0.4583940000000  0.4553570000000 1.0
C      1  0.5331680000000  0.4758400000000  0.5949010000000 1.0
C      1  0.4991560000000  0.4180700000000  0.4809440000000 1.0
C      1  0.5322490000000  0.5021850000000  0.4158730000000 1.0
C      1  0.5535190000000  0.4735110000000  0.5749700000000 1.0
C      1  0.4006210000000  0.5223390000000  0.4848840000000 1.0
END
