TITL C-612606-7351-1475 5633.82755972497 125000 -1107.95411038683 0 0 184 (C1) n - 1
REM
REM in /home/nfs/bkarasulu/CARBON/AIRSS/Generating-Clusters/TERSOFF/Only-C1/FIRE-HFTN
REM
REM
REM
REM
REM
REM ./C.cell (11c1c37f851c82e70ff6c80c92926a4b)
REM AIRSS Version 0.9.1 bugfix July 2018 build 013d7b7c2542+ Fri, 06 Jul 2018 19:26:36 +0100
REM compiler GCC version 9.2.1 20190827 (Red Hat 9.2.1-1)
REM options -cpp -mtune=generic -march=x86-64 -g -O0 -fpre-include=/usr/include/finclude/math-vector-fortran.h
REM seed 2032716961 567240502 -1527760377 394086935 1148988490 1677764098 -380329664 -1439053710 -722436718 -1325510327 -1018791447 116415444 2079774077 529173756 -1067325236 -672565769 -158115700 -728463740 1861433328 -1750399705 1316973669 420924691 1793859603 2014030696 1131034996 -356038666 -827008703 -1635681108 1341946123 -419298195 -489160561 -2066153999 2129896072
REM
CELL 1.54180   50.00000   50.00000   50.00000   90.00000   90.00000   90.00000
LATT -1
SFAC C  
C      1  0.4844990000000  0.5695040000000  0.4153390000000 1.0
C      1  0.3860360000000  0.4115280000000  0.4364840000000 1.0
C      1  0.4190840000000  0.5208800000000  0.5336020000000 1.0
C      1  0.4819380000000  0.5231210000000  0.4267820000000 1.0
C      1  0.4700940000000  0.5451980000000  0.4117190000000 1.0
C      1  0.5243650000000  0.5235720000000  0.5126150000000 1.0
C      1  0.6206890000000  0.5453600000000  0.5219450000000 1.0
C      1  0.4197470000000  0.5739670000000  0.5050300000000 1.0
C      1  0.5531620000000  0.4594290000000  0.4727530000000 1.0
C      1  0.3757050000000  0.4984850000000  0.5536290000000 1.0
C      1  0.5149920000000  0.4776110000000  0.5296350000000 1.0
C      1  0.4239780000000  0.3888070000000  0.5073050000000 1.0
C      1  0.3710250000000  0.4783740000000  0.4445330000000 1.0
C      1  0.4852510000000  0.4061260000000  0.4698430000000 1.0
C      1  0.5540470000000  0.4778370000000  0.3767050000000 1.0
C      1  0.5507520000000  0.4462160000000  0.5945790000000 1.0
C      1  0.5899070000000  0.4991230000000  0.4708340000000 1.0
C      1  0.4477490000000  0.4258440000000  0.4963720000000 1.0
C      1  0.5944940000000  0.4347260000000  0.5621530000000 1.0
C      1  0.5376950000000  0.5338480000000  0.4435740000000 1.0
C      1  0.5731480000000  0.5195430000000  0.5331920000000 1.0
C      1  0.3721300000000  0.5578170000000  0.5283340000000 1.0
C      1  0.6752560000000  0.5856810000000  0.6269170000000 1.0
C      1  0.4425700000000  0.5470640000000  0.4063230000000 1.0
C      1  0.5109140000000  0.4552570000000  0.4532180000000 1.0
C      1  0.5684260000000  0.4380270000000  0.4342040000000 1.0
C      1  0.3797640000000  0.5477380000000  0.5022300000000 1.0
C      1  0.5743730000000  0.4609390000000  0.3898000000000 1.0
C      1  0.5112340000000  0.4566130000000  0.3573700000000 1.0
C      1  0.4651350000000  0.5614400000000  0.4916570000000 1.0
C      1  0.4532570000000  0.5167570000000  0.6134550000000 1.0
C      1  0.4662780000000  0.4026070000000  0.4920440000000 1.0
C      1  0.5886340000000  0.4123070000000  0.4713480000000 1.0
C      1  0.5414050000000  0.4716100000000  0.6051140000000 1.0
C      1  0.3801450000000  0.4349320000000  0.5243950000000 1.0
C      1  0.5165390000000  0.5628600000000  0.3347130000000 1.0
C      1  0.4297540000000  0.5302970000000  0.4780280000000 1.0
C      1  0.5613080000000  0.4902550000000  0.6126010000000 1.0
C      1  0.6189160000000  0.4469120000000  0.5646700000000 1.0
C      1  0.4078780000000  0.5783710000000  0.4614810000000 1.0
C      1  0.4850970000000  0.4523870000000  0.3627390000000 1.0
C      1  0.5253710000000  0.4531870000000  0.4783040000000 1.0
C      1  0.6254210000000  0.4489520000000  0.4853830000000 1.0
C      1  0.5727140000000  0.4445640000000  0.5770020000000 1.0
C      1  0.6308510000000  0.5530560000000  0.5696310000000 1.0
C      1  0.4384730000000  0.4616990000000  0.4375220000000 1.0
C      1  0.3857530000000  0.4289650000000  0.4558520000000 1.0
C      1  0.5215260000000  0.5585800000000  0.3599300000000 1.0
C      1  0.4582450000000  0.5018040000000  0.5141550000000 1.0
C      1  0.4766300000000  0.5359420000000  0.4805920000000 1.0
C      1  0.5077750000000  0.5600910000000  0.5816870000000 1.0
C      1  0.3882080000000  0.4468950000000  0.4776710000000 1.0
C      1  0.5904560000000  0.5288340000000  0.5558820000000 1.0
C      1  0.4341570000000  0.5933450000000  0.4672530000000 1.0
C      1  0.5442350000000  0.5311720000000  0.3936050000000 1.0
C      1  0.4600950000000  0.5068260000000  0.4429820000000 1.0
C      1  0.5864600000000  0.5496930000000  0.4588550000000 1.0
C      1  0.4488960000000  0.5070420000000  0.5646340000000 1.0
C      1  0.5662570000000  0.4153750000000  0.4524460000000 1.0
C      1  0.4740580000000  0.5184230000000  0.5581630000000 1.0
C      1  0.5358780000000  0.6086220000000  0.4871760000000 1.0
C      1  0.4697600000000  0.4084100000000  0.4199120000000 1.0
C      1  0.5131120000000  0.4778620000000  0.6037020000000 1.0
C      1  0.4248220000000  0.5204800000000  0.6052050000000 1.0
C      1  0.5880970000000  0.5204340000000  0.4519670000000 1.0
C      1  0.5533070000000  0.5275400000000  0.4771060000000 1.0
C      1  0.4882250000000  0.5500940000000  0.6009410000000 1.0
C      1  0.4515630000000  0.4398460000000  0.4515510000000 1.0
C      1  0.5900340000000  0.3991530000000  0.5216400000000 1.0
C      1  0.5389510000000  0.4048870000000  0.4572000000000 1.0
C      1  0.5502040000000  0.5066800000000  0.3781650000000 1.0
C      1  0.4758770000000  0.3885170000000  0.5770040000000 1.0
C      1  0.3645990000000  0.4331680000000  0.5452360000000 1.0
C      1  0.6606220000000  0.5745440000000  0.6078280000000 1.0
C      1  0.3838150000000  0.4888710000000  0.4230880000000 1.0
C      1  0.6174790000000  0.4736130000000  0.4967880000000 1.0
C      1  0.5315440000000  0.4586160000000  0.3766060000000 1.0
C      1  0.4611630000000  0.4728240000000  0.4814730000000 1.0
C      1  0.4550980000000  0.4033760000000  0.5692250000000 1.0
C      1  0.5737820000000  0.5728100000000  0.4681900000000 1.0
C      1  0.4450740000000  0.4792560000000  0.5680980000000 1.0
C      1  0.6096000000000  0.5248660000000  0.5049860000000 1.0
C      1  0.6116720000000  0.4296210000000  0.4718700000000 1.0
C      1  0.4567280000000  0.6095260000000  0.5112700000000 1.0
C      1  0.6357330000000  0.5663500000000  0.5116610000000 1.0
C      1  0.5153050000000  0.4036180000000  0.4748940000000 1.0
C      1  0.5574520000000  0.4865840000000  0.4312460000000 1.0
C      1  0.5244870000000  0.4048940000000  0.5024450000000 1.0
C      1  0.5078670000000  0.5308800000000  0.4417910000000 1.0
C      1  0.6259340000000  0.5004790000000  0.5029800000000 1.0
C      1  0.5254280000000  0.5848310000000  0.4285530000000 1.0
C      1  0.4336690000000  0.5989920000000  0.4965160000000 1.0
C      1  0.5122600000000  0.5677490000000  0.4739230000000 1.0
C      1  0.5171860000000  0.4979100000000  0.4720920000000 1.0
C      1  0.4802980000000  0.5832780000000  0.4419120000000 1.0
C      1  0.4824100000000  0.5220760000000  0.6079170000000 1.0
C      1  0.4191650000000  0.5560870000000  0.4157370000000 1.0
C      1  0.5315910000000  0.5494510000000  0.5696710000000 1.0
C      1  0.5311940000000  0.4896530000000  0.4192600000000 1.0
C      1  0.4735820000000  0.4861380000000  0.4599890000000 1.0
C      1  0.4031340000000  0.5017730000000  0.5993640000000 1.0
C      1  0.5569330000000  0.5924970000000  0.4783380000000 1.0
C      1  0.5494530000000  0.5102380000000  0.5473490000000 1.0
C      1  0.4736230000000  0.4271260000000  0.6370430000000 1.0
C      1  0.5539430000000  0.5309140000000  0.4204640000000 1.0
C      1  0.4052880000000  0.5673030000000  0.4357180000000 1.0
C      1  0.5898400000000  0.4781790000000  0.4907780000000 1.0
C      1  0.3911660000000  0.4996770000000  0.4817580000000 1.0
C      1  0.4773410000000  0.5741090000000  0.5411140000000 1.0
C      1  0.5102250000000  0.6175130000000  0.4940050000000 1.0
C      1  0.5003820000000  0.4816670000000  0.4570030000000 1.0
C      1  0.5505030000000  0.4466320000000  0.5160820000000 1.0
C      1  0.4830060000000  0.6186330000000  0.5000910000000 1.0
C      1  0.4193100000000  0.4744010000000  0.5201760000000 1.0
C      1  0.5265880000000  0.5515800000000  0.5186250000000 1.0
C      1  0.3786130000000  0.5599430000000  0.5543840000000 1.0
C      1  0.4205410000000  0.4174780000000  0.5036220000000 1.0
C      1  0.4953450000000  0.5020650000000  0.5665730000000 1.0
C      1  0.4770430000000  0.4478480000000  0.3893890000000 1.0
C      1  0.4147990000000  0.5083310000000  0.4690940000000 1.0
C      1  0.4962800000000  0.5803540000000  0.5639610000000 1.0
C      1  0.5083520000000  0.5857510000000  0.4519570000000 1.0
C      1  0.5917950000000  0.4129190000000  0.5444940000000 1.0
C      1  0.3861690000000  0.4963400000000  0.5786160000000 1.0
C      1  0.4280060000000  0.5258900000000  0.5595020000000 1.0
C      1  0.4580370000000  0.4542940000000  0.5668790000000 1.0
C      1  0.5063640000000  0.4871930000000  0.4078790000000 1.0
C      1  0.4401090000000  0.5641840000000  0.5924070000000 1.0
C      1  0.5474380000000  0.5261190000000  0.5719630000000 1.0
C      1  0.3943940000000  0.5547730000000  0.5755980000000 1.0
C      1  0.5332110000000  0.4414930000000  0.4021650000000 1.0
C      1  0.5378470000000  0.4218790000000  0.6002160000000 1.0
C      1  0.4774900000000  0.5157690000000  0.5020880000000 1.0
C      1  0.5754000000000  0.5257040000000  0.5810750000000 1.0
C      1  0.5226070000000  0.4005990000000  0.5953090000000 1.0
C      1  0.4310650000000  0.4988670000000  0.5201660000000 1.0
C      1  0.5782110000000  0.5093990000000  0.6037680000000 1.0
C      1  0.4541260000000  0.5278100000000  0.4634360000000 1.0
C      1  0.4990030000000  0.4760050000000  0.5533690000000 1.0
C      1  0.5007860000000  0.3880870000000  0.5865220000000 1.0
C      1  0.5687420000000  0.4604970000000  0.4968980000000 1.0
C      1  0.3970430000000  0.4338960000000  0.5020530000000 1.0
C      1  0.4864650000000  0.4561970000000  0.5698930000000 1.0
C      1  0.5281990000000  0.5032050000000  0.5311830000000 1.0
C      1  0.3792960000000  0.5174750000000  0.5018580000000 1.0
C      1  0.5427550000000  0.4188360000000  0.5172920000000 1.0
C      1  0.4518140000000  0.4470730000000  0.4791940000000 1.0
C      1  0.4960810000000  0.4553450000000  0.5971520000000 1.0
C      1  0.6489740000000  0.5863260000000  0.5014270000000 1.0
C      1  0.4722280000000  0.5445520000000  0.5476440000000 1.0
C      1  0.5623040000000  0.4400160000000  0.4068850000000 1.0
C      1  0.5239330000000  0.4593670000000  0.5086710000000 1.0
C      1  0.5131280000000  0.5702930000000  0.4065510000000 1.0
C      1  0.4209080000000  0.5430320000000  0.5835420000000 1.0
C      1  0.4498470000000  0.3805390000000  0.5011440000000 1.0
C      1  0.5263240000000  0.5533280000000  0.3870470000000 1.0
C      1  0.4924330000000  0.4621670000000  0.4087450000000 1.0
C      1  0.4596300000000  0.5820560000000  0.4612080000000 1.0
C      1  0.5122770000000  0.4461210000000  0.4243110000000 1.0
C      1  0.4588790000000  0.5978920000000  0.5379260000000 1.0
C      1  0.4315420000000  0.4927550000000  0.4396670000000 1.0
C      1  0.4847540000000  0.5711290000000  0.5116950000000 1.0
C      1  0.4096130000000  0.4967500000000  0.4200000000000 1.0
C      1  0.6896130000000  0.5966880000000  0.6456890000000 1.0
C      1  0.5000270000000  0.5024330000000  0.5953550000000 1.0
C      1  0.4471420000000  0.4286320000000  0.5653910000000 1.0
C      1  0.4368550000000  0.5518250000000  0.4978590000000 1.0
C      1  0.3962970000000  0.5677550000000  0.4874610000000 1.0
C      1  0.5113840000000  0.5688370000000  0.5024640000000 1.0
C      1  0.4672870000000  0.4226840000000  0.3972560000000 1.0
C      1  0.4648390000000  0.5664740000000  0.6028300000000 1.0
C      1  0.4852080000000  0.4393090000000  0.6171270000000 1.0
C      1  0.6458670000000  0.5635970000000  0.5887320000000 1.0
C      1  0.5863050000000  0.3971260000000  0.4951380000000 1.0
C      1  0.5360050000000  0.5606020000000  0.5434570000000 1.0
C      1  0.5318590000000  0.5152010000000  0.4875070000000 1.0
C      1  0.5731100000000  0.5113570000000  0.4292960000000 1.0
C      1  0.5629520000000  0.4631460000000  0.4468750000000 1.0
C      1  0.4699550000000  0.4174210000000  0.4465020000000 1.0
C      1  0.5003360000000  0.5429600000000  0.4663650000000 1.0
C      1  0.3724320000000  0.5052110000000  0.5274790000000 1.0
C      1  0.6143230000000  0.5427410000000  0.5497630000000 1.0
C      1  0.5788370000000  0.5251850000000  0.5042240000000 1.0
C      1  0.3809160000000  0.4746230000000  0.4712790000000 1.0
END
