TITL C-612604-1799-1099 252.593647004727 125000 -1029.32041081092 0 0 170 (C1) n - 1
REM
REM in /home/nfs/bkarasulu/CARBON/AIRSS/Generating-Clusters/TERSOFF/Only-C1/FIRE-HFTN
REM
REM
REM
REM
REM
REM ./C.cell (11c1c37f851c82e70ff6c80c92926a4b)
REM AIRSS Version 0.9.1 bugfix July 2018 build 013d7b7c2542+ Fri, 06 Jul 2018 19:26:36 +0100
REM compiler GCC version 9.2.1 20190827 (Red Hat 9.2.1-1)
REM options -cpp -mtune=generic -march=x86-64 -g -O0 -fpre-include=/usr/include/finclude/math-vector-fortran.h
REM seed 302053292 -1076057180 1563453131 -384276648 -80183193 -1019474397 517178892 -1693694696 1290414464 -1929051547 1235817227 1807830188 1354859693 -1356026204 -740526063 -1799959913 75382965 -1097171437 -1824019417 997906906 983928776 1563282828 453962710 -1784117278 1519021360 -999302210 1005620622 1711999754 25921185 855714647 1276141691 -1029581726 -351567008
REM
CELL 1.54180   50.00000   50.00000   50.00000   90.00000   90.00000   90.00000
LATT -1
SFAC C  
C      1  0.4065790000000  0.4256930000000  0.4214400000000 1.0
C      1  0.5728330000000  0.4162070000000  0.4763660000000 1.0
C      1  0.5003930000000  0.5620200000000  0.5826180000000 1.0
C      1  0.5917060000000  0.5506070000000  0.5004320000000 1.0
C      1  0.4542850000000  0.4024760000000  0.5493480000000 1.0
C      1  0.5863620000000  0.5774830000000  0.4400890000000 1.0
C      1  0.4461530000000  0.4228470000000  0.5693760000000 1.0
C      1  0.5040430000000  0.4480750000000  0.6059810000000 1.0
C      1  0.5895250000000  0.5591390000000  0.5440160000000 1.0
C      1  0.5210220000000  0.5729220000000  0.4292130000000 1.0
C      1  0.5969450000000  0.5239410000000  0.5087550000000 1.0
C      1  0.5518070000000  0.5111560000000  0.4187320000000 1.0
C      1  0.5075900000000  0.5888790000000  0.5728580000000 1.0
C      1  0.5231850000000  0.5096670000000  0.4944070000000 1.0
C      1  0.4534140000000  0.5941260000000  0.4682290000000 1.0
C      1  0.5048720000000  0.5952390000000  0.4835280000000 1.0
C      1  0.5249500000000  0.4364630000000  0.4219460000000 1.0
C      1  0.5039930000000  0.3936180000000  0.5002230000000 1.0
C      1  0.4503490000000  0.4993220000000  0.5907680000000 1.0
C      1  0.4310240000000  0.4813830000000  0.5359980000000 1.0
C      1  0.4330850000000  0.4645470000000  0.4328950000000 1.0
C      1  0.5751070000000  0.5513810000000  0.4357410000000 1.0
C      1  0.4440500000000  0.5165580000000  0.5043970000000 1.0
C      1  0.5598610000000  0.5103890000000  0.5839370000000 1.0
C      1  0.5286440000000  0.6120580000000  0.5298860000000 1.0
C      1  0.4864590000000  0.4535980000000  0.4450630000000 1.0
C      1  0.5584130000000  0.5253280000000  0.5595040000000 1.0
C      1  0.4630720000000  0.6028840000000  0.5848400000000 1.0
C      1  0.5229430000000  0.5102300000000  0.6114410000000 1.0
C      1  0.4749600000000  0.4164270000000  0.4732900000000 1.0
C      1  0.5045740000000  0.4985840000000  0.5926990000000 1.0
C      1  0.4527860000000  0.4041580000000  0.5194270000000 1.0
C      1  0.5512840000000  0.5524090000000  0.6035770000000 1.0
C      1  0.5473600000000  0.4020890000000  0.4748450000000 1.0
C      1  0.4933040000000  0.3695000000000  0.5578490000000 1.0
C      1  0.4780760000000  0.5114680000000  0.5938070000000 1.0
C      1  0.5124510000000  0.5274580000000  0.4760640000000 1.0
C      1  0.5738610000000  0.5830310000000  0.5386210000000 1.0
C      1  0.5837740000000  0.4250770000000  0.5021240000000 1.0
C      1  0.4780940000000  0.6022090000000  0.4799990000000 1.0
C      1  0.3812730000000  0.4437830000000  0.4777280000000 1.0
C      1  0.5148420000000  0.5305240000000  0.4486640000000 1.0
C      1  0.4235990000000  0.5743900000000  0.5099020000000 1.0
C      1  0.5338130000000  0.5322450000000  0.5466260000000 1.0
C      1  0.5430470000000  0.5642310000000  0.4879590000000 1.0
C      1  0.3729850000000  0.4817100000000  0.5062090000000 1.0
C      1  0.5609940000000  0.4852080000000  0.4076310000000 1.0
C      1  0.5851090000000  0.5319330000000  0.5522170000000 1.0
C      1  0.5058030000000  0.4712630000000  0.5225870000000 1.0
C      1  0.4660930000000  0.5005250000000  0.4414760000000 1.0
C      1  0.5714160000000  0.5986580000000  0.5117510000000 1.0
C      1  0.3955760000000  0.5520390000000  0.4643770000000 1.0
C      1  0.6195270000000  0.4576990000000  0.4447360000000 1.0
C      1  0.4920250000000  0.4843850000000  0.4525630000000 1.0
C      1  0.5273920000000  0.4493790000000  0.3970180000000 1.0
C      1  0.4324390000000  0.5085410000000  0.5288570000000 1.0
C      1  0.4999310000000  0.5237670000000  0.3886870000000 1.0
C      1  0.5735690000000  0.5373650000000  0.4602830000000 1.0
C      1  0.5547560000000  0.5864470000000  0.5610530000000 1.0
C      1  0.5175910000000  0.5463420000000  0.3861960000000 1.0
C      1  0.4417700000000  0.5381070000000  0.4868260000000 1.0
C      1  0.4449770000000  0.4817260000000  0.4528050000000 1.0
C      1  0.4560080000000  0.5643490000000  0.5521480000000 1.0
C      1  0.4456340000000  0.4613180000000  0.5246800000000 1.0
C      1  0.4031270000000  0.4128280000000  0.5255600000000 1.0
C      1  0.6354110000000  0.4938890000000  0.5120850000000 1.0
C      1  0.4611040000000  0.5357920000000  0.5522660000000 1.0
C      1  0.4852860000000  0.5408170000000  0.5919540000000 1.0
C      1  0.5466640000000  0.5188290000000  0.5059430000000 1.0
C      1  0.4560780000000  0.5274270000000  0.4332360000000 1.0
C      1  0.4769990000000  0.4469490000000  0.6012840000000 1.0
C      1  0.4259950000000  0.4330290000000  0.4897210000000 1.0
C      1  0.5344790000000  0.5564960000000  0.4077380000000 1.0
C      1  0.5213920000000  0.4234990000000  0.5325730000000 1.0
C      1  0.5087660000000  0.5649950000000  0.5211570000000 1.0
C      1  0.4635660000000  0.5477430000000  0.4740480000000 1.0
C      1  0.4948330000000  0.4871770000000  0.5463880000000 1.0
C      1  0.5187320000000  0.5592840000000  0.3619420000000 1.0
C      1  0.5310390000000  0.4526630000000  0.6036780000000 1.0
C      1  0.4057300000000  0.5062430000000  0.3935430000000 1.0
C      1  0.4516790000000  0.4468570000000  0.5862310000000 1.0
C      1  0.5915070000000  0.5931700000000  0.4619580000000 1.0
C      1  0.3906250000000  0.4923380000000  0.5517050000000 1.0
C      1  0.5869880000000  0.4848870000000  0.4636610000000 1.0
C      1  0.5403940000000  0.4615280000000  0.4644580000000 1.0
C      1  0.4893140000000  0.6086380000000  0.5819330000000 1.0
C      1  0.4821230000000  0.4864040000000  0.4839070000000 1.0
C      1  0.4665300000000  0.4498060000000  0.5385470000000 1.0
C      1  0.4140360000000  0.5523050000000  0.4446240000000 1.0
C      1  0.5287830000000  0.6080060000000  0.4736410000000 1.0
C      1  0.5886640000000  0.5988880000000  0.4885270000000 1.0
C      1  0.6307960000000  0.4846460000000  0.4857460000000 1.0
C      1  0.5082090000000  0.4858830000000  0.4982050000000 1.0
C      1  0.3872240000000  0.5059650000000  0.4386050000000 1.0
C      1  0.5951220000000  0.4567530000000  0.5452980000000 1.0
C      1  0.5465170000000  0.5241350000000  0.6047040000000 1.0
C      1  0.5182350000000  0.3963700000000  0.5244500000000 1.0
C      1  0.4567900000000  0.4680730000000  0.4783650000000 1.0
C      1  0.3845920000000  0.4327000000000  0.5255380000000 1.0
C      1  0.5914670000000  0.4386240000000  0.5248230000000 1.0
C      1  0.5446420000000  0.4433970000000  0.4408910000000 1.0
C      1  0.4075490000000  0.5129280000000  0.4199350000000 1.0
C      1  0.4706900000000  0.5527730000000  0.4448640000000 1.0
C      1  0.4309140000000  0.5883960000000  0.4856070000000 1.0
C      1  0.4992590000000  0.4097530000000  0.4564240000000 1.0
C      1  0.4074750000000  0.4373590000000  0.4683680000000 1.0
C      1  0.4753820000000  0.4028600000000  0.4993080000000 1.0
C      1  0.5809210000000  0.4662940000000  0.4177270000000 1.0
C      1  0.4575390000000  0.5802660000000  0.4428280000000 1.0
C      1  0.5009050000000  0.5537470000000  0.4393400000000 1.0
C      1  0.5847480000000  0.4256260000000  0.4513460000000 1.0
C      1  0.5576870000000  0.5402190000000  0.4156220000000 1.0
C      1  0.5667690000000  0.4690640000000  0.4777690000000 1.0
C      1  0.4443530000000  0.5747590000000  0.5289460000000 1.0
C      1  0.5187940000000  0.3982090000000  0.4749240000000 1.0
C      1  0.6145670000000  0.4774800000000  0.4641190000000 1.0
C      1  0.3827660000000  0.5030410000000  0.5240170000000 1.0
C      1  0.6589340000000  0.4885690000000  0.5249050000000 1.0
C      1  0.5920410000000  0.4811860000000  0.5613660000000 1.0
C      1  0.4851880000000  0.4410170000000  0.5553680000000 1.0
C      1  0.5014170000000  0.4305050000000  0.4358480000000 1.0
C      1  0.5309680000000  0.5955980000000  0.4460790000000 1.0
C      1  0.5185960000000  0.4456540000000  0.5147060000000 1.0
C      1  0.4344420000000  0.5245520000000  0.5526180000000 1.0
C      1  0.5301410000000  0.5087700000000  0.4376100000000 1.0
C      1  0.4796030000000  0.5128660000000  0.5450710000000 1.0
C      1  0.5690980000000  0.5546360000000  0.4830030000000 1.0
C      1  0.3787720000000  0.4525230000000  0.5063550000000 1.0
C      1  0.5537440000000  0.4748410000000  0.5305800000000 1.0
C      1  0.6018570000000  0.5072820000000  0.5501780000000 1.0
C      1  0.5417060000000  0.4716850000000  0.3912420000000 1.0
C      1  0.5090950000000  0.4291690000000  0.5570880000000 1.0
C      1  0.5385680000000  0.4785010000000  0.5531810000000 1.0
C      1  0.5570750000000  0.5726910000000  0.5863000000000 1.0
C      1  0.4157760000000  0.4778530000000  0.5603750000000 1.0
C      1  0.4270180000000  0.5315680000000  0.4298390000000 1.0
C      1  0.5268540000000  0.4465060000000  0.4874990000000 1.0
C      1  0.4265780000000  0.4122780000000  0.5094790000000 1.0
C      1  0.4400470000000  0.4560090000000  0.4982200000000 1.0
C      1  0.5289320000000  0.5971950000000  0.5548350000000 1.0
C      1  0.5452050000000  0.6109400000000  0.5059480000000 1.0
C      1  0.5225960000000  0.4846330000000  0.4508130000000 1.0
C      1  0.5731030000000  0.5085170000000  0.4996300000000 1.0
C      1  0.4450850000000  0.4691560000000  0.4069850000000 1.0
C      1  0.6149330000000  0.5087810000000  0.5245850000000 1.0
C      1  0.5713680000000  0.4837320000000  0.5829430000000 1.0
C      1  0.4518100000000  0.5805530000000  0.5748870000000 1.0
C      1  0.3840520000000  0.5312310000000  0.4799970000000 1.0
C      1  0.5781380000000  0.5112050000000  0.4689740000000 1.0
C      1  0.5552180000000  0.4632430000000  0.5959700000000 1.0
C      1  0.5671670000000  0.4790660000000  0.5054010000000 1.0
C      1  0.4024980000000  0.5550300000000  0.5158510000000 1.0
C      1  0.5141290000000  0.4866660000000  0.5676920000000 1.0
C      1  0.4374820000000  0.4727850000000  0.5822790000000 1.0
C      1  0.4634560000000  0.4841500000000  0.3934790000000 1.0
C      1  0.4687490000000  0.3802140000000  0.5594290000000 1.0
C      1  0.4821450000000  0.5032840000000  0.3886620000000 1.0
C      1  0.4690650000000  0.4432870000000  0.4659220000000 1.0
C      1  0.3762210000000  0.5088320000000  0.4646350000000 1.0
C      1  0.3639970000000  0.4622110000000  0.4642520000000 1.0
C      1  0.3648550000000  0.4872390000000  0.4782220000000 1.0
C      1  0.4713820000000  0.5094680000000  0.5005610000000 1.0
C      1  0.5152580000000  0.3759770000000  0.5436570000000 1.0
C      1  0.3885090000000  0.5300270000000  0.5092210000000 1.0
C      1  0.4897310000000  0.5225890000000  0.5199510000000 1.0
C      1  0.5954220000000  0.4465180000000  0.4339760000000 1.0
C      1  0.4307010000000  0.5183950000000  0.5801920000000 1.0
C      1  0.5115740000000  0.5389360000000  0.5296040000000 1.0
C      1  0.5168150000000  0.5727180000000  0.4961500000000 1.0
C      1  0.4157680000000  0.4427750000000  0.4410010000000 1.0
END
