TITL C-612606-7351-32 2.29568455527872 125000 -167.890118617383 0 0 30 (C1) n - 1
REM
REM in /home/nfs/bkarasulu/CARBON/AIRSS/Generating-Clusters/TERSOFF/Only-C1/FIRE-HFTN
REM
REM
REM
REM
REM
REM ./C.cell (11c1c37f851c82e70ff6c80c92926a4b)
REM AIRSS Version 0.9.1 bugfix July 2018 build 013d7b7c2542+ Fri, 06 Jul 2018 19:26:36 +0100
REM compiler GCC version 9.2.1 20190827 (Red Hat 9.2.1-1)
REM options -cpp -mtune=generic -march=x86-64 -g -O0 -fpre-include=/usr/include/finclude/math-vector-fortran.h
REM seed 895434737 -902212662 -831742429 -1365250012 -1342618323 -1736887367 924812758 -1629088280 2083384632 -1638747415 1184164618 807258913 -1507746613 -1665345462 1361828457 2081701657 986443104 573871712 983352219 1532692594 -1594769072 -1060750896 -2090288255 373159479 -966645016 -1228595814 1158860430 -1981799731 -585752554 1992718917 -1297971036 -221125679 -665015248
REM
CELL 1.54180   50.00000   50.00000   50.00000   90.00000   90.00000   90.00000
LATT -1
SFAC C  
C      1  0.4675430000000  0.4419820000000  0.4803850000000 1.0
C      1  0.5304090000000  0.5573820000000  0.5678970000000 1.0
C      1  0.4555440000000  0.5105720000000  0.4550580000000 1.0
C      1  0.4907870000000  0.4843060000000  0.4758620000000 1.0
C      1  0.5161180000000  0.5114220000000  0.4136280000000 1.0
C      1  0.5291010000000  0.5825080000000  0.5610720000000 1.0
C      1  0.4447520000000  0.4323360000000  0.4898380000000 1.0
C      1  0.4993440000000  0.4959590000000  0.5003870000000 1.0
C      1  0.4342040000000  0.5160420000000  0.4700830000000 1.0
C      1  0.5415860000000  0.5301340000000  0.5024520000000 1.0
C      1  0.5510840000000  0.5211450000000  0.3755870000000 1.0
C      1  0.4598920000000  0.4979900000000  0.5291010000000 1.0
C      1  0.4817030000000  0.5005560000000  0.4542500000000 1.0
C      1  0.5623010000000  0.5462610000000  0.5061050000000 1.0
C      1  0.4968800000000  0.4469600000000  0.5453830000000 1.0
C      1  0.4862150000000  0.4894240000000  0.5248650000000 1.0
C      1  0.5317810000000  0.5316030000000  0.5738560000000 1.0
C      1  0.4986900000000  0.5064360000000  0.4329380000000 1.0
C      1  0.4997670000000  0.4741480000000  0.5445810000000 1.0
C      1  0.5126020000000  0.4428990000000  0.4635350000000 1.0
C      1  0.4371400000000  0.5074460000000  0.5189490000000 1.0
C      1  0.5322220000000  0.5040450000000  0.5785650000000 1.0
C      1  0.4905860000000  0.4560190000000  0.4730730000000 1.0
C      1  0.5161070000000  0.4873300000000  0.5630150000000 1.0
C      1  0.4264020000000  0.5148380000000  0.4956210000000 1.0
C      1  0.5337440000000  0.5163250000000  0.3944490000000 1.0
C      1  0.5207870000000  0.5138530000000  0.5005460000000 1.0
C      1  0.4221580000000  0.4242170000000  0.4999930000000 1.0
C      1  0.5482260000000  0.4935820000000  0.5981170000000 1.0
C      1  0.5823240000000  0.5622770000000  0.5108110000000 1.0
END
