TITL C-612606-7351-1450 2472.55441252911 125000 -1212.11180983923 0 0 199 (C1) n - 1
REM
REM in /home/nfs/bkarasulu/CARBON/AIRSS/Generating-Clusters/TERSOFF/Only-C1/FIRE-HFTN
REM
REM
REM
REM
REM
REM ./C.cell (11c1c37f851c82e70ff6c80c92926a4b)
REM AIRSS Version 0.9.1 bugfix July 2018 build 013d7b7c2542+ Fri, 06 Jul 2018 19:26:36 +0100
REM compiler GCC version 9.2.1 20190827 (Red Hat 9.2.1-1)
REM options -cpp -mtune=generic -march=x86-64 -g -O0 -fpre-include=/usr/include/finclude/math-vector-fortran.h
REM seed 1570715867 1237038038 1265337320 1283087461 -1789200334 -37121819 -1888438490 -1949979728 -1135536555 936949537 -825174723 -987159813 -1467425618 -1085024827 -340967392 -192853386 -800076969 -1880601534 731833709 -914078614 -263371919 -1217791527 2024426736 1640392968 644973698 -1972492737 -109230862 1912829183 443598319 1958488532 -1952972370 1600511748 -410236109
REM
CELL 1.54180   50.00000   50.00000   50.00000   90.00000   90.00000   90.00000
LATT -1
SFAC C  
C      1  0.4743690000000  0.5048200000000  0.3679950000000 1.0
C      1  0.3722820000000  0.4587860000000  0.5638750000000 1.0
C      1  0.5738390000000  0.5565760000000  0.4178700000000 1.0
C      1  0.4155080000000  0.5655920000000  0.5597160000000 1.0
C      1  0.5642740000000  0.4370960000000  0.5211880000000 1.0
C      1  0.4249580000000  0.5677380000000  0.4418780000000 1.0
C      1  0.4715300000000  0.5802190000000  0.3858000000000 1.0
C      1  0.6416700000000  0.4987260000000  0.5545300000000 1.0
C      1  0.4858680000000  0.5418980000000  0.5997010000000 1.0
C      1  0.5578600000000  0.4104450000000  0.6108740000000 1.0
C      1  0.5112740000000  0.5371800000000  0.5445210000000 1.0
C      1  0.5539050000000  0.4825380000000  0.4685850000000 1.0
C      1  0.4366320000000  0.4470080000000  0.5247030000000 1.0
C      1  0.4389880000000  0.5512510000000  0.3996120000000 1.0
C      1  0.4627410000000  0.6024690000000  0.4821340000000 1.0
C      1  0.4745550000000  0.4350190000000  0.4769970000000 1.0
C      1  0.6226400000000  0.4522140000000  0.5588250000000 1.0
C      1  0.4660620000000  0.4962770000000  0.4875560000000 1.0
C      1  0.6477620000000  0.5251830000000  0.4346620000000 1.0
C      1  0.5487300000000  0.3879720000000  0.5457760000000 1.0
C      1  0.4993580000000  0.3719070000000  0.5416530000000 1.0
C      1  0.5030760000000  0.5793800000000  0.5655390000000 1.0
C      1  0.4309770000000  0.5278740000000  0.4147960000000 1.0
C      1  0.4554830000000  0.3817960000000  0.5225960000000 1.0
C      1  0.6344720000000  0.4669970000000  0.5169870000000 1.0
C      1  0.6531000000000  0.5423610000000  0.4157940000000 1.0
C      1  0.5319690000000  0.4199400000000  0.4118380000000 1.0
C      1  0.4705460000000  0.5313720000000  0.3674310000000 1.0
C      1  0.3339290000000  0.4800870000000  0.5094750000000 1.0
C      1  0.5098650000000  0.4344790000000  0.4208020000000 1.0
C      1  0.5620740000000  0.4124380000000  0.5069080000000 1.0
C      1  0.5114530000000  0.4313240000000  0.6193610000000 1.0
C      1  0.5629820000000  0.5869240000000  0.5567960000000 1.0
C      1  0.5437570000000  0.4758680000000  0.5473920000000 1.0
C      1  0.5020430000000  0.5832620000000  0.5085350000000 1.0
C      1  0.4545250000000  0.4916160000000  0.5420810000000 1.0
C      1  0.5251470000000  0.6669940000000  0.4816170000000 1.0
C      1  0.5250130000000  0.4327840000000  0.5579070000000 1.0
C      1  0.4148690000000  0.4575970000000  0.4486960000000 1.0
C      1  0.4915130000000  0.4833680000000  0.5715420000000 1.0
C      1  0.5490950000000  0.5769680000000  0.5792620000000 1.0
C      1  0.5058110000000  0.4166240000000  0.5656680000000 1.0
C      1  0.6369880000000  0.4730820000000  0.5451740000000 1.0
C      1  0.5407470000000  0.6319960000000  0.5521620000000 1.0
C      1  0.4120260000000  0.4916860000000  0.5193150000000 1.0
C      1  0.6113240000000  0.4339900000000  0.4868870000000 1.0
C      1  0.4071680000000  0.5407660000000  0.5720470000000 1.0
C      1  0.5643190000000  0.5167490000000  0.5005960000000 1.0
C      1  0.4706470000000  0.4802030000000  0.3813540000000 1.0
C      1  0.4637200000000  0.3972330000000  0.5692150000000 1.0
C      1  0.5461030000000  0.5026540000000  0.5575150000000 1.0
C      1  0.3981040000000  0.5729430000000  0.5385910000000 1.0
C      1  0.4154420000000  0.5810640000000  0.4646760000000 1.0
C      1  0.4930900000000  0.5393550000000  0.4232360000000 1.0
C      1  0.4946160000000  0.5592470000000  0.5469890000000 1.0
C      1  0.5263300000000  0.3810930000000  0.5010630000000 1.0
C      1  0.5406660000000  0.5226890000000  0.6312070000000 1.0
C      1  0.4098070000000  0.4790610000000  0.5907080000000 1.0
C      1  0.5455640000000  0.4626540000000  0.5154480000000 1.0
C      1  0.3917580000000  0.3855040000000  0.5600100000000 1.0
C      1  0.5577690000000  0.4266640000000  0.4080940000000 1.0
C      1  0.4761850000000  0.5208390000000  0.5001760000000 1.0
C      1  0.5323820000000  0.4247610000000  0.4775870000000 1.0
C      1  0.5088660000000  0.4924510000000  0.4745400000000 1.0
C      1  0.5793880000000  0.4932710000000  0.4596620000000 1.0
C      1  0.4607360000000  0.6122400000000  0.4546980000000 1.0
C      1  0.4357720000000  0.4356830000000  0.5859550000000 1.0
C      1  0.3506960000000  0.4532680000000  0.5492200000000 1.0
C      1  0.4635830000000  0.5502360000000  0.5811290000000 1.0
C      1  0.5225180000000  0.5694870000000  0.5841040000000 1.0
C      1  0.5617640000000  0.5443330000000  0.4930880000000 1.0
C      1  0.5028360000000  0.4900040000000  0.5248540000000 1.0
C      1  0.4527370000000  0.4742310000000  0.6121960000000 1.0
C      1  0.5059490000000  0.3668220000000  0.5141840000000 1.0
C      1  0.4467600000000  0.4363080000000  0.4809310000000 1.0
C      1  0.4861600000000  0.5154030000000  0.4375380000000 1.0
C      1  0.6178090000000  0.5440400000000  0.5474540000000 1.0
C      1  0.5561830000000  0.4279380000000  0.4626670000000 1.0
C      1  0.4994900000000  0.6070030000000  0.5624600000000 1.0
C      1  0.6028160000000  0.4784110000000  0.4659220000000 1.0
C      1  0.5214630000000  0.4452020000000  0.4949220000000 1.0
C      1  0.5215330000000  0.3985310000000  0.4794600000000 1.0
C      1  0.5663580000000  0.4740630000000  0.4096410000000 1.0
C      1  0.6340240000000  0.5241790000000  0.5543200000000 1.0
C      1  0.3863100000000  0.5330820000000  0.5064040000000 1.0
C      1  0.5298750000000  0.5918680000000  0.4395430000000 1.0
C      1  0.4323370000000  0.4617960000000  0.5966280000000 1.0
C      1  0.4543570000000  0.5833830000000  0.5311620000000 1.0
C      1  0.4958460000000  0.5697150000000  0.4653690000000 1.0
C      1  0.4846780000000  0.4697350000000  0.4397570000000 1.0
C      1  0.4446270000000  0.5712120000000  0.5581100000000 1.0
C      1  0.3627080000000  0.5210520000000  0.4975300000000 1.0
C      1  0.4916490000000  0.5948640000000  0.4830400000000 1.0
C      1  0.5144720000000  0.6285270000000  0.5567260000000 1.0
C      1  0.4123980000000  0.5185720000000  0.5539310000000 1.0
C      1  0.3936200000000  0.4765610000000  0.5667390000000 1.0
C      1  0.4688360000000  0.4936690000000  0.4412270000000 1.0
C      1  0.5679140000000  0.4062870000000  0.5591400000000 1.0
C      1  0.4472600000000  0.3973660000000  0.5006340000000 1.0
C      1  0.5491030000000  0.6238800000000  0.4860740000000 1.0
C      1  0.4210240000000  0.5297030000000  0.5951470000000 1.0
C      1  0.6190220000000  0.4083630000000  0.4805740000000 1.0
C      1  0.5059260000000  0.6034370000000  0.4311340000000 1.0
C      1  0.4826280000000  0.4878130000000  0.5451080000000 1.0
C      1  0.4444790000000  0.5945720000000  0.5040140000000 1.0
C      1  0.5990110000000  0.4501560000000  0.4662640000000 1.0
C      1  0.5112180000000  0.4579710000000  0.6097580000000 1.0
C      1  0.5471790000000  0.5096670000000  0.5852170000000 1.0
C      1  0.5190020000000  0.4709500000000  0.3843180000000 1.0
C      1  0.4788590000000  0.5675010000000  0.5232600000000 1.0
C      1  0.5309180000000  0.5179140000000  0.4344600000000 1.0
C      1  0.3688340000000  0.3769560000000  0.5510110000000 1.0
C      1  0.5618280000000  0.5545850000000  0.4649380000000 1.0
C      1  0.5474230000000  0.5808590000000  0.4606150000000 1.0
C      1  0.4153450000000  0.4510010000000  0.4215010000000 1.0
C      1  0.4409910000000  0.4255460000000  0.5066990000000 1.0
C      1  0.6169820000000  0.4437990000000  0.5132820000000 1.0
C      1  0.5190210000000  0.5025600000000  0.5005230000000 1.0
C      1  0.4556850000000  0.4030200000000  0.4362710000000 1.0
C      1  0.5110440000000  0.4569100000000  0.4389400000000 1.0
C      1  0.6070490000000  0.4362850000000  0.5405760000000 1.0
C      1  0.3440550000000  0.5021150000000  0.4984650000000 1.0
C      1  0.4378220000000  0.5757100000000  0.4172320000000 1.0
C      1  0.5121960000000  0.4694160000000  0.5841260000000 1.0
C      1  0.5349160000000  0.4680540000000  0.4514350000000 1.0
C      1  0.3361360000000  0.4614850000000  0.5284380000000 1.0
C      1  0.5487540000000  0.3896400000000  0.5169040000000 1.0
C      1  0.4869600000000  0.4774030000000  0.4838380000000 1.0
C      1  0.4518650000000  0.3941950000000  0.4701050000000 1.0
C      1  0.4199960000000  0.5884300000000  0.4903630000000 1.0
C      1  0.5477730000000  0.4909620000000  0.4982330000000 1.0
C      1  0.3989840000000  0.4951400000000  0.5455030000000 1.0
C      1  0.5800990000000  0.4286150000000  0.5440260000000 1.0
C      1  0.4269760000000  0.5385500000000  0.4421390000000 1.0
C      1  0.5110150000000  0.5078060000000  0.4515320000000 1.0
C      1  0.4382110000000  0.4095320000000  0.5745780000000 1.0
C      1  0.5324840000000  0.5814480000000  0.5073660000000 1.0
C      1  0.5243460000000  0.3759650000000  0.5562020000000 1.0
C      1  0.4233320000000  0.4826430000000  0.4575020000000 1.0
C      1  0.4112290000000  0.5183520000000  0.5054180000000 1.0
C      1  0.5242070000000  0.6934690000000  0.4819190000000 1.0
C      1  0.5713450000000  0.4479500000000  0.4212590000000 1.0
C      1  0.5744070000000  0.5411250000000  0.4420590000000 1.0
C      1  0.5573280000000  0.5568860000000  0.3962350000000 1.0
C      1  0.4400830000000  0.4513010000000  0.4080360000000 1.0
C      1  0.5808280000000  0.5124430000000  0.4387450000000 1.0
C      1  0.5435620000000  0.4835380000000  0.3910380000000 1.0
C      1  0.5337370000000  0.5231790000000  0.5432530000000 1.0
C      1  0.4717700000000  0.3812260000000  0.5460380000000 1.0
C      1  0.4782990000000  0.5199110000000  0.6169050000000 1.0
C      1  0.5613190000000  0.6146530000000  0.5520190000000 1.0
C      1  0.4147720000000  0.3955670000000  0.5684340000000 1.0
C      1  0.5232790000000  0.7195190000000  0.4823600000000 1.0
C      1  0.5963460000000  0.5569700000000  0.5387950000000 1.0
C      1  0.5307300000000  0.4587760000000  0.5651060000000 1.0
C      1  0.4605620000000  0.4315270000000  0.4151200000000 1.0
C      1  0.4545590000000  0.3808350000000  0.4208440000000 1.0
C      1  0.4918030000000  0.4616070000000  0.3864470000000 1.0
C      1  0.4940230000000  0.4510460000000  0.4891350000000 1.0
C      1  0.4333660000000  0.5331750000000  0.4937240000000 1.0
C      1  0.5144040000000  0.5460310000000  0.5976970000000 1.0
C      1  0.5536470000000  0.5627270000000  0.5146110000000 1.0
C      1  0.5040190000000  0.5286750000000  0.4985870000000 1.0
C      1  0.4611660000000  0.5923450000000  0.4102860000000 1.0
C      1  0.4362820000000  0.5263040000000  0.4656600000000 1.0
C      1  0.6279120000000  0.4904670000000  0.4712070000000 1.0
C      1  0.4418200000000  0.5125470000000  0.5571540000000 1.0
C      1  0.5710750000000  0.5686680000000  0.5365140000000 1.0
C      1  0.6401570000000  0.4835770000000  0.4954400000000 1.0
C      1  0.4465670000000  0.4772490000000  0.3965890000000 1.0
C      1  0.4762140000000  0.6059870000000  0.4306130000000 1.0
C      1  0.4857570000000  0.4081990000000  0.5830600000000 1.0
C      1  0.4671010000000  0.4956110000000  0.6200150000000 1.0
C      1  0.4886660000000  0.5620220000000  0.4392390000000 1.0
C      1  0.5694130000000  0.4058700000000  0.5872520000000 1.0
C      1  0.5340570000000  0.5259400000000  0.6047510000000 1.0
C      1  0.4360860000000  0.4757150000000  0.5259070000000 1.0
C      1  0.5365290000000  0.4195010000000  0.6242360000000 1.0
C      1  0.5505720000000  0.5115280000000  0.3822090000000 1.0
C      1  0.4331720000000  0.5014180000000  0.4048820000000 1.0
C      1  0.5381490000000  0.5361370000000  0.3912410000000 1.0
C      1  0.4584880000000  0.5409040000000  0.5063770000000 1.0
C      1  0.5830120000000  0.4988540000000  0.4132430000000 1.0
C      1  0.5775880000000  0.4409810000000  0.4491410000000 1.0
C      1  0.4602670000000  0.5540200000000  0.3801540000000 1.0
C      1  0.4473700000000  0.5267390000000  0.5818660000000 1.0
C      1  0.5198740000000  0.5336090000000  0.4125360000000 1.0
C      1  0.5259790000000  0.6393520000000  0.4820450000000 1.0
C      1  0.5793840000000  0.5122460000000  0.3880140000000 1.0
C      1  0.4903290000000  0.4146640000000  0.6100640000000 1.0
C      1  0.4241010000000  0.4375390000000  0.4651610000000 1.0
C      1  0.4100200000000  0.5048310000000  0.6041380000000 1.0
C      1  0.6399880000000  0.5078910000000  0.4531710000000 1.0
C      1  0.4868570000000  0.4381560000000  0.4039480000000 1.0
C      1  0.3863710000000  0.5582040000000  0.5193150000000 1.0
C      1  0.5455140000000  0.5960210000000  0.4852260000000 1.0
C      1  0.5087630000000  0.5489430000000  0.4801560000000 1.0
C      1  0.4478500000000  0.4984980000000  0.4625840000000 1.0
C      1  0.5038490000000  0.6224300000000  0.4787410000000 1.0
END
