TITL C-612607-4507-820 8.11602944481215 125000 -954.824095502437 0 0 156 (C1) n - 1
REM
REM in /home/nfs/bkarasulu/CARBON/AIRSS/Generating-Clusters/TERSOFF/Only-C1/FIRE-HFTN
REM
REM
REM
REM
REM
REM ./C.cell (11c1c37f851c82e70ff6c80c92926a4b)
REM AIRSS Version 0.9.1 bugfix July 2018 build 013d7b7c2542+ Fri, 06 Jul 2018 19:26:36 +0100
REM compiler GCC version 9.2.1 20190827 (Red Hat 9.2.1-1)
REM options -cpp -mtune=generic -march=x86-64 -g -O0 -fpre-include=/usr/include/finclude/math-vector-fortran.h
REM seed 1044304854 1728709480 -321814560 176280089 1981481932 -1031802935 782836573 -1802325093 1429100946 156933915 -2017043684 530963233 -310458627 -685313392 -2084133981 -1008089483 1229927852 -1923948850 -1433375036 1976467537 -2060233637 1397158776 1291682124 452597826 -378626139 1284116633 1353551008 -1472458754 92362631 -2085291825 503386519 -1669877379 -625570698
REM
CELL 1.54180   50.00000   50.00000   50.00000   90.00000   90.00000   90.00000
LATT -1
SFAC C  
C      1  0.3837070000000  0.4718010000000  0.5139940000000 1.0
C      1  0.5660930000000  0.5020320000000  0.5882020000000 1.0
C      1  0.5958450000000  0.4487320000000  0.5279720000000 1.0
C      1  0.6427200000000  0.5343750000000  0.5082860000000 1.0
C      1  0.5690950000000  0.4779120000000  0.5735780000000 1.0
C      1  0.5443570000000  0.5584060000000  0.5622090000000 1.0
C      1  0.4484990000000  0.3995560000000  0.4656160000000 1.0
C      1  0.4865100000000  0.5000230000000  0.5961980000000 1.0
C      1  0.4323990000000  0.5940660000000  0.5195020000000 1.0
C      1  0.4890220000000  0.3886320000000  0.5054620000000 1.0
C      1  0.5007860000000  0.5615570000000  0.4083700000000 1.0
C      1  0.5877890000000  0.4599590000000  0.4310000000000 1.0
C      1  0.5262580000000  0.4028600000000  0.5486980000000 1.0
C      1  0.5372240000000  0.4980260000000  0.4702460000000 1.0
C      1  0.5981940000000  0.4616780000000  0.4801490000000 1.0
C      1  0.5893570000000  0.5518720000000  0.5447670000000 1.0
C      1  0.4327060000000  0.5716820000000  0.5028060000000 1.0
C      1  0.4642240000000  0.4391190000000  0.5656230000000 1.0
C      1  0.6025520000000  0.5948920000000  0.4880200000000 1.0
C      1  0.5427540000000  0.6064520000000  0.4418090000000 1.0
C      1  0.5227270000000  0.4761920000000  0.4277590000000 1.0
C      1  0.4776700000000  0.5726540000000  0.4828600000000 1.0
C      1  0.4685840000000  0.4211610000000  0.4074280000000 1.0
C      1  0.5449680000000  0.4608330000000  0.5744460000000 1.0
C      1  0.4695040000000  0.3993970000000  0.4862380000000 1.0
C      1  0.5710510000000  0.5476000000000  0.5682400000000 1.0
C      1  0.5823000000000  0.4374660000000  0.4839320000000 1.0
C      1  0.5275850000000  0.3911960000000  0.4719230000000 1.0
C      1  0.3874580000000  0.4563240000000  0.4899610000000 1.0
C      1  0.4773470000000  0.4719940000000  0.4866480000000 1.0
C      1  0.6079730000000  0.5194210000000  0.5704850000000 1.0
C      1  0.6202660000000  0.4921150000000  0.5160610000000 1.0
C      1  0.4664520000000  0.4293920000000  0.4333780000000 1.0
C      1  0.3908320000000  0.5166020000000  0.5345750000000 1.0
C      1  0.4712660000000  0.5244880000000  0.5276580000000 1.0
C      1  0.6590090000000  0.5489120000000  0.4940570000000 1.0
C      1  0.4430540000000  0.5609380000000  0.5664740000000 1.0
C      1  0.4572310000000  0.5986300000000  0.5330610000000 1.0
C      1  0.4945540000000  0.4699010000000  0.4357660000000 1.0
C      1  0.5451440000000  0.5657470000000  0.5306060000000 1.0
C      1  0.4874500000000  0.4248720000000  0.5754850000000 1.0
C      1  0.4563360000000  0.5441820000000  0.4044470000000 1.0
C      1  0.4539410000000  0.4821070000000  0.5445720000000 1.0
C      1  0.5217610000000  0.5602770000000  0.4785500000000 1.0
C      1  0.5337060000000  0.5177820000000  0.5381010000000 1.0
C      1  0.4967820000000  0.5606480000000  0.4656150000000 1.0
C      1  0.4364650000000  0.5008660000000  0.4821070000000 1.0
C      1  0.4999550000000  0.4675940000000  0.5510080000000 1.0
C      1  0.3592210000000  0.5540170000000  0.5167550000000 1.0
C      1  0.4885200000000  0.5194970000000  0.5468130000000 1.0
C      1  0.4746940000000  0.5209600000000  0.4050560000000 1.0
C      1  0.4269700000000  0.4693210000000  0.4301390000000 1.0
C      1  0.5665820000000  0.4553810000000  0.4147710000000 1.0
C      1  0.5007500000000  0.5316140000000  0.4192640000000 1.0
C      1  0.5724220000000  0.5075360000000  0.5012960000000 1.0
C      1  0.5136190000000  0.3911110000000  0.4471960000000 1.0
C      1  0.5173980000000  0.4452470000000  0.4869390000000 1.0
C      1  0.5253540000000  0.4569950000000  0.5117930000000 1.0
C      1  0.5320730000000  0.5851170000000  0.4877580000000 1.0
C      1  0.4877320000000  0.4451750000000  0.4777870000000 1.0
C      1  0.5641130000000  0.5071280000000  0.4747430000000 1.0
C      1  0.5596340000000  0.4304170000000  0.4688010000000 1.0
C      1  0.5261510000000  0.4279440000000  0.4121390000000 1.0
C      1  0.4917400000000  0.5385910000000  0.4482300000000 1.0
C      1  0.4294380000000  0.4484750000000  0.5240520000000 1.0
C      1  0.3714820000000  0.5365290000000  0.5327260000000 1.0
C      1  0.5401010000000  0.5052630000000  0.6000010000000 1.0
C      1  0.3999700000000  0.5066050000000  0.5602910000000 1.0
C      1  0.4452950000000  0.5345740000000  0.5783770000000 1.0
C      1  0.5399510000000  0.5996170000000  0.4146970000000 1.0
C      1  0.5937480000000  0.4752670000000  0.4545170000000 1.0
C      1  0.5297130000000  0.5878520000000  0.5162700000000 1.0
C      1  0.5755720000000  0.5677060000000  0.5255540000000 1.0
C      1  0.6079050000000  0.4679990000000  0.5079920000000 1.0
C      1  0.4362130000000  0.4762960000000  0.5240330000000 1.0
C      1  0.3662700000000  0.5649940000000  0.4933830000000 1.0
C      1  0.5357130000000  0.5386200000000  0.5191720000000 1.0
C      1  0.5199000000000  0.5469760000000  0.5724400000000 1.0
C      1  0.4621760000000  0.5847290000000  0.4347410000000 1.0
C      1  0.4833750000000  0.5153330000000  0.4637500000000 1.0
C      1  0.5146920000000  0.5194730000000  0.5607820000000 1.0
C      1  0.5056770000000  0.4715500000000  0.5245020000000 1.0
C      1  0.5357360000000  0.3986480000000  0.5214170000000 1.0
C      1  0.5558190000000  0.5293080000000  0.3868200000000 1.0
C      1  0.4225830000000  0.5174110000000  0.5740730000000 1.0
C      1  0.5507610000000  0.4663540000000  0.5180210000000 1.0
C      1  0.4491700000000  0.4618490000000  0.6025900000000 1.0
C      1  0.4721040000000  0.5692950000000  0.4112640000000 1.0
C      1  0.5727870000000  0.5128240000000  0.4285810000000 1.0
C      1  0.5177210000000  0.3902310000000  0.4992590000000 1.0
C      1  0.5655240000000  0.4885890000000  0.5189430000000 1.0
C      1  0.4569570000000  0.5209090000000  0.4780650000000 1.0
C      1  0.4815210000000  0.4920450000000  0.4468720000000 1.0
C      1  0.4172530000000  0.4352830000000  0.5696310000000 1.0
C      1  0.4428210000000  0.4232960000000  0.4486810000000 1.0
C      1  0.4644220000000  0.4945950000000  0.4023400000000 1.0
C      1  0.5160230000000  0.5129070000000  0.4807110000000 1.0
C      1  0.4165420000000  0.5596550000000  0.4830510000000 1.0
C      1  0.5196830000000  0.4727090000000  0.5706060000000 1.0
C      1  0.4132080000000  0.5176090000000  0.4189030000000 1.0
C      1  0.4103010000000  0.4928120000000  0.4296890000000 1.0
C      1  0.4855550000000  0.4452140000000  0.4472510000000 1.0
C      1  0.5531100000000  0.4030350000000  0.4682540000000 1.0
C      1  0.4860070000000  0.5804720000000  0.5694100000000 1.0
C      1  0.5379670000000  0.4539190000000  0.4131290000000 1.0
C      1  0.4983570000000  0.4056050000000  0.5551600000000 1.0
C      1  0.4806210000000  0.6059400000000  0.5144120000000 1.0
C      1  0.5378150000000  0.4487720000000  0.4672330000000 1.0
C      1  0.3963140000000  0.4983470000000  0.5129460000000 1.0
C      1  0.5821220000000  0.4282120000000  0.5116150000000 1.0
C      1  0.4624360000000  0.5339820000000  0.5036090000000 1.0
C      1  0.6244080000000  0.5193190000000  0.5231240000000 1.0
C      1  0.5044880000000  0.5976870000000  0.5563830000000 1.0
C      1  0.5574030000000  0.4366420000000  0.5669220000000 1.0
C      1  0.5508080000000  0.5175420000000  0.4110720000000 1.0
C      1  0.5814810000000  0.5015520000000  0.4531800000000 1.0
C      1  0.5222400000000  0.5790650000000  0.4073890000000 1.0
C      1  0.6105220000000  0.5317540000000  0.5444570000000 1.0
C      1  0.4089500000000  0.4423870000000  0.5433410000000 1.0
C      1  0.5067530000000  0.6007160000000  0.5279180000000 1.0
C      1  0.5248020000000  0.5365280000000  0.4935190000000 1.0
C      1  0.5878980000000  0.5825120000000  0.5056620000000 1.0
C      1  0.4236000000000  0.4938250000000  0.5058630000000 1.0
C      1  0.5250810000000  0.5095340000000  0.4176660000000 1.0
C      1  0.4776570000000  0.4706900000000  0.6034700000000 1.0
C      1  0.4489190000000  0.4744330000000  0.4120620000000 1.0
C      1  0.3871520000000  0.4610130000000  0.5412660000000 1.0
C      1  0.4234060000000  0.4461010000000  0.4488670000000 1.0
C      1  0.5358290000000  0.4743990000000  0.4551130000000 1.0
C      1  0.4593670000000  0.5611230000000  0.5003840000000 1.0
C      1  0.4770710000000  0.6015830000000  0.4836280000000 1.0
C      1  0.4830220000000  0.3929280000000  0.5338790000000 1.0
C      1  0.5819050000000  0.5242450000000  0.5819020000000 1.0
C      1  0.4727680000000  0.5289470000000  0.5894160000000 1.0
C      1  0.5460070000000  0.4119290000000  0.5662840000000 1.0
C      1  0.4693330000000  0.4272690000000  0.4933960000000 1.0
C      1  0.5882510000000  0.4540450000000  0.5546430000000 1.0
C      1  0.4335170000000  0.5480730000000  0.4636420000000 1.0
C      1  0.4600790000000  0.5819460000000  0.5575060000000 1.0
C      1  0.4943540000000  0.4440070000000  0.5984290000000 1.0
C      1  0.4411660000000  0.4424120000000  0.5825020000000 1.0
C      1  0.4941660000000  0.5554390000000  0.5817000000000 1.0
C      1  0.4724510000000  0.4638430000000  0.5546440000000 1.0
C      1  0.3894300000000  0.5646860000000  0.4801210000000 1.0
C      1  0.4028670000000  0.4482840000000  0.4690230000000 1.0
C      1  0.4476540000000  0.4333120000000  0.5099740000000 1.0
C      1  0.3876960000000  0.4805800000000  0.5627340000000 1.0
C      1  0.5175430000000  0.4056510000000  0.4246320000000 1.0
C      1  0.4425580000000  0.5666470000000  0.4455040000000 1.0
C      1  0.5154750000000  0.4994410000000  0.5838020000000 1.0
C      1  0.4875180000000  0.4843110000000  0.5079180000000 1.0
C      1  0.4705560000000  0.6062460000000  0.4544890000000 1.0
C      1  0.5543740000000  0.6128240000000  0.3955780000000 1.0
C      1  0.5408200000000  0.6029170000000  0.4681710000000 1.0
C      1  0.4290740000000  0.5367160000000  0.4080240000000 1.0
C      1  0.5627220000000  0.4082350000000  0.5175560000000 1.0
END
