TITL C-2441167-4473-801 0.144722620462392 125000 -23542.3147741788 0 0 176 (C1) n - 1
REM
REM in /home/bkarasulu/work/CARBON/AIRSS/Generating-Clusters/ReaxFF-fromJPCA2015/Units_Real/with-SteepDescent/Higher-Symm
REM
REM
REM
REM
REM
REM ./C.cell (1df0a924f5614ab8850e4351716899ee)
REM
REM compiler GCC version 9.2.1 20190827 (Red Hat 9.2.1-1)
REM options -cpp -mtune=generic -march=x86-64 -g -O0 -fpre-include=/usr/include/finclude/math-vector-fortran.h
REM seed 1236142042 753842633 -746704859 1677041915 -1946674564 -1165851546 777909916 -713672583 1526368030 2092329940 -1643288203 1113435364 77353159 -1406656735 -1830381880 -1807928226 -612118912 1708277180 406030787 -354197635 1259253031 826153351 -1072385239 -574919565 -61556026 1601960983 1613918249 385124931 -1700238255 1439324491 -1742592760 -1332422156 -999554034
REM
CELL 1.54180   50.00000   50.00000   50.00000   90.00000   90.00000   90.00000
LATT -1
SFAC C  
C      1  0.4291010000000  0.5283250000000  0.4711970000000 1.0
C      1  0.4424730000000  0.5082810000000  0.4610430000000 1.0
C      1  0.4317110000000  0.4837910000000  0.4548170000000 1.0
C      1  0.4288840000000  0.4607070000000  0.4725090000000 1.0
C      1  0.4426260000000  0.4602330000000  0.4965640000000 1.0
C      1  0.4306390000000  0.4660720000000  0.5192380000000 1.0
C      1  0.4457570000000  0.4812250000000  0.5348610000000 1.0
C      1  0.4391730000000  0.5041360000000  0.5491520000000 1.0
C      1  0.4327400000000  0.5304590000000  0.5402560000000 1.0
C      1  0.4283970000000  0.5448830000000  0.5146600000000 1.0
C      1  0.4427900000000  0.5398860000000  0.4912110000000 1.0
C      1  0.4777870000000  0.4645000000000  0.4651390000000 1.0
C      1  0.4689330000000  0.4593350000000  0.4920150000000 1.0
C      1  0.4843400000000  0.4595340000000  0.5152410000000 1.0
C      1  0.4720370000000  0.4755620000000  0.5349180000000 1.0
C      1  0.4859250000000  0.4955120000000  0.5482020000000 1.0
C      1  0.4828090000000  0.5227910000000  0.5430950000000 1.0
C      1  0.4758450000000  0.5417060000000  0.5227680000000 1.0
C      1  0.4697650000000  0.5372430000000  0.4950580000000 1.0
C      1  0.4864000000000  0.5316650000000  0.4704320000000 1.0
C      1  0.4686930000000  0.5131280000000  0.4557040000000 1.0
C      1  0.4787570000000  0.4879160000000  0.4483600000000 1.0
C      1  0.4981100000000  0.5914210000000  0.4691390000000 1.0
C      1  0.4931260000000  0.5569120000000  0.4281630000000 1.0
C      1  0.4967560000000  0.5084550000000  0.4048770000000 1.0
C      1  0.4948330000000  0.4549990000000  0.4140150000000 1.0
C      1  0.4961240000000  0.4151640000000  0.4518900000000 1.0
C      1  0.4967130000000  0.4061160000000  0.5055660000000 1.0
C      1  0.4958540000000  0.4212920000000  0.5575290000000 1.0
C      1  0.4947960000000  0.4647070000000  0.5893490000000 1.0
C      1  0.4967740000000  0.5181280000000  0.5932640000000 1.0
C      1  0.4956600000000  0.5665890000000  0.5708240000000 1.0
C      1  0.4989170000000  0.5964510000000  0.5246180000000 1.0
C      1  0.4420040000000  0.5101050000000  0.4071450000000 1.0
C      1  0.4433140000000  0.4587860000000  0.4181370000000 1.0
C      1  0.4437260000000  0.4203090000000  0.4534230000000 1.0
C      1  0.4431080000000  0.4073090000000  0.5028700000000 1.0
C      1  0.4424550000000  0.4249750000000  0.5526950000000 1.0
C      1  0.4419000000000  0.4649760000000  0.5852630000000 1.0
C      1  0.4429360000000  0.5169380000000  0.5914100000000 1.0
C      1  0.4431990000000  0.5630280000000  0.5671390000000 1.0
C      1  0.4439480000000  0.5890880000000  0.5227410000000 1.0
C      1  0.4427700000000  0.5883280000000  0.4721010000000 1.0
C      1  0.4429010000000  0.5574820000000  0.4285700000000 1.0
C      1  0.5125040000000  0.4611540000000  0.5445310000000 1.0
C      1  0.5114220000000  0.4856130000000  0.5563980000000 1.0
C      1  0.5093300000000  0.5318950000000  0.5433540000000 1.0
C      1  0.5024440000000  0.5534680000000  0.5253430000000 1.0
C      1  0.5091330000000  0.5533830000000  0.4988530000000 1.0
C      1  0.5131510000000  0.5515770000000  0.4740950000000 1.0
C      1  0.5111900000000  0.5133000000000  0.4587450000000 1.0
C      1  0.5071300000000  0.4870170000000  0.4478660000000 1.0
C      1  0.5054400000000  0.4616630000000  0.4629240000000 1.0
C      1  0.5189070000000  0.4439380000000  0.4799830000000 1.0
C      1  0.5112440000000  0.4494930000000  0.5195610000000 1.0
C      1  0.5677910000000  0.5823840000000  0.5335360000000 1.0
C      1  0.5663570000000  0.5907350000000  0.4818300000000 1.0
C      1  0.5728240000000  0.5664140000000  0.4371160000000 1.0
C      1  0.5676290000000  0.5216440000000  0.4130370000000 1.0
C      1  0.5679210000000  0.4694690000000  0.4147270000000 1.0
C      1  0.5688450000000  0.4276880000000  0.4428030000000 1.0
C      1  0.5677770000000  0.4065560000000  0.4909600000000 1.0
C      1  0.5705110000000  0.4220550000000  0.5393600000000 1.0
C      1  0.5663510000000  0.4527880000000  0.5796410000000 1.0
C      1  0.5701750000000  0.5023070000000  0.5907940000000 1.0
C      1  0.5714230000000  0.5501940000000  0.5733330000000 1.0
C      1  0.3992720000000  0.5111500000000  0.4413140000000 1.0
C      1  0.4037000000000  0.4827780000000  0.4489920000000 1.0
C      1  0.4017730000000  0.4505220000000  0.4734540000000 1.0
C      1  0.3990230000000  0.4390080000000  0.5008220000000 1.0
C      1  0.4062520000000  0.4551580000000  0.5280430000000 1.0
C      1  0.3993090000000  0.4762210000000  0.5531640000000 1.0
C      1  0.3978720000000  0.5051420000000  0.5569430000000 1.0
C      1  0.4035310000000  0.5308300000000  0.5437290000000 1.0
C      1  0.4011090000000  0.5551050000000  0.5113420000000 1.0
C      1  0.3980450000000  0.5580910000000  0.4816370000000 1.0
C      1  0.4062410000000  0.5370580000000  0.4590700000000 1.0
C      1  0.5464750000000  0.5066770000000  0.6065390000000 1.0
C      1  0.5503530000000  0.5643250000000  0.5851020000000 1.0
C      1  0.5450490000000  0.5985080000000  0.5385760000000 1.0
C      1  0.5429650000000  0.6049560000000  0.4758530000000 1.0
C      1  0.5536320000000  0.5749750000000  0.4171090000000 1.0
C      1  0.5434700000000  0.5257260000000  0.3979720000000 1.0
C      1  0.5506620000000  0.4560190000000  0.3972750000000 1.0
C      1  0.5441200000000  0.4167300000000  0.4346410000000 1.0
C      1  0.5422380000000  0.3913910000000  0.4913000000000 1.0
C      1  0.5530530000000  0.4041500000000  0.5536180000000 1.0
C      1  0.5413720000000  0.4453950000000  0.5949680000000 1.0
C      1  0.4836860000000  0.5770960000000  0.4475200000000 1.0
C      1  0.4836940000000  0.5343930000000  0.4123360000000 1.0
C      1  0.4836880000000  0.4820550000000  0.4065040000000 1.0
C      1  0.4842750000000  0.4332560000000  0.4314980000000 1.0
C      1  0.4852210000000  0.4082350000000  0.4782150000000 1.0
C      1  0.4841940000000  0.4115330000000  0.5313390000000 1.0
C      1  0.4835010000000  0.4414880000000  0.5757470000000 1.0
C      1  0.4838750000000  0.4914490000000  0.5946300000000 1.0
C      1  0.4842150000000  0.5431470000000  0.5845920000000 1.0
C      1  0.4853280000000  0.5845850000000  0.5498760000000 1.0
C      1  0.4862820000000  0.5965440000000  0.4964620000000 1.0
C      1  0.4208040000000  0.4366940000000  0.4569880000000 1.0
C      1  0.4184840000000  0.4197200000000  0.4995680000000 1.0
C      1  0.4197360000000  0.4309650000000  0.5378910000000 1.0
C      1  0.4182570000000  0.4660010000000  0.5704370000000 1.0
C      1  0.4229920000000  0.5058720000000  0.5727420000000 1.0
C      1  0.4190280000000  0.5491130000000  0.5603720000000 1.0
C      1  0.4193500000000  0.5744490000000  0.5226280000000 1.0
C      1  0.4180620000000  0.5768010000000  0.4780100000000 1.0
C      1  0.4196660000000  0.5550950000000  0.4439930000000 1.0
C      1  0.4183810000000  0.5119140000000  0.4216610000000 1.0
C      1  0.4186590000000  0.4709220000000  0.4267100000000 1.0
C      1  0.5310880000000  0.4246020000000  0.5783690000000 1.0
C      1  0.5317560000000  0.4838950000000  0.6063970000000 1.0
C      1  0.5282250000000  0.5511170000000  0.5934490000000 1.0
C      1  0.5252180000000  0.5913320000000  0.5570260000000 1.0
C      1  0.5245880000000  0.6103710000000  0.4949730000000 1.0
C      1  0.5303430000000  0.5818280000000  0.4329450000000 1.0
C      1  0.5370910000000  0.5532220000000  0.4048710000000 1.0
C      1  0.5274620000000  0.4739460000000  0.3975470000000 1.0
C      1  0.5376200000000  0.4346510000000  0.4128690000000 1.0
C      1  0.5291470000000  0.3962600000000  0.4671320000000 1.0
C      1  0.5298930000000  0.4011200000000  0.5382520000000 1.0
C      1  0.4566920000000  0.4353720000000  0.4319940000000 1.0
C      1  0.4574540000000  0.4089290000000  0.4769690000000 1.0
C      1  0.4560830000000  0.4112510000000  0.5302660000000 1.0
C      1  0.4556640000000  0.4417090000000  0.5740170000000 1.0
C      1  0.4557260000000  0.4911320000000  0.5938660000000 1.0
C      1  0.4559100000000  0.5426660000000  0.5844120000000 1.0
C      1  0.4571420000000  0.5811910000000  0.5480440000000 1.0
C      1  0.4579150000000  0.5941550000000  0.4970870000000 1.0
C      1  0.4555300000000  0.5772310000000  0.4467400000000 1.0
C      1  0.4557370000000  0.5357270000000  0.4126700000000 1.0
C      1  0.4559990000000  0.4828240000000  0.4071940000000 1.0
C      1  0.5381660000000  0.4925680000000  0.5477540000000 1.0
C      1  0.5324980000000  0.5173330000000  0.5352080000000 1.0
C      1  0.5501120000000  0.5383130000000  0.5273330000000 1.0
C      1  0.5523780000000  0.5498830000000  0.5028910000000 1.0
C      1  0.5431810000000  0.5444410000000  0.4750320000000 1.0
C      1  0.5371130000000  0.5175040000000  0.4646360000000 1.0
C      1  0.5529540000000  0.4959670000000  0.4524610000000 1.0
C      1  0.5521040000000  0.4701490000000  0.4606110000000 1.0
C      1  0.5418040000000  0.4588660000000  0.4846960000000 1.0
C      1  0.5366900000000  0.4614120000000  0.5117430000000 1.0
C      1  0.5512000000000  0.4697670000000  0.5351200000000 1.0
C      1  0.5190180000000  0.5574390000000  0.4265230000000 1.0
C      1  0.5239180000000  0.5034000000000  0.3985600000000 1.0
C      1  0.5200080000000  0.4565430000000  0.4208020000000 1.0
C      1  0.5226060000000  0.4223660000000  0.4571220000000 1.0
C      1  0.5235340000000  0.3997550000000  0.5109780000000 1.0
C      1  0.5222790000000  0.4244130000000  0.5544760000000 1.0
C      1  0.5218720000000  0.4656170000000  0.5952200000000 1.0
C      1  0.5245250000000  0.5230790000000  0.5966810000000 1.0
C      1  0.5241790000000  0.5664930000000  0.5685060000000 1.0
C      1  0.5260240000000  0.5978140000000  0.5175880000000 1.0
C      1  0.5252310000000  0.5921810000000  0.4588390000000 1.0
C      1  0.5750760000000  0.4243150000000  0.5114500000000 1.0
C      1  0.5642420000000  0.4488310000000  0.5508080000000 1.0
C      1  0.5779350000000  0.4785300000000  0.5767020000000 1.0
C      1  0.5769300000000  0.5228980000000  0.5735340000000 1.0
C      1  0.5696000000000  0.5553550000000  0.5450800000000 1.0
C      1  0.5665690000000  0.5744780000000  0.5060130000000 1.0
C      1  0.5704600000000  0.5662450000000  0.4664550000000 1.0
C      1  0.5783400000000  0.5394340000000  0.4327170000000 1.0
C      1  0.5643140000000  0.4957980000000  0.4256950000000 1.0
C      1  0.5703690000000  0.4570870000000  0.4409250000000 1.0
C      1  0.5701530000000  0.4185280000000  0.4668810000000 1.0
C      1  0.5877390000000  0.5130590000000  0.5495970000000 1.0
C      1  0.5925200000000  0.5350460000000  0.5314130000000 1.0
C      1  0.5926390000000  0.5390970000000  0.5053800000000 1.0
C      1  0.5901020000000  0.5478060000000  0.4802070000000 1.0
C      1  0.5901230000000  0.5287680000000  0.4573460000000 1.0
C      1  0.5933110000000  0.5018910000000  0.4607200000000 1.0
C      1  0.5942990000000  0.4744690000000  0.4574780000000 1.0
C      1  0.5938660000000  0.4688040000000  0.4845480000000 1.0
C      1  0.5903830000000  0.4503590000000  0.5060510000000 1.0
C      1  0.5915160000000  0.4706760000000  0.5251860000000 1.0
C      1  0.5899410000000  0.4842720000000  0.5488010000000 1.0
END
