TITL C-2441154-10-416 0.125687466249449 125000 -21282.2979544571 0 0 164 (C1) n - 1
REM
REM in /home/bkarasulu/work/CARBON/AIRSS/Generating-Clusters/ReaxFF-fromJPCA2015/Units_Real/with-SteepDescent/Higher-Symm
REM
REM
REM
REM
REM
REM ./C.cell (1df0a924f5614ab8850e4351716899ee)
REM
REM compiler GCC version 9.2.1 20190827 (Red Hat 9.2.1-1)
REM options -cpp -mtune=generic -march=x86-64 -g -O0 -fpre-include=/usr/include/finclude/math-vector-fortran.h
REM seed -1629851234 -1534605683 -316506231 944488747 220892135 -1243662009 -1259833489 -804232453 -2035924640 754071071 -212467818 1119982790 -1507163878 955033818 565508866 1809078537 -952452783 -576732084 -771992098 409193755 1772173712 956976535 -1536352918 -2020347584 1956289915 1450292323 1801245171 -49460199 1301000429 814094836 -593620382 1260262341 493230286
REM
CELL 1.54180   50.00000   50.00000   50.00000   90.00000   90.00000   90.00000
LATT -1
SFAC C  
C      1  0.4790070000000  0.4047730000000  0.5173750000000 1.0
C      1  0.4800770000000  0.5666020000000  0.5737180000000 1.0
C      1  0.4795610000000  0.5303830000000  0.4075410000000 1.0
C      1  0.5718260000000  0.4915550000000  0.5182780000000 1.0
C      1  0.5684400000000  0.5138420000000  0.4830670000000 1.0
C      1  0.5637080000000  0.4879200000000  0.4916080000000 1.0
C      1  0.5747110000000  0.4405300000000  0.4760550000000 1.0
C      1  0.5727760000000  0.5044180000000  0.5652970000000 1.0
C      1  0.5755640000000  0.5569280000000  0.4609060000000 1.0
C      1  0.5467860000000  0.5232140000000  0.4672260000000 1.0
C      1  0.5407550000000  0.4718400000000  0.4919420000000 1.0
C      1  0.5489520000000  0.5091830000000  0.5229430000000 1.0
C      1  0.4602110000000  0.5001090000000  0.5526850000000 1.0
C      1  0.4720300000000  0.5451890000000  0.4733420000000 1.0
C      1  0.4753600000000  0.4528060000000  0.4763950000000 1.0
C      1  0.4184910000000  0.5520340000000  0.5032560000000 1.0
C      1  0.4025690000000  0.4748850000000  0.4649660000000 1.0
C      1  0.4122370000000  0.4699510000000  0.5398640000000 1.0
C      1  0.4160200000000  0.5121310000000  0.4292440000000 1.0
C      1  0.4221030000000  0.4320840000000  0.5157570000000 1.0
C      1  0.4257060000000  0.5483510000000  0.5512180000000 1.0
C      1  0.4606310000000  0.5449830000000  0.5829910000000 1.0
C      1  0.4777360000000  0.5424460000000  0.4345510000000 1.0
C      1  0.4615160000000  0.4097790000000  0.4953670000000 1.0
C      1  0.5268100000000  0.4593310000000  0.5334050000000 1.0
C      1  0.5308530000000  0.5439550000000  0.5156180000000 1.0
C      1  0.5315970000000  0.4961540000000  0.4527440000000 1.0
C      1  0.4714660000000  0.5238130000000  0.5915690000000 1.0
C      1  0.4612500000000  0.5660670000000  0.4387440000000 1.0
C      1  0.4675990000000  0.4073720000000  0.4697970000000 1.0
C      1  0.5536090000000  0.5334160000000  0.4143180000000 1.0
C      1  0.5566950000000  0.4158530000000  0.5185060000000 1.0
C      1  0.5589240000000  0.5631980000000  0.5628580000000 1.0
C      1  0.4052690000000  0.5195250000000  0.4763850000000 1.0
C      1  0.3977840000000  0.4751540000000  0.4938800000000 1.0
C      1  0.4049030000000  0.5119670000000  0.5278250000000 1.0
C      1  0.4971450000000  0.5807180000000  0.5276290000000 1.0
C      1  0.4964530000000  0.4832470000000  0.4181040000000 1.0
C      1  0.4978100000000  0.4266620000000  0.5598230000000 1.0
C      1  0.5840730000000  0.5648720000000  0.5017380000000 1.0
C      1  0.5739410000000  0.4630190000000  0.4314780000000 1.0
C      1  0.5811820000000  0.4644510000000  0.5580970000000 1.0
C      1  0.5100260000000  0.5317040000000  0.5336430000000 1.0
C      1  0.5065180000000  0.5117760000000  0.4604240000000 1.0
C      1  0.5060170000000  0.4556770000000  0.5117310000000 1.0
C      1  0.5300100000000  0.5214570000000  0.4005890000000 1.0
C      1  0.5309730000000  0.4055700000000  0.5301100000000 1.0
C      1  0.5314930000000  0.5740040000000  0.5640610000000 1.0
C      1  0.5043110000000  0.6017280000000  0.4830260000000 1.0
C      1  0.5056860000000  0.4347740000000  0.4198460000000 1.0
C      1  0.5038090000000  0.4614390000000  0.5969290000000 1.0
C      1  0.4724680000000  0.4752890000000  0.5431320000000 1.0
C      1  0.4756860000000  0.5580400000000  0.4977710000000 1.0
C      1  0.4733770000000  0.4712150000000  0.4535090000000 1.0
C      1  0.5798860000000  0.5647740000000  0.5384510000000 1.0
C      1  0.5891440000000  0.4867380000000  0.4329610000000 1.0
C      1  0.5783510000000  0.4409300000000  0.5407640000000 1.0
C      1  0.4379290000000  0.4342710000000  0.4628930000000 1.0
C      1  0.4361390000000  0.5015810000000  0.5701740000000 1.0
C      1  0.4351640000000  0.5580460000000  0.4531430000000 1.0
C      1  0.5635220000000  0.5416920000000  0.5812580000000 1.0
C      1  0.5612650000000  0.5591690000000  0.4172750000000 1.0
C      1  0.5637870000000  0.4053130000000  0.4932220000000 1.0
C      1  0.6106650000000  0.4781490000000  0.5101490000000 1.0
C      1  0.6014780000000  0.5049000000000  0.5105930000000 1.0
C      1  0.5976310000000  0.5129460000000  0.4817820000000 1.0
C      1  0.5245340000000  0.4186420000000  0.5551120000000 1.0
C      1  0.5225940000000  0.5865460000000  0.5392760000000 1.0
C      1  0.5194020000000  0.4939990000000  0.4040660000000 1.0
C      1  0.4848860000000  0.4219590000000  0.4360040000000 1.0
C      1  0.4820050000000  0.4807960000000  0.5970470000000 1.0
C      1  0.4825870000000  0.5940050000000  0.4657460000000 1.0
C      1  0.4531680000000  0.4822060000000  0.5061460000000 1.0
C      1  0.4660600000000  0.5187400000000  0.5097070000000 1.0
C      1  0.4503790000000  0.5051370000000  0.4914480000000 1.0
C      1  0.4566680000000  0.5841140000000  0.4754120000000 1.0
C      1  0.4565320000000  0.4322730000000  0.4383590000000 1.0
C      1  0.4556650000000  0.4765850000000  0.5860930000000 1.0
C      1  0.4604470000000  0.4522380000000  0.5307700000000 1.0
C      1  0.4509720000000  0.5472090000000  0.5370770000000 1.0
C      1  0.4534640000000  0.5118770000000  0.4438400000000 1.0
C      1  0.5009420000000  0.4655140000000  0.4827320000000 1.0
C      1  0.5094110000000  0.4975840000000  0.5329740000000 1.0
C      1  0.5100620000000  0.5214040000000  0.4881280000000 1.0
C      1  0.5564310000000  0.5215670000000  0.5468630000000 1.0
C      1  0.5632600000000  0.5318290000000  0.4460570000000 1.0
C      1  0.5576050000000  0.4446000000000  0.5005210000000 1.0
C      1  0.4357260000000  0.5319780000000  0.5736790000000 1.0
C      1  0.4347550000000  0.5342550000000  0.4358140000000 1.0
C      1  0.4367290000000  0.4230080000000  0.4922120000000 1.0
C      1  0.5397460000000  0.4406740000000  0.5519770000000 1.0
C      1  0.5407370000000  0.5706660000000  0.5222130000000 1.0
C      1  0.5373860000000  0.4851990000000  0.4248060000000 1.0
C      1  0.4609230000000  0.4100740000000  0.5532350000000 1.0
C      1  0.4606780000000  0.5928900000000  0.5501810000000 1.0
C      1  0.4585550000000  0.4979060000000  0.3966020000000 1.0
C      1  0.4597450000000  0.4482050000000  0.5828000000000 1.0
C      1  0.4603870000000  0.5992480000000  0.4996540000000 1.0
C      1  0.4595740000000  0.4501240000000  0.4152050000000 1.0
C      1  0.5327270000000  0.5981810000000  0.4778420000000 1.0
C      1  0.5337040000000  0.4348970000000  0.4273950000000 1.0
C      1  0.5328910000000  0.4688500000000  0.5966380000000 1.0
C      1  0.4196950000000  0.5448590000000  0.4755280000000 1.0
C      1  0.4274160000000  0.4609930000000  0.4605320000000 1.0
C      1  0.4147630000000  0.4961120000000  0.5496390000000 1.0
C      1  0.4892020000000  0.5980160000000  0.5066600000000 1.0
C      1  0.4880320000000  0.4563890000000  0.4112440000000 1.0
C      1  0.4888620000000  0.4422480000000  0.5820750000000 1.0
C      1  0.5713120000000  0.4582160000000  0.5204050000000 1.0
C      1  0.5755950000000  0.5386980000000  0.5363940000000 1.0
C      1  0.5809210000000  0.5100910000000  0.4420580000000 1.0
C      1  0.4458850000000  0.4806680000000  0.4454160000000 1.0
C      1  0.4368590000000  0.4574680000000  0.5467380000000 1.0
C      1  0.4448070000000  0.5615010000000  0.5122910000000 1.0
C      1  0.5654090000000  0.4143060000000  0.4660830000000 1.0
C      1  0.5637920000000  0.5149680000000  0.5918460000000 1.0
C      1  0.5644670000000  0.5752340000000  0.4407370000000 1.0
C      1  0.4595390000000  0.4568850000000  0.5008770000000 1.0
C      1  0.4580040000000  0.5209390000000  0.5341850000000 1.0
C      1  0.4628550000000  0.5189780000000  0.4692300000000 1.0
C      1  0.5427270000000  0.5915130000000  0.5036520000000 1.0
C      1  0.5487360000000  0.4588940000000  0.4177660000000 1.0
C      1  0.5387520000000  0.4477560000000  0.5790480000000 1.0
C      1  0.5617700000000  0.5621210000000  0.4854610000000 1.0
C      1  0.5611890000000  0.4576970000000  0.4568640000000 1.0
C      1  0.5573320000000  0.4801560000000  0.5603520000000 1.0
C      1  0.4097660000000  0.5397880000000  0.5281950000000 1.0
C      1  0.4025690000000  0.5023240000000  0.4533480000000 1.0
C      1  0.4059250000000  0.4559820000000  0.5146800000000 1.0
C      1  0.5950470000000  0.5447030000000  0.5186090000000 1.0
C      1  0.6016060000000  0.4984600000000  0.4569330000000 1.0
C      1  0.6002430000000  0.4579590000000  0.5325300000000 1.0
C      1  0.5078310000000  0.5406180000000  0.4380430000000 1.0
C      1  0.5147850000000  0.4256680000000  0.4977440000000 1.0
C      1  0.5128800000000  0.5344970000000  0.5633190000000 1.0
C      1  0.5081190000000  0.4017980000000  0.5121040000000 1.0
C      1  0.5085810000000  0.5602750000000  0.5763860000000 1.0
C      1  0.5074870000000  0.5372840000000  0.4077740000000 1.0
C      1  0.4475010000000  0.6033780000000  0.5271770000000 1.0
C      1  0.4452590000000  0.4732660000000  0.4012440000000 1.0
C      1  0.4444810000000  0.4252980000000  0.5698590000000 1.0
C      1  0.4867830000000  0.5804340000000  0.4422330000000 1.0
C      1  0.4918420000000  0.4083990000000  0.4586050000000 1.0
C      1  0.4918420000000  0.5082920000000  0.5987690000000 1.0
C      1  0.4768560000000  0.4244600000000  0.5382800000000 1.0
C      1  0.4766230000000  0.5686030000000  0.5459020000000 1.0
C      1  0.4753490000000  0.5048910000000  0.4192530000000 1.0
C      1  0.5391800000000  0.4990100000000  0.5946970000000 1.0
C      1  0.5380150000000  0.5835570000000  0.4517060000000 1.0
C      1  0.5397300000000  0.4197280000000  0.4516720000000 1.0
C      1  0.5347540000000  0.4684850000000  0.4639170000000 1.0
C      1  0.5294880000000  0.4812880000000  0.5494110000000 1.0
C      1  0.5305250000000  0.5419880000000  0.4862110000000 1.0
C      1  0.4277640000000  0.4867950000000  0.4200400000000 1.0
C      1  0.4270400000000  0.4301780000000  0.5460390000000 1.0
C      1  0.4305850000000  0.5810390000000  0.5295190000000 1.0
C      1  0.4897670000000  0.5326720000000  0.5067970000000 1.0
C      1  0.4915740000000  0.4886580000000  0.4671230000000 1.0
C      1  0.4892870000000  0.4787820000000  0.5218770000000 1.0
C      1  0.5169350000000  0.5127850000000  0.5830090000000 1.0
C      1  0.5141230000000  0.5702050000000  0.4429230000000 1.0
C      1  0.5167220000000  0.4177150000000  0.4697700000000 1.0
C      1  0.4002590000000  0.5030620000000  0.5003490000000 1.0
C      1  0.5255950000000  0.4991580000000  0.5068740000000 1.0
END
