TITL C-2441160-1326-726 0.0952317363878428 125000 -23381.4858259366 0 0 175 (C1) n - 1
REM
REM in /home/bkarasulu/work/CARBON/AIRSS/Generating-Clusters/ReaxFF-fromJPCA2015/Units_Real/with-SteepDescent/Higher-Symm
REM
REM
REM
REM
REM
REM ./C.cell (1df0a924f5614ab8850e4351716899ee)
REM
REM compiler GCC version 9.2.1 20190827 (Red Hat 9.2.1-1)
REM options -cpp -mtune=generic -march=x86-64 -g -O0 -fpre-include=/usr/include/finclude/math-vector-fortran.h
REM seed -614173091 -1391871907 -493955862 472542876 -948770604 -247241998 1256298426 1596935403 -2049808773 2037044337 -1322569079 368143372 1448491493 -2101515601 2088905171 1558369721 357827995 -270610116 -321933729 -441467721 470733600 -1578301959 1874483787 -1847553484 1041116622 569739953 2011885830 606647292 -1292807593 943647362 660001648 -1451550892 1828219519
REM
CELL 1.54180   50.00000   50.00000   50.00000   90.00000   90.00000   90.00000
LATT -1
SFAC C  
C      1  0.4278630000000  0.5825670000000  0.5146610000000 1.0
C      1  0.5822520000000  0.5096510000000  0.4265290000000 1.0
C      1  0.5213140000000  0.4274780000000  0.5767920000000 1.0
C      1  0.4309550000000  0.4309270000000  0.4744510000000 1.0
C      1  0.5654070000000  0.5752150000000  0.4864550000000 1.0
C      1  0.5706480000000  0.4159890000000  0.5091250000000 1.0
C      1  0.5770830000000  0.4856070000000  0.5699980000000 1.0
C      1  0.4196240000000  0.5133470000000  0.5830010000000 1.0
C      1  0.4193080000000  0.4876130000000  0.4229910000000 1.0
C      1  0.5178070000000  0.5727330000000  0.4158450000000 1.0
C      1  0.4819650000000  0.4175590000000  0.4258700000000 1.0
C      1  0.4881020000000  0.5733550000000  0.5764830000000 1.0
C      1  0.5773950000000  0.5795860000000  0.5131110000000 1.0
C      1  0.4296700000000  0.5187810000000  0.4343440000000 1.0
C      1  0.4699060000000  0.4269550000000  0.5766120000000 1.0
C      1  0.5793940000000  0.4249630000000  0.4826620000000 1.0
C      1  0.4169420000000  0.5692160000000  0.4906310000000 1.0
C      1  0.4224850000000  0.4204600000000  0.5216190000000 1.0
C      1  0.4317990000000  0.4869510000000  0.5793820000000 1.0
C      1  0.5805690000000  0.5095850000000  0.5864720000000 1.0
C      1  0.5765160000000  0.4844420000000  0.4102170000000 1.0
C      1  0.4893220000000  0.5798370000000  0.4143700000000 1.0
C      1  0.5087050000000  0.4260280000000  0.4186410000000 1.0
C      1  0.5169840000000  0.5790070000000  0.5804650000000 1.0
C      1  0.5496650000000  0.5543170000000  0.5459530000000 1.0
C      1  0.5753650000000  0.5500750000000  0.5608430000000 1.0
C      1  0.5519200000000  0.5612430000000  0.5727260000000 1.0
C      1  0.5429250000000  0.4433480000000  0.4547530000000 1.0
C      1  0.4441710000000  0.5784620000000  0.4530970000000 1.0
C      1  0.4388210000000  0.4403110000000  0.5356830000000 1.0
C      1  0.5826370000000  0.4631090000000  0.4288220000000 1.0
C      1  0.4439260000000  0.5497700000000  0.4598700000000 1.0
C      1  0.4260500000000  0.4528290000000  0.5595540000000 1.0
C      1  0.5548810000000  0.4556030000000  0.4325100000000 1.0
C      1  0.4631520000000  0.5602110000000  0.4401080000000 1.0
C      1  0.4465080000000  0.4425160000000  0.5758480000000 1.0
C      1  0.4575750000000  0.5581250000000  0.5464980000000 1.0
C      1  0.4184610000000  0.5437590000000  0.5521930000000 1.0
C      1  0.4418510000000  0.5456670000000  0.5677750000000 1.0
C      1  0.4437020000000  0.4283600000000  0.4489310000000 1.0
C      1  0.5614670000000  0.5692820000000  0.4428770000000 1.0
C      1  0.5515050000000  0.4346530000000  0.5398940000000 1.0
C      1  0.4466190000000  0.4568270000000  0.4428230000000 1.0
C      1  0.5745190000000  0.5503250000000  0.4555190000000 1.0
C      1  0.5781040000000  0.4453600000000  0.5386770000000 1.0
C      1  0.4577110000000  0.4365490000000  0.4237250000000 1.0
C      1  0.5449000000000  0.5468730000000  0.4435520000000 1.0
C      1  0.5433840000000  0.4575020000000  0.5556790000000 1.0
C      1  0.5933750000000  0.5555320000000  0.5075010000000 1.0
C      1  0.5543180000000  0.5136280000000  0.5996080000000 1.0
C      1  0.5151000000000  0.5966910000000  0.5555070000000 1.0
C      1  0.5926700000000  0.4506740000000  0.4899620000000 1.0
C      1  0.4005700000000  0.5441410000000  0.4898700000000 1.0
C      1  0.4048750000000  0.4429720000000  0.5112660000000 1.0
C      1  0.5487160000000  0.4884950000000  0.4026650000000 1.0
C      1  0.4428950000000  0.5177380000000  0.4064230000000 1.0
C      1  0.4523950000000  0.4933740000000  0.5973720000000 1.0
C      1  0.5146110000000  0.4040420000000  0.4574210000000 1.0
C      1  0.4904340000000  0.5940920000000  0.4409190000000 1.0
C      1  0.4833330000000  0.4116990000000  0.5544180000000 1.0
C      1  0.3984820000000  0.5444140000000  0.5172230000000 1.0
C      1  0.4485410000000  0.5218560000000  0.5903790000000 1.0
C      1  0.4887320000000  0.5988850000000  0.5443110000000 1.0
C      1  0.4037790000000  0.4445390000000  0.4831490000000 1.0
C      1  0.5938640000000  0.5476410000000  0.4790220000000 1.0
C      1  0.5950340000000  0.4574450000000  0.5186000000000 1.0
C      1  0.4428740000000  0.4888070000000  0.4060170000000 1.0
C      1  0.5426940000000  0.5146600000000  0.4128040000000 1.0
C      1  0.5473450000000  0.4864830000000  0.5959180000000 1.0
C      1  0.4867070000000  0.4018950000000  0.4503830000000 1.0
C      1  0.5171150000000  0.5937540000000  0.4510270000000 1.0
C      1  0.5115840000000  0.4084550000000  0.5561280000000 1.0
C      1  0.5468880000000  0.5969010000000  0.4910670000000 1.0
C      1  0.5928080000000  0.4976320000000  0.5487830000000 1.0
C      1  0.4911220000000  0.5472130000000  0.5912370000000 1.0
C      1  0.5483500000000  0.3974080000000  0.5116510000000 1.0
C      1  0.4500960000000  0.5982600000000  0.5048750000000 1.0
C      1  0.4476470000000  0.4053570000000  0.4834670000000 1.0
C      1  0.6006240000000  0.5064300000000  0.4492580000000 1.0
C      1  0.4037900000000  0.4860250000000  0.4473470000000 1.0
C      1  0.4029850000000  0.5060650000000  0.5595420000000 1.0
C      1  0.4833450000000  0.4548700000000  0.4044520000000 1.0
C      1  0.5133980000000  0.5481650000000  0.4006080000000 1.0
C      1  0.5120160000000  0.4465140000000  0.5973500000000 1.0
C      1  0.4513020000000  0.5964100000000  0.4754240000000 1.0
C      1  0.4073170000000  0.4781760000000  0.5491780000000 1.0
C      1  0.5199170000000  0.5513540000000  0.5925720000000 1.0
C      1  0.4466060000000  0.4075700000000  0.5120020000000 1.0
C      1  0.5509460000000  0.5926240000000  0.5193100000000 1.0
C      1  0.5452990000000  0.4008360000000  0.4836960000000 1.0
C      1  0.4064650000000  0.5137780000000  0.4531510000000 1.0
C      1  0.6006280000000  0.4769230000000  0.4485180000000 1.0
C      1  0.5905420000000  0.5241820000000  0.5618400000000 1.0
C      1  0.5115510000000  0.4512900000000  0.4057050000000 1.0
C      1  0.4849340000000  0.5531440000000  0.4009340000000 1.0
C      1  0.4831530000000  0.4468520000000  0.5949370000000 1.0
C      1  0.5860860000000  0.4743990000000  0.4735960000000 1.0
C      1  0.4763260000000  0.4764210000000  0.5955770000000 1.0
C      1  0.4785830000000  0.5961740000000  0.4682280000000 1.0
C      1  0.5876050000000  0.5312750000000  0.5223080000000 1.0
C      1  0.4032060000000  0.4717270000000  0.5203670000000 1.0
C      1  0.4117580000000  0.5154150000000  0.4829290000000 1.0
C      1  0.4704680000000  0.5274920000000  0.4043850000000 1.0
C      1  0.5304060000000  0.4723120000000  0.4205300000000 1.0
C      1  0.5318060000000  0.5245460000000  0.5835670000000 1.0
C      1  0.4773250000000  0.4146020000000  0.5243360000000 1.0
C      1  0.5252140000000  0.5850530000000  0.5307920000000 1.0
C      1  0.5175920000000  0.4035600000000  0.4852520000000 1.0
C      1  0.4014780000000  0.4719290000000  0.4746350000000 1.0
C      1  0.5209850000000  0.4762370000000  0.5966370000000 1.0
C      1  0.5203970000000  0.5991820000000  0.4795890000000 1.0
C      1  0.4061980000000  0.5239790000000  0.5353450000000 1.0
C      1  0.5975980000000  0.4872930000000  0.5223040000000 1.0
C      1  0.5972650000000  0.5194340000000  0.4761840000000 1.0
C      1  0.5148510000000  0.5192890000000  0.4054890000000 1.0
C      1  0.4724180000000  0.4808370000000  0.4048900000000 1.0
C      1  0.4824620000000  0.5192280000000  0.5851150000000 1.0
C      1  0.5244100000000  0.4062080000000  0.5284040000000 1.0
C      1  0.4780800000000  0.5998980000000  0.5174190000000 1.0
C      1  0.4762900000000  0.4081180000000  0.4776340000000 1.0
C      1  0.4514100000000  0.5099760000000  0.4543570000000 1.0
C      1  0.5162940000000  0.4325470000000  0.4499130000000 1.0
C      1  0.4473740000000  0.4575070000000  0.5134170000000 1.0
C      1  0.4413020000000  0.4907100000000  0.5515600000000 1.0
C      1  0.5303270000000  0.5093000000000  0.5607110000000 1.0
C      1  0.5618650000000  0.4873090000000  0.4606560000000 1.0
C      1  0.5111060000000  0.5601010000000  0.5365830000000 1.0
C      1  0.4904840000000  0.4561210000000  0.5466050000000 1.0
C      1  0.4895350000000  0.5489340000000  0.4444920000000 1.0
C      1  0.4439190000000  0.5576780000000  0.4875150000000 1.0
C      1  0.5545110000000  0.4403430000000  0.4806340000000 1.0
C      1  0.5578350000000  0.5375700000000  0.5182330000000 1.0
C      1  0.5565470000000  0.5107410000000  0.4404310000000 1.0
C      1  0.4930780000000  0.4485010000000  0.4599570000000 1.0
C      1  0.5504960000000  0.4392820000000  0.5091450000000 1.0
C      1  0.5512760000000  0.4859000000000  0.5543420000000 1.0
C      1  0.4552860000000  0.5130030000000  0.5403400000000 1.0
C      1  0.4600150000000  0.4817520000000  0.4505110000000 1.0
C      1  0.4861730000000  0.5586400000000  0.5512630000000 1.0
C      1  0.5165960000000  0.4489910000000  0.5572790000000 1.0
C      1  0.5170910000000  0.5630030000000  0.4436980000000 1.0
C      1  0.5486350000000  0.5514200000000  0.4915500000000 1.0
C      1  0.4508710000000  0.4488160000000  0.4868820000000 1.0
C      1  0.4448130000000  0.5562110000000  0.5178540000000 1.0
C      1  0.5106860000000  0.5087380000000  0.5390970000000 1.0
C      1  0.5088060000000  0.5376170000000  0.5206520000000 1.0
C      1  0.5443280000000  0.5132870000000  0.5098610000000 1.0
C      1  0.5127600000000  0.4884860000000  0.4418980000000 1.0
C      1  0.4936150000000  0.5267730000000  0.4616240000000 1.0
C      1  0.4791760000000  0.4808980000000  0.5420790000000 1.0
C      1  0.5157320000000  0.4724830000000  0.4854610000000 1.0
C      1  0.4945530000000  0.5448990000000  0.4843760000000 1.0
C      1  0.4872100000000  0.4442030000000  0.5205820000000 1.0
C      1  0.5419660000000  0.4847180000000  0.4809980000000 1.0
C      1  0.4450400000000  0.5135270000000  0.4830000000000 1.0
C      1  0.4632210000000  0.4794600000000  0.5191240000000 1.0
C      1  0.4823240000000  0.5079740000000  0.5531390000000 1.0
C      1  0.4830240000000  0.5343700000000  0.5080350000000 1.0
C      1  0.4559330000000  0.5274330000000  0.5137980000000 1.0
C      1  0.4886650000000  0.4741290000000  0.4496580000000 1.0
C      1  0.5176920000000  0.5114110000000  0.4585020000000 1.0
C      1  0.5194120000000  0.4826880000000  0.5250760000000 1.0
C      1  0.4771640000000  0.4383190000000  0.4811000000000 1.0
C      1  0.5205100000000  0.5495760000000  0.4959040000000 1.0
C      1  0.5097840000000  0.4591760000000  0.5106800000000 1.0
C      1  0.4650190000000  0.4933540000000  0.4929900000000 1.0
C      1  0.5377140000000  0.5132770000000  0.4816310000000 1.0
C      1  0.5470070000000  0.4893840000000  0.5244410000000 1.0
C      1  0.5019140000000  0.4027290000000  0.5105170000000 1.0
C      1  0.4019480000000  0.4891610000000  0.4971530000000 1.0
C      1  0.4886720000000  0.5055050000000  0.4056430000000 1.0
C      1  0.4943270000000  0.5978520000000  0.4922340000000 1.0
C      1  0.5955130000000  0.5096300000000  0.5043900000000 1.0
C      1  0.4970780000000  0.4949330000000  0.5962130000000 1.0
C      1  0.4937380000000  0.4925020000000  0.4873360000000 1.0
END
