TITL C-2441162-9305-1045 0.0148129570554957 125000 -12882.8272333486 0 0 95 (C1) n - 1
REM
REM in /home/bkarasulu/work/CARBON/AIRSS/Generating-Clusters/ReaxFF-fromJPCA2015/Units_Real/with-SteepDescent/Higher-Symm
REM
REM
REM
REM
REM
REM ./C.cell (1df0a924f5614ab8850e4351716899ee)
REM
REM compiler GCC version 9.2.1 20190827 (Red Hat 9.2.1-1)
REM options -cpp -mtune=generic -march=x86-64 -g -O0 -fpre-include=/usr/include/finclude/math-vector-fortran.h
REM seed -994892943 177737595 2054358373 -2134765399 -54420813 449704772 205547916 488913465 1635182680 1237416148 1876745120 -824086748 -1259594693 -397782200 -273469527 1385683831 -2121768321 -808870832 -511329232 -1385907215 -2086778668 1405211083 -1019899146 2011163509 183071732 -91171326 -1209876487 -1746695908 -1111994836 2094838422 -712532285 -567096905 1819301541
REM
CELL 1.54180   50.00000   50.00000   50.00000   90.00000   90.00000   90.00000
LATT -1
SFAC C  
C      1  0.5472130000000  0.5546830000000  0.4532000000000 1.0
C      1  0.5637650000000  0.5566870000000  0.5364240000000 1.0
C      1  0.4855960000000  0.5572360000000  0.5728720000000 1.0
C      1  0.4305620000000  0.5554300000000  0.5076570000000 1.0
C      1  0.4710600000000  0.5551390000000  0.4400230000000 1.0
C      1  0.4533440000000  0.4443910000000  0.4512380000000 1.0
C      1  0.4396490000000  0.4439700000000  0.5344000000000 1.0
C      1  0.5149460000000  0.4435290000000  0.5720820000000 1.0
C      1  0.5702190000000  0.4445330000000  0.5063440000000 1.0
C      1  0.5304850000000  0.4445180000000  0.4409720000000 1.0
C      1  0.5314450000000  0.4234760000000  0.4598560000000 1.0
C      1  0.5487010000000  0.4278480000000  0.5175470000000 1.0
C      1  0.4997250000000  0.4289440000000  0.5525260000000 1.0
C      1  0.4499450000000  0.4249050000000  0.5153100000000 1.0
C      1  0.4707670000000  0.4229770000000  0.4577790000000 1.0
C      1  0.4687210000000  0.5765450000000  0.4590760000000 1.0
C      1  0.4517830000000  0.5728620000000  0.5173590000000 1.0
C      1  0.5008430000000  0.5698960000000  0.5519800000000 1.0
C      1  0.5498810000000  0.5763040000000  0.5147490000000 1.0
C      1  0.5296460000000  0.5770240000000  0.4572560000000 1.0
C      1  0.4391540000000  0.4894490000000  0.5434020000000 1.0
C      1  0.4409770000000  0.4892350000000  0.4552540000000 1.0
C      1  0.5222390000000  0.4883430000000  0.4301910000000 1.0
C      1  0.5732130000000  0.4894790000000  0.4990630000000 1.0
C      1  0.5217380000000  0.4900290000000  0.5694090000000 1.0
C      1  0.5616070000000  0.5104360000000  0.5425940000000 1.0
C      1  0.5636360000000  0.5127470000000  0.4512800000000 1.0
C      1  0.4734600000000  0.5131280000000  0.4228860000000 1.0
C      1  0.4235720000000  0.5119750000000  0.5010530000000 1.0
C      1  0.4788040000000  0.5104800000000  0.5705510000000 1.0
C      1  0.5179820000000  0.5179870000000  0.5575120000000 1.0
C      1  0.4492770000000  0.5167020000000  0.5366610000000 1.0
C      1  0.4514090000000  0.5164120000000  0.4624080000000 1.0
C      1  0.5189870000000  0.5153940000000  0.4422900000000 1.0
C      1  0.5611600000000  0.5167920000000  0.5000990000000 1.0
C      1  0.4819990000000  0.4825300000000  0.5603620000000 1.0
C      1  0.5498210000000  0.4836240000000  0.5354550000000 1.0
C      1  0.5634420000000  0.4845710000000  0.4518170000000 1.0
C      1  0.4739170000000  0.4845590000000  0.4234930000000 1.0
C      1  0.4333280000000  0.4840710000000  0.5006650000000 1.0
C      1  0.5089450000000  0.5118630000000  0.4758780000000 1.0
C      1  0.5250870000000  0.5148190000000  0.5062560000000 1.0
C      1  0.5048640000000  0.5255440000000  0.5253690000000 1.0
C      1  0.4777100000000  0.5148420000000  0.5161950000000 1.0
C      1  0.4791200000000  0.5131290000000  0.4827010000000 1.0
C      1  0.4804720000000  0.4834130000000  0.4854740000000 1.0
C      1  0.4728610000000  0.4851520000000  0.5141010000000 1.0
C      1  0.4956600000000  0.4740260000000  0.5287210000000 1.0
C      1  0.5199920000000  0.4855630000000  0.5141920000000 1.0
C      1  0.5099880000000  0.4833990000000  0.4853830000000 1.0
C      1  0.5277090000000  0.4186520000000  0.4326460000000 1.0
C      1  0.5716170000000  0.4171570000000  0.5065600000000 1.0
C      1  0.5159810000000  0.4161610000000  0.5693250000000 1.0
C      1  0.4367100000000  0.4171840000000  0.5386930000000 1.0
C      1  0.4437130000000  0.4190320000000  0.4521290000000 1.0
C      1  0.4722180000000  0.5817560000000  0.4320570000000 1.0
C      1  0.4282920000000  0.5829430000000  0.5067610000000 1.0
C      1  0.4850220000000  0.5841590000000  0.5678680000000 1.0
C      1  0.5628290000000  0.5838010000000  0.5380220000000 1.0
C      1  0.5567430000000  0.5807160000000  0.4521210000000 1.0
C      1  0.4769240000000  0.4295620000000  0.5076040000000 1.0
C      1  0.4860780000000  0.4255590000000  0.4817230000000 1.0
C      1  0.5140080000000  0.4261660000000  0.4823390000000 1.0
C      1  0.5217000000000  0.4311860000000  0.5084000000000 1.0
C      1  0.4985880000000  0.4402380000000  0.5245640000000 1.0
C      1  0.5231250000000  0.5705850000000  0.5066790000000 1.0
C      1  0.5138990000000  0.5746120000000  0.4807280000000 1.0
C      1  0.4860650000000  0.5741680000000  0.4816090000000 1.0
C      1  0.4785200000000  0.5691470000000  0.5077300000000 1.0
C      1  0.5015170000000  0.5594690000000  0.5234900000000 1.0
C      1  0.5010960000000  0.5212410000000  0.4161490000000 1.0
C      1  0.5800460000000  0.5219930000000  0.4746150000000 1.0
C      1  0.5479710000000  0.5214170000000  0.5666010000000 1.0
C      1  0.4512730000000  0.5205620000000  0.5684100000000 1.0
C      1  0.4212110000000  0.5209660000000  0.4729770000000 1.0
C      1  0.5006190000000  0.4790110000000  0.4121120000000 1.0
C      1  0.4208120000000  0.4785750000000  0.4740650000000 1.0
C      1  0.4508990000000  0.4785970000000  0.5680260000000 1.0
C      1  0.5487410000000  0.4787050000000  0.5660030000000 1.0
C      1  0.5847980000000  0.4800700000000  0.4726290000000 1.0
C      1  0.4552240000000  0.4709730000000  0.4396090000000 1.0
C      1  0.5424790000000  0.4708250000000  0.4390540000000 1.0
C      1  0.5693920000000  0.4704060000000  0.5185440000000 1.0
C      1  0.5034550000000  0.4698220000000  0.5752220000000 1.0
C      1  0.4299390000000  0.4699660000000  0.5259160000000 1.0
C      1  0.5437900000000  0.5288150000000  0.4427250000000 1.0
C      1  0.4591050000000  0.5297830000000  0.4390530000000 1.0
C      1  0.4289920000000  0.5304710000000  0.5210440000000 1.0
C      1  0.4971700000000  0.5306750000000  0.5736630000000 1.0
C      1  0.5705620000000  0.5305470000000  0.5246570000000 1.0
C      1  0.5056840000000  0.5025330000000  0.3933560000000 1.0
C      1  0.4398780000000  0.4995030000000  0.5836520000000 1.0
C      1  0.6015160000000  0.5034370000000  0.4718690000000 1.0
C      1  0.5603840000000  0.5003030000000  0.5839820000000 1.0
C      1  0.4009870000000  0.5002140000000  0.4656520000000 1.0
END
