TITL C-2441157-2117-1355 0.188705930157954 125000 -20684.73902166 0 0 174 (C1) n - 1
REM
REM in /home/bkarasulu/work/CARBON/AIRSS/Generating-Clusters/ReaxFF-fromJPCA2015/Units_Real/with-SteepDescent/Higher-Symm
REM
REM
REM
REM
REM
REM ./C.cell (1df0a924f5614ab8850e4351716899ee)
REM
REM compiler GCC version 9.2.1 20190827 (Red Hat 9.2.1-1)
REM options -cpp -mtune=generic -march=x86-64 -g -O0 -fpre-include=/usr/include/finclude/math-vector-fortran.h
REM seed -1719800953 -2087906269 16956845 -541502369 -578061715 -439867254 -49730629 1319567773 1598049663 48719738 51248994 1358462677 2093966552 1478212646 29171900 -781053334 -2095319934 1031535540 2015783618 364638735 -650013085 2097578177 -273679387 -1599764652 -1295488696 779233425 -1419606331 -917950943 -1690693916 929906136 -1435531468 -1848092630 -940075025
REM
CELL 1.54180   50.00000   50.00000   50.00000   90.00000   90.00000   90.00000
LATT -1
SFAC C  
C      1  0.4510920000000  0.4764910000000  0.4663510000000 1.0
C      1  0.5150830000000  0.5462170000000  0.4568080000000 1.0
C      1  0.5480040000000  0.4742310000000  0.4686770000000 1.0
C      1  0.4548650000000  0.5300380000000  0.5331970000000 1.0
C      1  0.5043330000000  0.4500570000000  0.5410330000000 1.0
C      1  0.5410600000000  0.5227340000000  0.5432200000000 1.0
C      1  0.5311910000000  0.5427710000000  0.4770350000000 1.0
C      1  0.5158720000000  0.4543640000000  0.4794340000000 1.0
C      1  0.4465120000000  0.5029280000000  0.4761810000000 1.0
C      1  0.5295640000000  0.4547400000000  0.5271990000000 1.0
C      1  0.5254330000000  0.5481570000000  0.5336760000000 1.0
C      1  0.4480420000000  0.4814120000000  0.5152440000000 1.0
C      1  0.5474810000000  0.5185360000000  0.4717510000000 1.0
C      1  0.4882120000000  0.4509510000000  0.4764150000000 1.0
C      1  0.4592900000000  0.5290110000000  0.4707960000000 1.0
C      1  0.5468730000000  0.4782260000000  0.5266500000000 1.0
C      1  0.4940260000000  0.5522460000000  0.5247770000000 1.0
C      1  0.4609990000000  0.4619200000000  0.5300350000000 1.0
C      1  0.5107010000000  0.4026180000000  0.4900060000000 1.0
C      1  0.4085920000000  0.5427610000000  0.4883570000000 1.0
C      1  0.5823660000000  0.5594440000000  0.4892540000000 1.0
C      1  0.5079880000000  0.5998850000000  0.5136510000000 1.0
C      1  0.4084580000000  0.4567130000000  0.5114440000000 1.0
C      1  0.5819910000000  0.4397630000000  0.5118160000000 1.0
C      1  0.5404970000000  0.5598230000000  0.4410190000000 1.0
C      1  0.5269450000000  0.4414850000000  0.4439080000000 1.0
C      1  0.4353020000000  0.5051670000000  0.4409690000000 1.0
C      1  0.5431020000000  0.4298590000000  0.5573340000000 1.0
C      1  0.5258230000000  0.5651230000000  0.5562670000000 1.0
C      1  0.4353950000000  0.4931720000000  0.5566780000000 1.0
C      1  0.4188040000000  0.5287780000000  0.4452550000000 1.0
C      1  0.5677220000000  0.5598620000000  0.4490080000000 1.0
C      1  0.5163450000000  0.4153870000000  0.4518040000000 1.0
C      1  0.4178090000000  0.4706540000000  0.5533010000000 1.0
C      1  0.5662350000000  0.4423990000000  0.5509170000000 1.0
C      1  0.5165930000000  0.5911570000000  0.5443720000000 1.0
C      1  0.5554440000000  0.4824820000000  0.4177930000000 1.0
C      1  0.4570720000000  0.4615060000000  0.4123190000000 1.0
C      1  0.4843890000000  0.5566470000000  0.4157610000000 1.0
C      1  0.5572790000000  0.5138160000000  0.5865780000000 1.0
C      1  0.4565940000000  0.5410200000000  0.5888290000000 1.0
C      1  0.4872250000000  0.4444060000000  0.5866430000000 1.0
C      1  0.4887930000000  0.4258680000000  0.5479910000000 1.0
C      1  0.4427540000000  0.5513040000000  0.5498920000000 1.0
C      1  0.5698560000000  0.5263580000000  0.5469340000000 1.0
C      1  0.4810580000000  0.5803990000000  0.4461170000000 1.0
C      1  0.4413460000000  0.4535590000000  0.4521170000000 1.0
C      1  0.5704010000000  0.4749260000000  0.4492550000000 1.0
C      1  0.5554800000000  0.5431850000000  0.5838570000000 1.0
C      1  0.5118320000000  0.4284880000000  0.5845350000000 1.0
C      1  0.4321270000000  0.5249080000000  0.5839970000000 1.0
C      1  0.5549170000000  0.4514250000000  0.4169030000000 1.0
C      1  0.5100730000000  0.5707810000000  0.4159960000000 1.0
C      1  0.4310640000000  0.4748090000000  0.4151810000000 1.0
C      1  0.4671020000000  0.4224260000000  0.4420980000000 1.0
C      1  0.4409230000000  0.5732190000000  0.4515130000000 1.0
C      1  0.5953730000000  0.5143270000000  0.4498720000000 1.0
C      1  0.4690190000000  0.5784830000000  0.5609270000000 1.0
C      1  0.4401200000000  0.4258330000000  0.5486760000000 1.0
C      1  0.5920970000000  0.4844920000000  0.5500080000000 1.0
C      1  0.5698340000000  0.4717100000000  0.5506020000000 1.0
C      1  0.4405400000000  0.4486520000000  0.5536040000000 1.0
C      1  0.4897750000000  0.5757520000000  0.5420520000000 1.0
C      1  0.5701030000000  0.5279060000000  0.4469300000000 1.0
C      1  0.4426210000000  0.5476700000000  0.4472180000000 1.0
C      1  0.4899980000000  0.4266820000000  0.4592560000000 1.0
C      1  0.4813280000000  0.4891140000000  0.4928330000000 1.0
C      1  0.4979920000000  0.5295770000000  0.4920540000000 1.0
C      1  0.5242560000000  0.4884060000000  0.4946300000000 1.0
C      1  0.4769700000000  0.5152270000000  0.5055870000000 1.0
C      1  0.4977020000000  0.4790830000000  0.5117420000000 1.0
C      1  0.5237090000000  0.5142220000000  0.5055560000000 1.0
C      1  0.5972150000000  0.4659570000000  0.5133520000000 1.0
C      1  0.4226530000000  0.4305480000000  0.5114390000000 1.0
C      1  0.4796180000000  0.6058180000000  0.5100130000000 1.0
C      1  0.5984350000000  0.5335130000000  0.4872080000000 1.0
C      1  0.4223260000000  0.5692210000000  0.4881520000000 1.0
C      1  0.4817800000000  0.3961770000000  0.4894840000000 1.0
C      1  0.5379000000000  0.5270120000000  0.4149540000000 1.0
C      1  0.5020480000000  0.4436090000000  0.4133070000000 1.0
C      1  0.4511810000000  0.5234900000000  0.4099400000000 1.0
C      1  0.5459820000000  0.4682350000000  0.5852960000000 1.0
C      1  0.5021740000000  0.5584350000000  0.5903980000000 1.0
C      1  0.4509650000000  0.4731310000000  0.5877670000000 1.0
C      1  0.5354820000000  0.5571990000000  0.4125310000000 1.0
C      1  0.5308190000000  0.4346900000000  0.4152470000000 1.0
C      1  0.4281010000000  0.5046460000000  0.4127550000000 1.0
C      1  0.5403600000000  0.4386760000000  0.5828780000000 1.0
C      1  0.5311130000000  0.5610290000000  0.5840440000000 1.0
C      1  0.4299130000000  0.4949780000000  0.5853950000000 1.0
C      1  0.4042770000000  0.4791870000000  0.5291530000000 1.0
C      1  0.5447070000000  0.5889540000000  0.5300550000000 1.0
C      1  0.5634300000000  0.4236970000000  0.5245170000000 1.0
C      1  0.4045820000000  0.5207640000000  0.4697300000000 1.0
C      1  0.5405520000000  0.4118240000000  0.4683080000000 1.0
C      1  0.5640970000000  0.5754610000000  0.4732770000000 1.0
C      1  0.5907400000000  0.4944740000000  0.5120530000000 1.0
C      1  0.4507110000000  0.4222020000000  0.5100360000000 1.0
C      1  0.4587380000000  0.5853690000000  0.5148600000000 1.0
C      1  0.5903940000000  0.5051930000000  0.4880070000000 1.0
C      1  0.4505930000000  0.5757160000000  0.4901310000000 1.0
C      1  0.4597270000000  0.4152750000000  0.4852500000000 1.0
C      1  0.5246990000000  0.5017870000000  0.5314260000000 1.0
C      1  0.4957210000000  0.4945520000000  0.5373850000000 1.0
C      1  0.4825840000000  0.5206240000000  0.5335840000000 1.0
C      1  0.5247650000000  0.4926520000000  0.4657440000000 1.0
C      1  0.4880980000000  0.5214200000000  0.4657610000000 1.0
C      1  0.4947650000000  0.4927890000000  0.4664360000000 1.0
C      1  0.5091460000000  0.4102580000000  0.5618690000000 1.0
C      1  0.4210320000000  0.5336630000000  0.5586860000000 1.0
C      1  0.5707820000000  0.5521620000000  0.5601810000000 1.0
C      1  0.5079940000000  0.5858180000000  0.4411510000000 1.0
C      1  0.4181570000000  0.4667900000000  0.4404500000000 1.0
C      1  0.5700030000000  0.4463920000000  0.4407800000000 1.0
C      1  0.5283920000000  0.5927470000000  0.4626410000000 1.0
C      1  0.5657230000000  0.4277820000000  0.4626180000000 1.0
C      1  0.4073560000000  0.4799660000000  0.4649250000000 1.0
C      1  0.5307390000000  0.4078570000000  0.5427880000000 1.0
C      1  0.5674720000000  0.5724750000000  0.5390050000000 1.0
C      1  0.4105590000000  0.5192200000000  0.5350660000000 1.0
C      1  0.5363490000000  0.5668110000000  0.5134900000000 1.0
C      1  0.5398310000000  0.4338370000000  0.5118910000000 1.0
C      1  0.4218860000000  0.4979820000000  0.5164310000000 1.0
C      1  0.5341240000000  0.4345230000000  0.4858720000000 1.0
C      1  0.5410650000000  0.5643990000000  0.4879330000000 1.0
C      1  0.4188980000000  0.5002010000000  0.4830240000000 1.0
C      1  0.4818720000000  0.6033260000000  0.4812650000000 1.0
C      1  0.5989790000000  0.4644500000000  0.4842630000000 1.0
C      1  0.4198200000000  0.4302140000000  0.4818730000000 1.0
C      1  0.4829260000000  0.3952420000000  0.5188300000000 1.0
C      1  0.6004400000000  0.5346080000000  0.5165660000000 1.0
C      1  0.4188980000000  0.5695140000000  0.5176280000000 1.0
C      1  0.5967060000000  0.4875260000000  0.4619710000000 1.0
C      1  0.4421920000000  0.4223310000000  0.4617860000000 1.0
C      1  0.4591520000000  0.5916900000000  0.4623710000000 1.0
C      1  0.5939550000000  0.5101010000000  0.5386790000000 1.0
C      1  0.4396440000000  0.5779050000000  0.5362860000000 1.0
C      1  0.4625260000000  0.4121350000000  0.5367210000000 1.0
C      1  0.5248790000000  0.4746960000000  0.5663670000000 1.0
C      1  0.4638240000000  0.4865190000000  0.5613250000000 1.0
C      1  0.5017400000000  0.5356210000000  0.5731390000000 1.0
C      1  0.5173350000000  0.5277360000000  0.4373580000000 1.0
C      1  0.4639210000000  0.5077800000000  0.4317820000000 1.0
C      1  0.5088190000000  0.4633210000000  0.4347330000000 1.0
C      1  0.4575190000000  0.4459270000000  0.5806740000000 1.0
C      1  0.4733370000000  0.5658150000000  0.5861350000000 1.0
C      1  0.5681540000000  0.4871160000000  0.5801420000000 1.0
C      1  0.4556260000000  0.5506630000000  0.4196200000000 1.0
C      1  0.4733200000000  0.4370200000000  0.4174270000000 1.0
C      1  0.5617620000000  0.5121420000000  0.4219540000000 1.0
C      1  0.4614010000000  0.4695570000000  0.4906790000000 1.0
C      1  0.4947220000000  0.5580240000000  0.4962390000000 1.0
C      1  0.5520020000000  0.4783800000000  0.4970400000000 1.0
C      1  0.4522320000000  0.5305540000000  0.5056940000000 1.0
C      1  0.4865460000000  0.4521530000000  0.5169620000000 1.0
C      1  0.5532570000000  0.5217140000000  0.5009110000000 1.0
C      1  0.5810400000000  0.4420090000000  0.4832410000000 1.0
C      1  0.4085490000000  0.4568460000000  0.4828010000000 1.0
C      1  0.5063600000000  0.5859490000000  0.4862450000000 1.0
C      1  0.5826370000000  0.5573440000000  0.5178450000000 1.0
C      1  0.4099880000000  0.5421660000000  0.5168310000000 1.0
C      1  0.5113340000000  0.4030820000000  0.5185030000000 1.0
C      1  0.4746090000000  0.5039580000000  0.5811460000000 1.0
C      1  0.5140770000000  0.5150240000000  0.5859850000000 1.0
C      1  0.4971660000000  0.4942380000000  0.5956050000000 1.0
C      1  0.4881570000000  0.4915610000000  0.4005490000000 1.0
C      1  0.5163410000000  0.4922840000000  0.4006090000000 1.0
C      1  0.5014250000000  0.5169060000000  0.3994960000000 1.0
C      1  0.5000430000000  0.4699130000000  0.5800880000000 1.0
C      1  0.4763310000000  0.5283160000000  0.5730430000000 1.0
C      1  0.5337770000000  0.5045360000000  0.5693170000000 1.0
C      1  0.4920200000000  0.5287260000000  0.4246860000000 1.0
C      1  0.4752190000000  0.4810220000000  0.4244670000000 1.0
C      1  0.5269000000000  0.4834030000000  0.4247570000000 1.0
END
