TITL C-2441164-471-998 0.0260178266856854 125000 -13598.0239098202 0 0 104 (C1) n - 1
REM
REM in /home/bkarasulu/work/CARBON/AIRSS/Generating-Clusters/ReaxFF-fromJPCA2015/Units_Real/with-SteepDescent/Higher-Symm
REM
REM
REM
REM
REM
REM ./C.cell (1df0a924f5614ab8850e4351716899ee)
REM
REM compiler GCC version 9.2.1 20190827 (Red Hat 9.2.1-1)
REM options -cpp -mtune=generic -march=x86-64 -g -O0 -fpre-include=/usr/include/finclude/math-vector-fortran.h
REM seed -1590325141 1566906789 826394799 -689176016 831905688 -1396425433 -290154808 -515467246 2002881081 -184725145 1214485849 -1801292118 1835482657 980634639 9641487 -2137964364 -680106964 -1252550703 -71673101 845762581 -1323038788 18475995 -639755560 745135089 -193752433 1891654659 1450912545 837615055 1357650198 -1888572055 1524879033 -1219335724 -88326394
REM
CELL 1.54180   50.00000   50.00000   50.00000   90.00000   90.00000   90.00000
LATT -1
SFAC C  
C      1  0.4529580000000  0.4283900000000  0.4844330000000 1.0
C      1  0.4308720000000  0.4867510000000  0.4491230000000 1.0
C      1  0.4858620000000  0.4479720000000  0.4262290000000 1.0
C      1  0.4476530000000  0.5702090000000  0.5131560000000 1.0
C      1  0.5539430000000  0.4275940000000  0.5137780000000 1.0
C      1  0.5492230000000  0.5721720000000  0.4860270000000 1.0
C      1  0.4289530000000  0.5137030000000  0.5533660000000 1.0
C      1  0.5727050000000  0.4858500000000  0.5524760000000 1.0
C      1  0.5749360000000  0.5151830000000  0.4496640000000 1.0
C      1  0.4867170000000  0.5535060000000  0.5720620000000 1.0
C      1  0.5131010000000  0.4534680000000  0.5696100000000 1.0
C      1  0.5148940000000  0.5482720000000  0.4303590000000 1.0
C      1  0.5478800000000  0.4270470000000  0.4855030000000 1.0
C      1  0.5726620000000  0.4858200000000  0.4474940000000 1.0
C      1  0.5132880000000  0.4535440000000  0.4293180000000 1.0
C      1  0.5540540000000  0.5722880000000  0.5141530000000 1.0
C      1  0.4483430000000  0.4298130000000  0.5127090000000 1.0
C      1  0.4504160000000  0.5722750000000  0.4847020000000 1.0
C      1  0.5734420000000  0.5148150000000  0.5503840000000 1.0
C      1  0.4296530000000  0.4856740000000  0.5543180000000 1.0
C      1  0.4279410000000  0.5141380000000  0.4470410000000 1.0
C      1  0.5138180000000  0.5476140000000  0.5688690000000 1.0
C      1  0.4864240000000  0.4472510000000  0.5720460000000 1.0
C      1  0.4866230000000  0.5508630000000  0.4276100000000 1.0
C      1  0.4765500000000  0.5576830000000  0.4557560000000 1.0
C      1  0.5584460000000  0.4577090000000  0.4767930000000 1.0
C      1  0.4579320000000  0.4767660000000  0.5606980000000 1.0
C      1  0.4769250000000  0.4394420000000  0.5442800000000 1.0
C      1  0.5236050000000  0.5604990000000  0.5423270000000 1.0
C      1  0.5215630000000  0.4414820000000  0.4570040000000 1.0
C      1  0.5603850000000  0.5441960000000  0.5230660000000 1.0
C      1  0.4396820000000  0.4604370000000  0.5225580000000 1.0
C      1  0.4386360000000  0.5395350000000  0.4779340000000 1.0
C      1  0.4556860000000  0.5228490000000  0.4385550000000 1.0
C      1  0.5458500000000  0.4766320000000  0.4384170000000 1.0
C      1  0.5466010000000  0.5233630000000  0.5615540000000 1.0
C      1  0.5224870000000  0.5589000000000  0.4570640000000 1.0
C      1  0.4406790000000  0.4585080000000  0.4769410000000 1.0
C      1  0.5458360000000  0.4770150000000  0.5617670000000 1.0
C      1  0.5230870000000  0.4398830000000  0.5419780000000 1.0
C      1  0.4766780000000  0.5604920000000  0.5438080000000 1.0
C      1  0.4767890000000  0.4398210000000  0.4534110000000 1.0
C      1  0.4399480000000  0.5403380000000  0.5235500000000 1.0
C      1  0.5600280000000  0.4565500000000  0.5230840000000 1.0
C      1  0.5598670000000  0.5443850000000  0.4772700000000 1.0
C      1  0.5481490000000  0.5246310000000  0.4385610000000 1.0
C      1  0.4581570000000  0.4765620000000  0.4388940000000 1.0
C      1  0.4588190000000  0.5222080000000  0.5620590000000 1.0
C      1  0.5791510000000  0.5123510000000  0.5213930000000 1.0
C      1  0.5092280000000  0.5195490000000  0.5789570000000 1.0
C      1  0.5261680000000  0.5814400000000  0.5188200000000 1.0
C      1  0.5795190000000  0.4837150000000  0.4762420000000 1.0
C      1  0.4188710000000  0.5154040000000  0.4750300000000 1.0
C      1  0.4188860000000  0.4841000000000  0.5265920000000 1.0
C      1  0.5092840000000  0.4811510000000  0.4202200000000 1.0
C      1  0.4852780000000  0.5251700000000  0.4140170000000 1.0
C      1  0.4801890000000  0.4748240000000  0.5816390000000 1.0
C      1  0.5198270000000  0.4191690000000  0.4916670000000 1.0
C      1  0.4791700000000  0.5777210000000  0.4876480000000 1.0
C      1  0.4750820000000  0.4193820000000  0.5182100000000 1.0
C      1  0.4191390000000  0.5132620000000  0.5262040000000 1.0
C      1  0.4818310000000  0.5268760000000  0.5841160000000 1.0
C      1  0.4751360000000  0.5796220000000  0.5165120000000 1.0
C      1  0.4196030000000  0.4868170000000  0.4757820000000 1.0
C      1  0.5792860000000  0.5123760000000  0.4787720000000 1.0
C      1  0.5801980000000  0.4837710000000  0.5239350000000 1.0
C      1  0.4806620000000  0.4763300000000  0.4186670000000 1.0
C      1  0.5122600000000  0.5190480000000  0.4198560000000 1.0
C      1  0.5089460000000  0.4806010000000  0.5799240000000 1.0
C      1  0.4819420000000  0.4220320000000  0.4900640000000 1.0
C      1  0.5213640000000  0.5799260000000  0.4903310000000 1.0
C      1  0.5266970000000  0.4176300000000  0.5201240000000 1.0
C      1  0.5356850000000  0.5253480000000  0.4832630000000 1.0
C      1  0.5231840000000  0.4868200000000  0.5426560000000 1.0
C      1  0.4854890000000  0.5335180000000  0.5254010000000 1.0
C      1  0.5344420000000  0.4745310000000  0.5145870000000 1.0
C      1  0.4598020000000  0.5189100000000  0.5150720000000 1.0
C      1  0.4602290000000  0.4788980000000  0.4853050000000 1.0
C      1  0.5303930000000  0.5140900000000  0.4584290000000 1.0
C      1  0.4924240000000  0.4876880000000  0.4566840000000 1.0
C      1  0.4860170000000  0.5128560000000  0.5459520000000 1.0
C      1  0.4846990000000  0.4648350000000  0.4730240000000 1.0
C      1  0.5114160000000  0.5420660000000  0.4827120000000 1.0
C      1  0.5108690000000  0.4565430000000  0.5131590000000 1.0
C      1  0.4591450000000  0.5199450000000  0.4868120000000 1.0
C      1  0.4926640000000  0.4863940000000  0.5433190000000 1.0
C      1  0.5107020000000  0.5423120000000  0.5123340000000 1.0
C      1  0.4606090000000  0.4828120000000  0.5137360000000 1.0
C      1  0.5346660000000  0.5255380000000  0.5165650000000 1.0
C      1  0.5344880000000  0.4750390000000  0.4844700000000 1.0
C      1  0.4798860000000  0.5125220000000  0.4530220000000 1.0
C      1  0.5227290000000  0.4880070000000  0.4578930000000 1.0
C      1  0.5256720000000  0.5148390000000  0.5423540000000 1.0
C      1  0.5115440000000  0.4569140000000  0.4830000000000 1.0
C      1  0.4845150000000  0.5336380000000  0.4732550000000 1.0
C      1  0.4849710000000  0.4656250000000  0.5248360000000 1.0
C      1  0.5489680000000  0.4509560000000  0.5496680000000 1.0
C      1  0.4511890000000  0.5477650000000  0.5491170000000 1.0
C      1  0.5499000000000  0.5512420000000  0.4507950000000 1.0
C      1  0.4497840000000  0.5484160000000  0.4518520000000 1.0
C      1  0.5483330000000  0.4502590000000  0.4505120000000 1.0
C      1  0.4516320000000  0.4522390000000  0.5477960000000 1.0
C      1  0.4500840000000  0.4511480000000  0.4504320000000 1.0
C      1  0.5499590000000  0.5501640000000  0.5498240000000 1.0
END
