TITL C-2441167-4473-703 0.120677219387226 125000 -18467.2489662476 0 0 144 (C1) n - 1
REM
REM in /home/bkarasulu/work/CARBON/AIRSS/Generating-Clusters/ReaxFF-fromJPCA2015/Units_Real/with-SteepDescent/Higher-Symm
REM
REM
REM
REM
REM
REM ./C.cell (1df0a924f5614ab8850e4351716899ee)
REM
REM compiler GCC version 9.2.1 20190827 (Red Hat 9.2.1-1)
REM options -cpp -mtune=generic -march=x86-64 -g -O0 -fpre-include=/usr/include/finclude/math-vector-fortran.h
REM seed -1043149044 1264275349 -1252592572 -2097546611 -857783302 -1762851708 446645265 1649411297 -926565127 879321906 1855957197 -706616306 790771013 -125265735 2120331059 -136076181 674670269 -1232178820 -1234546384 -1627581995 -1938639660 -263010999 22208415 -246888518 -894789100 945045383 -288091224 1711337438 -552248708 393940362 1859343084 262707812 739215743
REM
CELL 1.54180   50.00000   50.00000   50.00000   90.00000   90.00000   90.00000
LATT -1
SFAC C  
C      1  0.5325640000000  0.4422610000000  0.5138190000000 1.0
C      1  0.5769480000000  0.5006240000000  0.5089460000000 1.0
C      1  0.5229260000000  0.5671990000000  0.5111690000000 1.0
C      1  0.4799240000000  0.5724720000000  0.5088980000000 1.0
C      1  0.4433820000000  0.5413280000000  0.5098720000000 1.0
C      1  0.4391220000000  0.4743430000000  0.5106440000000 1.0
C      1  0.4690030000000  0.4275150000000  0.5182200000000 1.0
C      1  0.4409730000000  0.5627390000000  0.5297850000000 1.0
C      1  0.4077960000000  0.4968840000000  0.5365180000000 1.0
C      1  0.4485730000000  0.4260910000000  0.5385220000000 1.0
C      1  0.5224210000000  0.4188770000000  0.5320120000000 1.0
C      1  0.5763110000000  0.4737860000000  0.5250490000000 1.0
C      1  0.5779520000000  0.5424020000000  0.5377960000000 1.0
C      1  0.5170430000000  0.5831470000000  0.5346430000000 1.0
C      1  0.5181130000000  0.4282770000000  0.4209590000000 1.0
C      1  0.5686570000000  0.4577140000000  0.4279750000000 1.0
C      1  0.5715380000000  0.5397460000000  0.4309380000000 1.0
C      1  0.5246300000000  0.5751580000000  0.4218930000000 1.0
C      1  0.4472330000000  0.5716720000000  0.4350490000000 1.0
C      1  0.4206240000000  0.4960840000000  0.4311900000000 1.0
C      1  0.4539660000000  0.4448210000000  0.4213110000000 1.0
C      1  0.5464430000000  0.5893480000000  0.5348100000000 1.0
C      1  0.4650900000000  0.5815720000000  0.5312690000000 1.0
C      1  0.4051720000000  0.5226640000000  0.5289110000000 1.0
C      1  0.4245360000000  0.4417800000000  0.5327870000000 1.0
C      1  0.4934950000000  0.4115270000000  0.5237380000000 1.0
C      1  0.5630290000000  0.4500180000000  0.5162260000000 1.0
C      1  0.5887980000000  0.5163310000000  0.5311280000000 1.0
C      1  0.4953070000000  0.5385870000000  0.4848950000000 1.0
C      1  0.4672690000000  0.5303020000000  0.4783140000000 1.0
C      1  0.4532480000000  0.5007270000000  0.4772910000000 1.0
C      1  0.4893060000000  0.4762360000000  0.4878470000000 1.0
C      1  0.5304610000000  0.4733630000000  0.4746510000000 1.0
C      1  0.5406270000000  0.4951440000000  0.4895580000000 1.0
C      1  0.5437050000000  0.5230680000000  0.4790000000000 1.0
C      1  0.5322870000000  0.4572220000000  0.5539050000000 1.0
C      1  0.5591520000000  0.4979860000000  0.5585560000000 1.0
C      1  0.5335500000000  0.5351790000000  0.5513850000000 1.0
C      1  0.4868550000000  0.5567960000000  0.5567110000000 1.0
C      1  0.4478800000000  0.5237400000000  0.5530510000000 1.0
C      1  0.4500930000000  0.4768520000000  0.5534760000000 1.0
C      1  0.4867010000000  0.4412210000000  0.5577900000000 1.0
C      1  0.5721860000000  0.4740890000000  0.4501090000000 1.0
C      1  0.5728310000000  0.5502800000000  0.4555160000000 1.0
C      1  0.5093750000000  0.5867800000000  0.4694840000000 1.0
C      1  0.4343910000000  0.5621390000000  0.4588190000000 1.0
C      1  0.4074310000000  0.4803830000000  0.4505180000000 1.0
C      1  0.4604010000000  0.4317920000000  0.4691690000000 1.0
C      1  0.5306870000000  0.4241770000000  0.4674420000000 1.0
C      1  0.5719840000000  0.4405580000000  0.4898400000000 1.0
C      1  0.5955430000000  0.5099240000000  0.4906290000000 1.0
C      1  0.5456890000000  0.5816090000000  0.5062380000000 1.0
C      1  0.4622650000000  0.5833200000000  0.4900140000000 1.0
C      1  0.4144710000000  0.5321890000000  0.5019370000000 1.0
C      1  0.4287290000000  0.4478880000000  0.5046270000000 1.0
C      1  0.4971620000000  0.4075420000000  0.4956000000000 1.0
C      1  0.5190140000000  0.4262160000000  0.4923270000000 1.0
C      1  0.5791710000000  0.4648590000000  0.4750560000000 1.0
C      1  0.5652160000000  0.5421220000000  0.4827860000000 1.0
C      1  0.5026570000000  0.5648420000000  0.4936760000000 1.0
C      1  0.4512210000000  0.5560310000000  0.4824850000000 1.0
C      1  0.4299840000000  0.4889610000000  0.4897210000000 1.0
C      1  0.4543010000000  0.4363800000000  0.4955270000000 1.0
C      1  0.5123060000000  0.5479760000000  0.5671150000000 1.0
C      1  0.4639310000000  0.5430160000000  0.5681710000000 1.0
C      1  0.4475190000000  0.5001280000000  0.5690190000000 1.0
C      1  0.4691020000000  0.4620190000000  0.5678180000000 1.0
C      1  0.5118070000000  0.4496180000000  0.5711940000000 1.0
C      1  0.5510860000000  0.4736850000000  0.5683790000000 1.0
C      1  0.5509710000000  0.5218410000000  0.5707370000000 1.0
C      1  0.5602850000000  0.5759740000000  0.4600510000000 1.0
C      1  0.4891510000000  0.5920100000000  0.4486920000000 1.0
C      1  0.4136850000000  0.5432570000000  0.4505430000000 1.0
C      1  0.4191820000000  0.4554560000000  0.4552980000000 1.0
C      1  0.4836020000000  0.4051630000000  0.4492370000000 1.0
C      1  0.5600220000000  0.4234260000000  0.4538780000000 1.0
C      1  0.5884840000000  0.4979290000000  0.4519220000000 1.0
C      1  0.4997850000000  0.4155160000000  0.4356030000000 1.0
C      1  0.5503690000000  0.4325600000000  0.4273410000000 1.0
C      1  0.5808930000000  0.5134850000000  0.4283500000000 1.0
C      1  0.5328230000000  0.5804320000000  0.4496190000000 1.0
C      1  0.4748680000000  0.5723600000000  0.4365260000000 1.0
C      1  0.4246080000000  0.5237640000000  0.4296380000000 1.0
C      1  0.4437700000000  0.4425980000000  0.4480450000000 1.0
C      1  0.4902740000000  0.5827510000000  0.5463210000000 1.0
C      1  0.4207610000000  0.5450760000000  0.5464420000000 1.0
C      1  0.4165890000000  0.4688340000000  0.5473080000000 1.0
C      1  0.4698020000000  0.4164900000000  0.5589570000000 1.0
C      1  0.5393840000000  0.4244910000000  0.5547170000000 1.0
C      1  0.5819580000000  0.4910960000000  0.5484480000000 1.0
C      1  0.5643320000000  0.5672370000000  0.5437880000000 1.0
C      1  0.4893740000000  0.4686100000000  0.5165910000000 1.0
C      1  0.5178780000000  0.4697280000000  0.5262230000000 1.0
C      1  0.5350060000000  0.4935620000000  0.5180860000000 1.0
C      1  0.5324630000000  0.5211410000000  0.5258400000000 1.0
C      1  0.5069030000000  0.5214750000000  0.5074370000000 1.0
C      1  0.4610560000000  0.5156150000000  0.5269610000000 1.0
C      1  0.4625200000000  0.4834310000000  0.5255230000000 1.0
C      1  0.5561200000000  0.4192570000000  0.4791560000000 1.0
C      1  0.6002990000000  0.4859970000000  0.4767810000000 1.0
C      1  0.5626760000000  0.5709480000000  0.4885180000000 1.0
C      1  0.4817150000000  0.5981040000000  0.4746590000000 1.0
C      1  0.4059810000000  0.5395580000000  0.4772560000000 1.0
C      1  0.4117040000000  0.4715130000000  0.4769960000000 1.0
C      1  0.4744850000000  0.4073480000000  0.4754840000000 1.0
C      1  0.5223730000000  0.5472500000000  0.4106380000000 1.0
C      1  0.4636000000000  0.5646720000000  0.4134320000000 1.0
C      1  0.4474060000000  0.5212210000000  0.4124230000000 1.0
C      1  0.4555850000000  0.4685460000000  0.4073770000000 1.0
C      1  0.5065540000000  0.4492350000000  0.4059530000000 1.0
C      1  0.5532440000000  0.4532460000000  0.4056560000000 1.0
C      1  0.5586920000000  0.5078420000000  0.4096720000000 1.0
C      1  0.4722200000000  0.5306800000000  0.5919120000000 1.0
C      1  0.4649280000000  0.5015850000000  0.5915240000000 1.0
C      1  0.4807260000000  0.4762410000000  0.5886470000000 1.0
C      1  0.5092710000000  0.4682310000000  0.5930210000000 1.0
C      1  0.5362480000000  0.4807730000000  0.5926920000000 1.0
C      1  0.5380160000000  0.5093020000000  0.5930340000000 1.0
C      1  0.4997390000000  0.5386510000000  0.5907740000000 1.0
C      1  0.5194970000000  0.4542560000000  0.4608310000000 1.0
C      1  0.5280460000000  0.4982930000000  0.4426120000000 1.0
C      1  0.5279940000000  0.5244890000000  0.4548470000000 1.0
C      1  0.5013950000000  0.5334260000000  0.4579850000000 1.0
C      1  0.4759840000000  0.5225520000000  0.4511520000000 1.0
C      1  0.4644330000000  0.4955550000000  0.4514330000000 1.0
C      1  0.4925660000000  0.4666810000000  0.4575850000000 1.0
C      1  0.4968140000000  0.5318930000000  0.4107360000000 1.0
C      1  0.4690150000000  0.5389480000000  0.4058570000000 1.0
C      1  0.4489700000000  0.4922570000000  0.4221260000000 1.0
C      1  0.4784970000000  0.4539340000000  0.4107350000000 1.0
C      1  0.5287400000000  0.4680540000000  0.4004420000000 1.0
C      1  0.5370320000000  0.4908710000000  0.4173010000000 1.0
C      1  0.5486670000000  0.5349840000000  0.4137170000000 1.0
C      1  0.4987470000000  0.4991400000000  0.4924400000000 1.0
C      1  0.4971020000000  0.4989800000000  0.6176540000000 1.0
C      1  0.4996380000000  0.5009140000000  0.6424730000000 1.0
C      1  0.4953000000000  0.5030230000000  0.4170420000000 1.0
C      1  0.4893690000000  0.5156510000000  0.5358490000000 1.0
C      1  0.4979760000000  0.4951320000000  0.3902600000000 1.0
C      1  0.5028120000000  0.4879290000000  0.4408430000000 1.0
C      1  0.5019330000000  0.5026560000000  0.6669290000000 1.0
C      1  0.5083170000000  0.5111710000000  0.5889280000000 1.0
C      1  0.4985570000000  0.4958540000000  0.3661180000000 1.0
C      1  0.5002440000000  0.5047680000000  0.5582730000000 1.0
END
