TITL C-2441164-471-75 -0.00081234783230817 125000 -5085.18921437976 0 0 36 (C1) n - 1
REM
REM in /home/bkarasulu/work/CARBON/AIRSS/Generating-Clusters/ReaxFF-fromJPCA2015/Units_Real/with-SteepDescent/Higher-Symm
REM
REM
REM
REM
REM
REM ./C.cell (1df0a924f5614ab8850e4351716899ee)
REM
REM compiler GCC version 9.2.1 20190827 (Red Hat 9.2.1-1)
REM options -cpp -mtune=generic -march=x86-64 -g -O0 -fpre-include=/usr/include/finclude/math-vector-fortran.h
REM seed -768971264 168924420 -1629995391 -1029409008 -2126905315 505332039 -155912731 119339570 276172523 275154042 910545371 -1970843313 -1804258990 394449730 2026955456 781348547 2142416636 1474579989 -875305860 -1026026877 -1975305009 1802008174 1194396156 -1912177408 905868350 884661108 -1563493619 -426045913 -1442571925 -1610897024 -117329810 -193401806 302092724
REM
CELL 1.54180   50.00000   50.00000   50.00000   90.00000   90.00000   90.00000
LATT -1
SFAC C  
C      1  0.4438510000000  0.4776440000000  0.5008730000000 1.0
C      1  0.4976500000000  0.4438540000000  0.4792690000000 1.0
C      1  0.4804320000000  0.5021120000000  0.4411460000000 1.0
C      1  0.4446490000000  0.5189590000000  0.5024460000000 1.0
C      1  0.5564040000000  0.5203830000000  0.4973790000000 1.0
C      1  0.5578630000000  0.4778780000000  0.4999720000000 1.0
C      1  0.5006620000000  0.5600970000000  0.5216950000000 1.0
C      1  0.4989870000000  0.5601770000000  0.4785840000000 1.0
C      1  0.5008020000000  0.4424530000000  0.5224050000000 1.0
C      1  0.4780850000000  0.4994440000000  0.5561080000000 1.0
C      1  0.5224540000000  0.5003040000000  0.4435470000000 1.0
C      1  0.5203580000000  0.4994860000000  0.5557280000000 1.0
C      1  0.4668230000000  0.4889130000000  0.4636900000000 1.0
C      1  0.4631010000000  0.4598390000000  0.4948530000000 1.0
C      1  0.4875290000000  0.4680370000000  0.4639000000000 1.0
C      1  0.4596330000000  0.5046140000000  0.5375090000000 1.0
C      1  0.5400970000000  0.5050920000000  0.4629490000000 1.0
C      1  0.5363540000000  0.4904420000000  0.5330860000000 1.0
C      1  0.4680680000000  0.5362680000000  0.5113530000000 1.0
C      1  0.5317360000000  0.5365940000000  0.4883980000000 1.0
C      1  0.5342960000000  0.4637610000000  0.5101980000000 1.0
C      1  0.4884340000000  0.5362660000000  0.5331860000000 1.0
C      1  0.5115940000000  0.5363970000000  0.4669170000000 1.0
C      1  0.5077310000000  0.4643260000000  0.5389460000000 1.0
C      1  0.4997280000000  0.4804210000000  0.5577250000000 1.0
C      1  0.5579680000000  0.4989390000000  0.4790090000000 1.0
C      1  0.4798040000000  0.5600370000000  0.5008790000000 1.0
C      1  0.5020930000000  0.5218560000000  0.4433200000000 1.0
C      1  0.4988460000000  0.5205070000000  0.5554420000000 1.0
C      1  0.5001470000000  0.4803690000000  0.4404210000000 1.0
C      1  0.5571860000000  0.5003320000000  0.5190490000000 1.0
C      1  0.4453100000000  0.4988260000000  0.4801450000000 1.0
C      1  0.4425180000000  0.4989360000000  0.5201460000000 1.0
C      1  0.4793850000000  0.4424160000000  0.5005360000000 1.0
C      1  0.5193120000000  0.4438590000000  0.4998270000000 1.0
C      1  0.5201080000000  0.5601640000000  0.4993640000000 1.0
END
