TITL C-2441164-471-459 0.0992984056256008 125000 -17811.9204798095 0 0 140 (C1) n - 1
REM
REM in /home/bkarasulu/work/CARBON/AIRSS/Generating-Clusters/ReaxFF-fromJPCA2015/Units_Real/with-SteepDescent/Higher-Symm
REM
REM
REM
REM
REM
REM ./C.cell (1df0a924f5614ab8850e4351716899ee)
REM
REM compiler GCC version 9.2.1 20190827 (Red Hat 9.2.1-1)
REM options -cpp -mtune=generic -march=x86-64 -g -O0 -fpre-include=/usr/include/finclude/math-vector-fortran.h
REM seed -252431865 249538937 938758862 -1555362258 -189234104 1182665380 531881776 1491940974 20970800 -417395537 -1433996604 1682282870 -1317543470 -1618951047 1235457299 1445260964 -28220175 1196585986 761078529 -128809203 1722157860 -2036615618 364351141 293562086 -470964086 902505385 1952146544 111215303 1157927053 297202529 -937777796 -1800656763 -1864487401
REM
CELL 1.54180   50.00000   50.00000   50.00000   90.00000   90.00000   90.00000
LATT -1
SFAC C  
C      1  0.4600010000000  0.4743470000000  0.5871660000000 1.0
C      1  0.4698360000000  0.5316510000000  0.5841850000000 1.0
C      1  0.5263230000000  0.5392010000000  0.5850460000000 1.0
C      1  0.5525700000000  0.4874790000000  0.5878380000000 1.0
C      1  0.5113320000000  0.4500360000000  0.5880600000000 1.0
C      1  0.4911880000000  0.5664990000000  0.5658250000000 1.0
C      1  0.5613200000000  0.5285240000000  0.5658720000000 1.0
C      1  0.5428310000000  0.4577910000000  0.5622480000000 1.0
C      1  0.4724520000000  0.4437000000000  0.5647090000000 1.0
C      1  0.4394990000000  0.5088830000000  0.5666090000000 1.0
C      1  0.4823810000000  0.4171400000000  0.5597690000000 1.0
C      1  0.4174640000000  0.4918170000000  0.5598520000000 1.0
C      1  0.4633310000000  0.5727350000000  0.5614520000000 1.0
C      1  0.5489580000000  0.5536230000000  0.5705490000000 1.0
C      1  0.5678010000000  0.4692360000000  0.5698580000000 1.0
C      1  0.5366160000000  0.4109400000000  0.4763700000000 1.0
C      1  0.4267370000000  0.4380630000000  0.4758720000000 1.0
C      1  0.4177260000000  0.5512300000000  0.4767770000000 1.0
C      1  0.5228080000000  0.5946590000000  0.4779280000000 1.0
C      1  0.5949200000000  0.5076300000000  0.4788870000000 1.0
C      1  0.4979960000000  0.4481400000000  0.5014080000000 1.0
C      1  0.4482890000000  0.4888410000000  0.5022260000000 1.0
C      1  0.4745750000000  0.5430100000000  0.5013640000000 1.0
C      1  0.5317850000000  0.5313990000000  0.4978160000000 1.0
C      1  0.5450790000000  0.4839660000000  0.4977910000000 1.0
C      1  0.4821750000000  0.5155720000000  0.5470140000000 1.0
C      1  0.5119450000000  0.5239520000000  0.5470840000000 1.0
C      1  0.5237450000000  0.4960890000000  0.5447140000000 1.0
C      1  0.5052760000000  0.4737460000000  0.5445400000000 1.0
C      1  0.4795310000000  0.4870370000000  0.5431510000000 1.0
C      1  0.5413940000000  0.4576700000000  0.5022830000000 1.0
C      1  0.4694480000000  0.4507700000000  0.4975450000000 1.0
C      1  0.4438730000000  0.5154780000000  0.4921110000000 1.0
C      1  0.4974540000000  0.5593890000000  0.4934470000000 1.0
C      1  0.5590180000000  0.5227180000000  0.5065180000000 1.0
C      1  0.4965530000000  0.5438480000000  0.5833580000000 1.0
C      1  0.5427140000000  0.5149960000000  0.5828290000000 1.0
C      1  0.5282190000000  0.4726650000000  0.5844230000000 1.0
C      1  0.4848060000000  0.4603790000000  0.5832510000000 1.0
C      1  0.4639160000000  0.5028230000000  0.5809790000000 1.0
C      1  0.5241200000000  0.4298420000000  0.5400390000000 1.0
C      1  0.4417850000000  0.4569780000000  0.5399630000000 1.0
C      1  0.4418460000000  0.5415150000000  0.5392350000000 1.0
C      1  0.5186250000000  0.5547200000000  0.5350730000000 1.0
C      1  0.5611240000000  0.5044130000000  0.5284940000000 1.0
C      1  0.5872170000000  0.4692000000000  0.5158380000000 1.0
C      1  0.4940190000000  0.4061140000000  0.5125790000000 1.0
C      1  0.4096980000000  0.4761400000000  0.5123750000000 1.0
C      1  0.4508530000000  0.5794560000000  0.5126370000000 1.0
C      1  0.5595920000000  0.5716340000000  0.5157340000000 1.0
C      1  0.5453720000000  0.5546690000000  0.5309220000000 1.0
C      1  0.5668960000000  0.4780780000000  0.5293980000000 1.0
C      1  0.4952220000000  0.4266060000000  0.5339830000000 1.0
C      1  0.4283130000000  0.4817870000000  0.5345760000000 1.0
C      1  0.4612710000000  0.5617530000000  0.5342630000000 1.0
C      1  0.5808260000000  0.5430210000000  0.5063890000000 1.0
C      1  0.5626020000000  0.4376820000000  0.5057580000000 1.0
C      1  0.4623600000000  0.4230810000000  0.5029180000000 1.0
C      1  0.4156000000000  0.5131790000000  0.5025880000000 1.0
C      1  0.4853130000000  0.5853900000000  0.5025920000000 1.0
C      1  0.5465080000000  0.4538200000000  0.4369150000000 1.0
C      1  0.4688340000000  0.4411480000000  0.4357990000000 1.0
C      1  0.4342050000000  0.5116860000000  0.4354350000000 1.0
C      1  0.4897070000000  0.5647410000000  0.4356070000000 1.0
C      1  0.5590380000000  0.5293130000000  0.4368340000000 1.0
C      1  0.4212500000000  0.5388410000000  0.5194120000000 1.0
C      1  0.5116030000000  0.5914180000000  0.5212170000000 1.0
C      1  0.5965020000000  0.5202730000000  0.5225700000000 1.0
C      1  0.5421320000000  0.4203570000000  0.5195780000000 1.0
C      1  0.4384670000000  0.4363820000000  0.5198280000000 1.0
C      1  0.5563950000000  0.4817770000000  0.4743430000000 1.0
C      1  0.5025060000000  0.4397150000000  0.4745050000000 1.0
C      1  0.4407460000000  0.4771950000000  0.4788990000000 1.0
C      1  0.4596520000000  0.5472340000000  0.4792590000000 1.0
C      1  0.5235780000000  0.5531930000000  0.4810380000000 1.0
C      1  0.5115350000000  0.5787970000000  0.5486250000000 1.0
C      1  0.5804250000000  0.5156900000000  0.5466960000000 1.0
C      1  0.5265750000000  0.4348360000000  0.5683070000000 1.0
C      1  0.4472170000000  0.4561090000000  0.5679920000000 1.0
C      1  0.4453570000000  0.5364670000000  0.5670400000000 1.0
C      1  0.4961060000000  0.4734940000000  0.4083610000000 1.0
C      1  0.4757490000000  0.4938130000000  0.4078940000000 1.0
C      1  0.4860230000000  0.5227340000000  0.4103970000000 1.0
C      1  0.5202670000000  0.5216050000000  0.4101450000000 1.0
C      1  0.5266400000000  0.4885890000000  0.4104440000000 1.0
C      1  0.5238680000000  0.4937210000000  0.5150510000000 1.0
C      1  0.5157990000000  0.4635450000000  0.5172890000000 1.0
C      1  0.4737140000000  0.4903140000000  0.5133900000000 1.0
C      1  0.4818280000000  0.5194430000000  0.5165350000000 1.0
C      1  0.5112430000000  0.5187910000000  0.5142220000000 1.0
C      1  0.5331600000000  0.5822630000000  0.4528160000000 1.0
C      1  0.5882230000000  0.4933820000000  0.4542700000000 1.0
C      1  0.5216610000000  0.4129680000000  0.4503120000000 1.0
C      1  0.4248580000000  0.4532910000000  0.4512560000000 1.0
C      1  0.4313870000000  0.5581730000000  0.4513050000000 1.0
C      1  0.5347390000000  0.5871300000000  0.5042050000000 1.0
C      1  0.5971570000000  0.4963180000000  0.5055080000000 1.0
C      1  0.5230180000000  0.4081280000000  0.5021010000000 1.0
C      1  0.4195630000000  0.4490470000000  0.5021390000000 1.0
C      1  0.4273420000000  0.5610770000000  0.5028090000000 1.0
C      1  0.5704270000000  0.5454910000000  0.4580510000000 1.0
C      1  0.5660730000000  0.4448700000000  0.4563120000000 1.0
C      1  0.4669230000000  0.4186210000000  0.4541930000000 1.0
C      1  0.4132950000000  0.5061770000000  0.4543260000000 1.0
C      1  0.4790220000000  0.5839940000000  0.4549110000000 1.0
C      1  0.4064660000000  0.5241290000000  0.4765980000000 1.0
C      1  0.4933270000000  0.5971060000000  0.4767400000000 1.0
C      1  0.5885420000000  0.5358070000000  0.4785650000000 1.0
C      1  0.5613400000000  0.4265120000000  0.4781220000000 1.0
C      1  0.4482630000000  0.4189710000000  0.4764840000000 1.0
C      1  0.4712700000000  0.5460330000000  0.4216330000000 1.0
C      1  0.5363790000000  0.5424760000000  0.4228570000000 1.0
C      1  0.5522770000000  0.4796970000000  0.4235700000000 1.0
C      1  0.4954910000000  0.4469420000000  0.4217720000000 1.0
C      1  0.4508530000000  0.4875550000000  0.4247890000000 1.0
C      1  0.4474080000000  0.4590670000000  0.4350170000000 1.0
C      1  0.4449470000000  0.5384440000000  0.4332590000000 1.0
C      1  0.5194780000000  0.5639940000000  0.4342820000000 1.0
C      1  0.5669550000000  0.5012260000000  0.4361590000000 1.0
C      1  0.5217270000000  0.4379700000000  0.4344620000000 1.0
C      1  0.4016830000000  0.4791470000000  0.5404680000000 1.0
C      1  0.4498720000000  0.5868580000000  0.5407680000000 1.0
C      1  0.5581390000000  0.5696020000000  0.5483660000000 1.0
C      1  0.5845750000000  0.4670530000000  0.5462630000000 1.0
C      1  0.4896920000000  0.3999220000000  0.5399820000000 1.0
C      1  0.4730660000000  0.4964380000000  0.4490280000000 1.0
C      1  0.4896430000000  0.5194650000000  0.4433480000000 1.0
C      1  0.5164290000000  0.5138700000000  0.4396690000000 1.0
C      1  0.5173510000000  0.4893080000000  0.4371050000000 1.0
C      1  0.4958220000000  0.4760540000000  0.4489710000000 1.0
C      1  0.4181960000000  0.4779590000000  0.4632890000000 1.0
C      1  0.4540410000000  0.5711550000000  0.4650460000000 1.0
C      1  0.5489140000000  0.5633700000000  0.4681370000000 1.0
C      1  0.5790890000000  0.4691750000000  0.4650990000000 1.0
C      1  0.4949090000000  0.4141110000000  0.4635100000000 1.0
C      1  0.4720770000000  0.5053420000000  0.4758930000000 1.0
C      1  0.4960890000000  0.5250450000000  0.4722800000000 1.0
C      1  0.5231100000000  0.5091790000000  0.4730380000000 1.0
C      1  0.5118580000000  0.4797980000000  0.4752730000000 1.0
C      1  0.4838690000000  0.4823170000000  0.4879400000000 1.0
END
