TITL C-2441159-1093-1368 0.0779699587591568 125000 -12739.4999123396 0 0 100 (C2v) n - 1
REM
REM in /home/bkarasulu/work/CARBON/AIRSS/Generating-Clusters/ReaxFF-fromJPCA2015/Units_Real/with-SteepDescent/Higher-Symm
REM
REM
REM
REM
REM
REM ./C.cell (1df0a924f5614ab8850e4351716899ee)
REM
REM compiler GCC version 9.2.1 20190827 (Red Hat 9.2.1-1)
REM options -cpp -mtune=generic -march=x86-64 -g -O0 -fpre-include=/usr/include/finclude/math-vector-fortran.h
REM seed -1678930955 -1450447895 -1196726760 2021163576 -1886559777 -1173097904 -1184888049 -1412854183 -492071342 -1464162420 946643380 2005627748 -1535048508 -2144414249 -562816780 -708866224 -1075876849 1636865294 -245327660 -700519891 -1871331808 -1422806572 1376358298 -1913564437 1754782991 34884278 756344181 1040356802 270946154 1077374420 867534731 -936062602 -1079107758
REM
CELL 1.54180   50.00000   50.00000   50.00000   90.00000   90.00000   90.00000
LATT -1
SFAC C  
C      1  0.5281180000000  0.5636220000000  0.4453720000000 1.0
C      1  0.5281640000000  0.4362430000000  0.5547160000000 1.0
C      1  0.5281630000000  0.4363090000000  0.4452780000000 1.0
C      1  0.5280940000000  0.5637590000000  0.5546340000000 1.0
C      1  0.5148220000000  0.5486790000000  0.4268210000000 1.0
C      1  0.5147500000000  0.4514160000000  0.5730630000000 1.0
C      1  0.5147750000000  0.4514820000000  0.4269300000000 1.0
C      1  0.5147770000000  0.5486250000000  0.5730290000000 1.0
C      1  0.5261640000000  0.5271300000000  0.5180220000000 1.0
C      1  0.5266130000000  0.4726470000000  0.4825020000000 1.0
C      1  0.5261180000000  0.4728890000000  0.5176470000000 1.0
C      1  0.5261720000000  0.5271720000000  0.4816200000000 1.0
C      1  0.4692010000000  0.5765320000000  0.4784050000000 1.0
C      1  0.4692500000000  0.4233790000000  0.5211520000000 1.0
C      1  0.4692610000000  0.4232690000000  0.4789430000000 1.0
C      1  0.4691820000000  0.5765430000000  0.5216370000000 1.0
C      1  0.4274350000000  0.5159140000000  0.4586800000000 1.0
C      1  0.4271390000000  0.4836820000000  0.5415930000000 1.0
C      1  0.4270880000000  0.4836950000000  0.4584330000000 1.0
C      1  0.4272720000000  0.5158340000000  0.5413850000000 1.0
C      1  0.4741480000000  0.4272780000000  0.5493900000000 1.0
C      1  0.4741960000000  0.5726610000000  0.4505030000000 1.0
C      1  0.4742330000000  0.5726820000000  0.5494630000000 1.0
C      1  0.4741330000000  0.4273030000000  0.4504680000000 1.0
C      1  0.5264530000000  0.5130140000000  0.4563580000000 1.0
C      1  0.5273010000000  0.4864650000000  0.5437000000000 1.0
C      1  0.5269810000000  0.4863020000000  0.4565080000000 1.0
C      1  0.5269280000000  0.5132780000000  0.5436470000000 1.0
C      1  0.5214180000000  0.4752470000000  0.5835950000000 1.0
C      1  0.5213600000000  0.5247990000000  0.4164000000000 1.0
C      1  0.5213530000000  0.5247500000000  0.5835180000000 1.0
C      1  0.5214570000000  0.4753240000000  0.4164750000000 1.0
C      1  0.4999540000000  0.4280820000000  0.4844650000000 1.0
C      1  0.4999670000000  0.5718270000000  0.5155720000000 1.0
C      1  0.4998260000000  0.5719580000000  0.4844510000000 1.0
C      1  0.4999360000000  0.4281740000000  0.5156230000000 1.0
C      1  0.4937010000000  0.4852330000000  0.5833890000000 1.0
C      1  0.4937130000000  0.5148080000000  0.4166320000000 1.0
C      1  0.4936250000000  0.5147890000000  0.5833700000000 1.0
C      1  0.4937760000000  0.4852650000000  0.4165290000000 1.0
C      1  0.4993950000000  0.4864090000000  0.5156460000000 1.0
C      1  0.4996840000000  0.5140970000000  0.4840630000000 1.0
C      1  0.4998290000000  0.5139010000000  0.5162030000000 1.0
C      1  0.4995890000000  0.4863980000000  0.4840640000000 1.0
C      1  0.5540370000000  0.5555210000000  0.4603970000000 1.0
C      1  0.5537320000000  0.4443490000000  0.5395310000000 1.0
C      1  0.5536550000000  0.4443270000000  0.4604690000000 1.0
C      1  0.5537800000000  0.5557620000000  0.5396320000000 1.0
C      1  0.4633720000000  0.5336610000000  0.5144320000000 1.0
C      1  0.4633400000000  0.4662520000000  0.4855600000000 1.0
C      1  0.4634560000000  0.4661460000000  0.5144390000000 1.0
C      1  0.4635640000000  0.5337150000000  0.4856340000000 1.0
C      1  0.5635110000000  0.4711420000000  0.5420130000000 1.0
C      1  0.5636100000000  0.5289440000000  0.4579900000000 1.0
C      1  0.5635430000000  0.5289810000000  0.5419930000000 1.0
C      1  0.5632850000000  0.4712710000000  0.4579410000000 1.0
C      1  0.4365280000000  0.5442630000000  0.4550720000000 1.0
C      1  0.4364660000000  0.4557030000000  0.5449710000000 1.0
C      1  0.4364820000000  0.4555030000000  0.4550530000000 1.0
C      1  0.4366280000000  0.5445080000000  0.5449470000000 1.0
C      1  0.5546020000000  0.4281850000000  0.4845710000000 1.0
C      1  0.5545810000000  0.5718510000000  0.5153650000000 1.0
C      1  0.5545680000000  0.5718270000000  0.4846170000000 1.0
C      1  0.5545630000000  0.4281500000000  0.5153850000000 1.0
C      1  0.5028160000000  0.4239920000000  0.4548270000000 1.0
C      1  0.5029280000000  0.5760650000000  0.5451770000000 1.0
C      1  0.5029600000000  0.5759420000000  0.4547940000000 1.0
C      1  0.5028540000000  0.4239140000000  0.5452230000000 1.0
C      1  0.5288340000000  0.4137730000000  0.5140220000000 1.0
C      1  0.5289000000000  0.5862440000000  0.4859030000000 1.0
C      1  0.5287900000000  0.5861970000000  0.5140500000000 1.0
C      1  0.5289190000000  0.4136910000000  0.4859670000000 1.0
C      1  0.5471690000000  0.5161920000000  0.4351350000000 1.0
C      1  0.5474250000000  0.4841040000000  0.5654800000000 1.0
C      1  0.5473790000000  0.4840520000000  0.4347090000000 1.0
C      1  0.5471590000000  0.5158930000000  0.5653610000000 1.0
C      1  0.4594560000000  0.5500870000000  0.5619520000000 1.0
C      1  0.4595690000000  0.4498750000000  0.4380680000000 1.0
C      1  0.4595480000000  0.4499110000000  0.5619140000000 1.0
C      1  0.4595750000000  0.5500110000000  0.4380690000000 1.0
C      1  0.4831270000000  0.5264890000000  0.5339850000000 1.0
C      1  0.4828770000000  0.4733780000000  0.4657600000000 1.0
C      1  0.4830360000000  0.4734110000000  0.5340140000000 1.0
C      1  0.4831190000000  0.5265570000000  0.4660880000000 1.0
C      1  0.5572410000000  0.4846550000000  0.5159480000000 1.0
C      1  0.5572520000000  0.5157100000000  0.4836550000000 1.0
C      1  0.5573080000000  0.5154050000000  0.5160210000000 1.0
C      1  0.5571780000000  0.4845460000000  0.4840660000000 1.0
C      1  0.4762280000000  0.4740780000000  0.4384130000000 1.0
C      1  0.4763580000000  0.5259960000000  0.5614560000000 1.0
C      1  0.4763910000000  0.5260010000000  0.4386630000000 1.0
C      1  0.4763150000000  0.4740030000000  0.5614880000000 1.0
C      1  0.4450220000000  0.5130250000000  0.4794350000000 1.0
C      1  0.4446620000000  0.4874840000000  0.5206600000000 1.0
C      1  0.4447760000000  0.4873800000000  0.4790650000000 1.0
C      1  0.4450150000000  0.5130440000000  0.5206780000000 1.0
C      1  0.4467870000000  0.5579050000000  0.5204660000000 1.0
C      1  0.4466530000000  0.4420460000000  0.4795750000000 1.0
C      1  0.4467430000000  0.4420870000000  0.5204170000000 1.0
C      1  0.4468110000000  0.5579290000000  0.4795920000000 1.0
END
