TITL C-2441164-471-1297 0.0816277149781815 125000 -13249.5782442794 0 0 103 (C1) n - 1
REM
REM in /home/bkarasulu/work/CARBON/AIRSS/Generating-Clusters/ReaxFF-fromJPCA2015/Units_Real/with-SteepDescent/Higher-Symm
REM
REM
REM
REM
REM
REM ./C.cell (1df0a924f5614ab8850e4351716899ee)
REM
REM compiler GCC version 9.2.1 20190827 (Red Hat 9.2.1-1)
REM options -cpp -mtune=generic -march=x86-64 -g -O0 -fpre-include=/usr/include/finclude/math-vector-fortran.h
REM seed 2034990423 -2001166513 1756969648 173987302 -310825622 303666543 -1707673711 -1784343034 1237955889 -1267957785 181103200 -302150873 1152751422 621087034 1308166819 251340047 -2040336972 -1637667 -1612151507 1896469211 -602318008 -1236340147 -212809907 715059394 -672842206 -338750519 1891078360 -1584455263 1826413377 -1816720335 -2069285117 628151054 -2024128806
REM
CELL 1.54180   50.00000   50.00000   50.00000   90.00000   90.00000   90.00000
LATT -1
SFAC C  
C      1  0.5205620000000  0.4672060000000  0.4848600000000 1.0
C      1  0.5256250000000  0.4811360000000  0.5094670000000 1.0
C      1  0.4408340000000  0.5015640000000  0.5148560000000 1.0
C      1  0.4340190000000  0.5036510000000  0.4874170000000 1.0
C      1  0.4625680000000  0.4594520000000  0.5107500000000 1.0
C      1  0.4584210000000  0.4595280000000  0.4831220000000 1.0
C      1  0.5510760000000  0.4858430000000  0.4540210000000 1.0
C      1  0.5512070000000  0.4853700000000  0.5488620000000 1.0
C      1  0.4294620000000  0.4603740000000  0.4889500000000 1.0
C      1  0.4332110000000  0.4581630000000  0.5189500000000 1.0
C      1  0.4230120000000  0.5236650000000  0.5211520000000 1.0
C      1  0.4281220000000  0.5304660000000  0.4795470000000 1.0
C      1  0.5294630000000  0.5103940000000  0.5112100000000 1.0
C      1  0.5313350000000  0.5209500000000  0.4838630000000 1.0
C      1  0.4632240000000  0.4510590000000  0.4379590000000 1.0
C      1  0.4621680000000  0.4492130000000  0.5618020000000 1.0
C      1  0.4707120000000  0.5180370000000  0.4482320000000 1.0
C      1  0.4701100000000  0.5181280000000  0.5553500000000 1.0
C      1  0.5542950000000  0.4585870000000  0.5589960000000 1.0
C      1  0.5540770000000  0.4588610000000  0.4419430000000 1.0
C      1  0.4816770000000  0.5042660000000  0.5909150000000 1.0
C      1  0.4821650000000  0.5055670000000  0.4096500000000 1.0
C      1  0.5596540000000  0.4764610000000  0.5225110000000 1.0
C      1  0.5637220000000  0.4771420000000  0.4781910000000 1.0
C      1  0.5482380000000  0.5140780000000  0.4232080000000 1.0
C      1  0.5460140000000  0.5160450000000  0.5766350000000 1.0
C      1  0.5273320000000  0.5497360000000  0.5564830000000 1.0
C      1  0.5269240000000  0.5482760000000  0.4428890000000 1.0
C      1  0.4853320000000  0.5139870000000  0.5269330000000 1.0
C      1  0.4790340000000  0.5156290000000  0.4753660000000 1.0
C      1  0.5682990000000  0.5147690000000  0.4457190000000 1.0
C      1  0.5674090000000  0.5124020000000  0.5546020000000 1.0
C      1  0.4687390000000  0.4296880000000  0.5224060000000 1.0
C      1  0.4683850000000  0.4305750000000  0.4779760000000 1.0
C      1  0.5470200000000  0.5617360000000  0.5141390000000 1.0
C      1  0.5481690000000  0.5625480000000  0.4866840000000 1.0
C      1  0.4385080000000  0.5288980000000  0.4513860000000 1.0
C      1  0.4437240000000  0.5311550000000  0.5573510000000 1.0
C      1  0.4520430000000  0.5597340000000  0.5212730000000 1.0
C      1  0.4540480000000  0.5628660000000  0.4783540000000 1.0
C      1  0.5215510000000  0.5187260000000  0.4357130000000 1.0
C      1  0.5202580000000  0.5196400000000  0.5632770000000 1.0
C      1  0.4749230000000  0.5808120000000  0.5141700000000 1.0
C      1  0.4765380000000  0.5820080000000  0.4857150000000 1.0
C      1  0.5278490000000  0.4848090000000  0.5810250000000 1.0
C      1  0.5275590000000  0.4859040000000  0.4153640000000 1.0
C      1  0.5095050000000  0.4719350000000  0.5629800000000 1.0
C      1  0.5113270000000  0.4706420000000  0.4328430000000 1.0
C      1  0.4503180000000  0.4748940000000  0.5589830000000 1.0
C      1  0.4490340000000  0.4778150000000  0.4348370000000 1.0
C      1  0.4476030000000  0.4369770000000  0.5397110000000 1.0
C      1  0.4513160000000  0.4279960000000  0.4535970000000 1.0
C      1  0.4809430000000  0.5320470000000  0.4220260000000 1.0
C      1  0.4828680000000  0.5318190000000  0.5809250000000 1.0
C      1  0.5229610000000  0.5572600000000  0.5281610000000 1.0
C      1  0.5237760000000  0.5521690000000  0.4753810000000 1.0
C      1  0.4969240000000  0.4259050000000  0.4732600000000 1.0
C      1  0.4958770000000  0.4229300000000  0.5304720000000 1.0
C      1  0.5547330000000  0.5390440000000  0.5628260000000 1.0
C      1  0.5548900000000  0.5394220000000  0.4353940000000 1.0
C      1  0.4681180000000  0.5347870000000  0.5146030000000 1.0
C      1  0.4681070000000  0.5377310000000  0.4888780000000 1.0
C      1  0.5101410000000  0.5035380000000  0.5933770000000 1.0
C      1  0.5110140000000  0.5077050000000  0.4082220000000 1.0
C      1  0.4813530000000  0.4881550000000  0.4848380000000 1.0
C      1  0.4834080000000  0.4841780000000  0.5147590000000 1.0
C      1  0.4312090000000  0.4963900000000  0.4478520000000 1.0
C      1  0.4223090000000  0.5145710000000  0.5482070000000 1.0
C      1  0.4989440000000  0.5696040000000  0.4724390000000 1.0
C      1  0.4982070000000  0.5714360000000  0.5277720000000 1.0
C      1  0.5235920000000  0.5030960000000  0.4608860000000 1.0
C      1  0.5141090000000  0.5128540000000  0.5355190000000 1.0
C      1  0.5140000000000  0.4427510000000  0.5187050000000 1.0
C      1  0.5158980000000  0.4403230000000  0.4901170000000 1.0
C      1  0.4537030000000  0.5567120000000  0.5502080000000 1.0
C      1  0.4535530000000  0.5550050000000  0.4509890000000 1.0
C      1  0.5376530000000  0.4348850000000  0.4428630000000 1.0
C      1  0.5376150000000  0.4337540000000  0.5584180000000 1.0
C      1  0.5599490000000  0.4367540000000  0.5400640000000 1.0
C      1  0.5605880000000  0.4372450000000  0.4608810000000 1.0
C      1  0.4729720000000  0.4937340000000  0.4343790000000 1.0
C      1  0.4700380000000  0.4930240000000  0.5669680000000 1.0
C      1  0.5533510000000  0.4480440000000  0.5138330000000 1.0
C      1  0.5633960000000  0.4497030000000  0.4868180000000 1.0
C      1  0.5720890000000  0.5457140000000  0.5148080000000 1.0
C      1  0.5718130000000  0.5466220000000  0.4854860000000 1.0
C      1  0.5065700000000  0.4700110000000  0.5296360000000 1.0
C      1  0.5057520000000  0.4809870000000  0.4647110000000 1.0
C      1  0.4829780000000  0.5632610000000  0.4487690000000 1.0
C      1  0.4820750000000  0.5651110000000  0.5523600000000 1.0
C      1  0.5798900000000  0.4980300000000  0.4867310000000 1.0
C      1  0.5808260000000  0.4954270000000  0.5144240000000 1.0
C      1  0.4320520000000  0.4837430000000  0.5367680000000 1.0
C      1  0.4214000000000  0.4824600000000  0.4714190000000 1.0
C      1  0.4918420000000  0.4493940000000  0.5684410000000 1.0
C      1  0.4919860000000  0.4489510000000  0.4307340000000 1.0
C      1  0.4993870000000  0.5530360000000  0.5717640000000 1.0
C      1  0.5001150000000  0.5525500000000  0.4284870000000 1.0
C      1  0.5741590000000  0.5195590000000  0.5272760000000 1.0
C      1  0.5650810000000  0.5203620000000  0.4758410000000 1.0
C      1  0.5084640000000  0.4306310000000  0.4466090000000 1.0
C      1  0.5084900000000  0.4286350000000  0.5566280000000 1.0
C      1  0.4270620000000  0.5467280000000  0.5032940000000 1.0
END
