TITL C-2441157-2117-68 -3.17189159381421e-07 125000 -3185.01631856331 0 0 24 (S8) n - 1
REM
REM in /home/bkarasulu/work/CARBON/AIRSS/Generating-Clusters/ReaxFF-fromJPCA2015/Units_Real/with-SteepDescent/Higher-Symm
REM
REM
REM
REM
REM
REM ./C.cell (1df0a924f5614ab8850e4351716899ee)
REM
REM compiler GCC version 9.2.1 20190827 (Red Hat 9.2.1-1)
REM options -cpp -mtune=generic -march=x86-64 -g -O0 -fpre-include=/usr/include/finclude/math-vector-fortran.h
REM seed 1592203202 -1095304530 -593282456 1350510205 -1689049604 2056937315 -232322022 -1670872580 -2057230924 -1413135496 -1892147564 -1559396509 -614408613 -184233100 -554206880 1394717884 245540348 91345692 -297309260 -1365549600 1174952387 1785052406 1116201260 1808044900 -504008105 1878476979 -2052221212 1930746255 -552251308 946308289 -1253153565 1264318552 -481191684
REM
CELL 1.54180   50.00000   50.00000   50.00000   90.00000   90.00000   90.00000
LATT -1
SFAC C  
C      1  0.5034920000000  0.5331540000000  0.4822870000000 1.0
C      1  0.4965080000000  0.5109180000000  0.4640320000000 1.0
C      1  0.5034920000000  0.4822870000000  0.4668460000000 1.0
C      1  0.4965080000000  0.4640320000000  0.4890820000000 1.0
C      1  0.5034920000000  0.4668460000000  0.5177130000000 1.0
C      1  0.4965080000000  0.4890820000000  0.5359680000000 1.0
C      1  0.5034920000000  0.5177130000000  0.5331540000000 1.0
C      1  0.4965080000000  0.5359680000000  0.5109180000000 1.0
C      1  0.4708380000000  0.4801270000000  0.5393460000000 1.0
C      1  0.5291620000000  0.5137700000000  0.5418740000000 1.0
C      1  0.4708380000000  0.5393460000000  0.5198730000000 1.0
C      1  0.5291620000000  0.5418740000000  0.4862300000000 1.0
C      1  0.4708380000000  0.5198730000000  0.4606540000000 1.0
C      1  0.5291620000000  0.4862300000000  0.4581260000000 1.0
C      1  0.4708380000000  0.4606540000000  0.4801270000000 1.0
C      1  0.5291620000000  0.4581260000000  0.5137700000000 1.0
C      1  0.5525710000000  0.5130820000000  0.5488560000000 1.0
C      1  0.4474290000000  0.5437970000000  0.5252960000000 1.0
C      1  0.5525710000000  0.5488560000000  0.4869180000000 1.0
C      1  0.4474290000000  0.5252960000000  0.4562030000000 1.0
C      1  0.5525710000000  0.4869180000000  0.4511440000000 1.0
C      1  0.4474290000000  0.4562030000000  0.4747040000000 1.0
C      1  0.5525710000000  0.4511440000000  0.5130820000000 1.0
C      1  0.4474290000000  0.4747040000000  0.5437970000000 1.0
END
