TITL C-2441164-471-994 0.00227947722710641 125000 -6986.3078551822 0 0 49 (C7) n - 1
REM
REM in /home/bkarasulu/work/CARBON/AIRSS/Generating-Clusters/ReaxFF-fromJPCA2015/Units_Real/with-SteepDescent/Higher-Symm
REM
REM
REM
REM
REM
REM ./C.cell (1df0a924f5614ab8850e4351716899ee)
REM
REM compiler GCC version 9.2.1 20190827 (Red Hat 9.2.1-1)
REM options -cpp -mtune=generic -march=x86-64 -g -O0 -fpre-include=/usr/include/finclude/math-vector-fortran.h
REM seed -1021793667 1531503015 -1564334370 1653479959 -222908543 -1402855792 1952455084 -34561694 -784262421 732590533 973542942 1043182570 -1104882039 1875537169 415747373 424932873 -1585562325 -2031646494 1555969556 -972350567 -1665721457 1243006127 -1105827889 934805914 928797358 -2087265772 -2107808507 -1178224850 514380442 621337618 1495077287 -2001428650 1575978135
REM
CELL 1.54180   50.00000   50.00000   50.00000   90.00000   90.00000   90.00000
LATT -1
SFAC C  
C      1  0.4926360000000  0.4443260000000  0.4674730000000 1.0
C      1  0.4518740000000  0.4710370000000  0.4674730000000 1.0
C      1  0.4473500000000  0.5195740000000  0.4674750000000 1.0
C      1  0.4824740000000  0.5533650000000  0.4674560000000 1.0
C      1  0.5307650000000  0.5469470000000  0.4674880000000 1.0
C      1  0.5558960000000  0.5052190000000  0.4674490000000 1.0
C      1  0.5389310000000  0.4595540000000  0.4674680000000 1.0
C      1  0.4452740000000  0.4870100000000  0.5331110000000 1.0
C      1  0.4557120000000  0.5345460000000  0.5329590000000 1.0
C      1  0.4994730000000  0.5562510000000  0.5330940000000 1.0
C      1  0.5436580000000  0.5354470000000  0.5330570000000 1.0
C      1  0.5549360000000  0.4880450000000  0.5330350000000 1.0
C      1  0.5247890000000  0.4495130000000  0.5331090000000 1.0
C      1  0.4761850000000  0.4491020000000  0.5329870000000 1.0
C      1  0.4522620000000  0.5471830000000  0.5073630000000 1.0
C      1  0.5070820000000  0.5667580000000  0.5074260000000 1.0
C      1  0.5566210000000  0.5361080000000  0.5074070000000 1.0
C      1  0.5635250000000  0.4782990000000  0.5073740000000 1.0
C      1  0.5226560000000  0.4367860000000  0.5074220000000 1.0
C      1  0.4646660000000  0.4429150000000  0.5073800000000 1.0
C      1  0.4333510000000  0.4920080000000  0.5074210000000 1.0
C      1  0.4669780000000  0.4922980000000  0.5524080000000 1.0
C      1  0.4733940000000  0.5210120000000  0.5523320000000 1.0
C      1  0.4998370000000  0.5339080000000  0.5523830000000 1.0
C      1  0.5264060000000  0.5212650000000  0.5523530000000 1.0
C      1  0.5330680000000  0.4926120000000  0.5523420000000 1.0
C      1  0.5148390000000  0.4695160000000  0.5523940000000 1.0
C      1  0.4854200000000  0.4693710000000  0.5523530000000 1.0
C      1  0.4823760000000  0.4677540000000  0.5099510000000 1.0
C      1  0.4638040000000  0.4936790000000  0.5100790000000 1.0
C      1  0.4725140000000  0.5243720000000  0.5099100000000 1.0
C      1  0.5019300000000  0.5366990000000  0.5100770000000 1.0
C      1  0.5299010000000  0.5214070000000  0.5100120000000 1.0
C      1  0.5353490000000  0.4899810000000  0.5100030000000 1.0
C      1  0.5142280000000  0.4660880000000  0.5100640000000 1.0
C      1  0.5592710000000  0.4781300000000  0.4785260000000 1.0
C      1  0.5198320000000  0.4400610000000  0.4785600000000 1.0
C      1  0.4654580000000  0.4470660000000  0.4785090000000 1.0
C      1  0.4371360000000  0.4940080000000  0.4785740000000 1.0
C      1  0.4560810000000  0.5454680000000  0.4784910000000 1.0
C      1  0.5081360000000  0.5626300000000  0.4785770000000 1.0
C      1  0.5540460000000  0.5326820000000  0.4785430000000 1.0
C      1  0.4899450000000  0.5310940000000  0.4511560000000 1.0
C      1  0.5180260000000  0.5272300000000  0.4511610000000 1.0
C      1  0.5325190000000  0.5028710000000  0.4511500000000 1.0
C      1  0.5225150000000  0.4763480000000  0.4511560000000 1.0
C      1  0.4955420000000  0.4676290000000  0.4511610000000 1.0
C      1  0.4719110000000  0.4832920000000  0.4511710000000 1.0
C      1  0.4694210000000  0.5115350000000  0.4511760000000 1.0
END
