TITL C-2441159-1093-1321 0.0599040376959745 125000 -13997.1747145098 0 0 104 (C1) n - 1
REM
REM in /home/bkarasulu/work/CARBON/AIRSS/Generating-Clusters/ReaxFF-fromJPCA2015/Units_Real/with-SteepDescent/Higher-Symm
REM
REM
REM
REM
REM
REM ./C.cell (1df0a924f5614ab8850e4351716899ee)
REM
REM compiler GCC version 9.2.1 20190827 (Red Hat 9.2.1-1)
REM options -cpp -mtune=generic -march=x86-64 -g -O0 -fpre-include=/usr/include/finclude/math-vector-fortran.h
REM seed 501577667 2053426823 2028850859 1967528882 1378386560 -282095154 -1242615018 -712559871 1483512932 -783947239 -1325534053 -1030375158 -1467112848 -1649199798 -1299065740 296627945 -1345263539 1563469839 797378156 1964610590 -466702475 -682108752 1789099681 -1847537662 450686630 -974533267 -1562591018 -1209818456 -569403168 1390272358 495417286 164812137 217374495
REM
CELL 1.54180   50.00000   50.00000   50.00000   90.00000   90.00000   90.00000
LATT -1
SFAC C  
C      1  0.4579090000000  0.5176780000000  0.4297570000000 1.0
C      1  0.4552790000000  0.5142270000000  0.5591020000000 1.0
C      1  0.5772200000000  0.5270580000000  0.5151740000000 1.0
C      1  0.4680720000000  0.4685570000000  0.5743810000000 1.0
C      1  0.4541730000000  0.4713480000000  0.4399260000000 1.0
C      1  0.5696310000000  0.4865960000000  0.4950170000000 1.0
C      1  0.5278390000000  0.4850430000000  0.5598740000000 1.0
C      1  0.5499860000000  0.4684510000000  0.4388340000000 1.0
C      1  0.4276740000000  0.4833510000000  0.4929500000000 1.0
C      1  0.5365990000000  0.5183280000000  0.4317620000000 1.0
C      1  0.5481740000000  0.5262920000000  0.5608960000000 1.0
C      1  0.4208890000000  0.5289470000000  0.5135780000000 1.0
C      1  0.4700160000000  0.5726110000000  0.5002670000000 1.0
C      1  0.5133040000000  0.5761510000000  0.5227550000000 1.0
C      1  0.5132080000000  0.5738380000000  0.4769900000000 1.0
C      1  0.4719720000000  0.4241060000000  0.4992110000000 1.0
C      1  0.5125800000000  0.4273010000000  0.4752440000000 1.0
C      1  0.5121490000000  0.4217520000000  0.5225230000000 1.0
C      1  0.5266530000000  0.4276400000000  0.4999170000000 1.0
C      1  0.4861470000000  0.4220630000000  0.4761420000000 1.0
C      1  0.4852980000000  0.4274160000000  0.5237320000000 1.0
C      1  0.5295750000000  0.5719490000000  0.4998410000000 1.0
C      1  0.4860960000000  0.5775590000000  0.5228240000000 1.0
C      1  0.4858860000000  0.5748500000000  0.4777350000000 1.0
C      1  0.5688980000000  0.5702640000000  0.4916590000000 1.0
C      1  0.4660800000000  0.5625000000000  0.4439830000000 1.0
C      1  0.4688360000000  0.5635090000000  0.5617570000000 1.0
C      1  0.5695840000000  0.4345540000000  0.5014220000000 1.0
C      1  0.4656420000000  0.4298470000000  0.5596280000000 1.0
C      1  0.4692220000000  0.4334420000000  0.4408660000000 1.0
C      1  0.4290610000000  0.4344760000000  0.5026660000000 1.0
C      1  0.5354240000000  0.4351950000000  0.5564310000000 1.0
C      1  0.5309580000000  0.4320460000000  0.4384450000000 1.0
C      1  0.4305620000000  0.5682530000000  0.4949080000000 1.0
C      1  0.5358670000000  0.5615180000000  0.4428710000000 1.0
C      1  0.5340070000000  0.5650220000000  0.5588350000000 1.0
C      1  0.4327140000000  0.5014660000000  0.4699130000000 1.0
C      1  0.5050950000000  0.4998960000000  0.5698100000000 1.0
C      1  0.5533430000000  0.4972860000000  0.4438260000000 1.0
C      1  0.4237070000000  0.5000080000000  0.5182320000000 1.0
C      1  0.5080040000000  0.4991890000000  0.4269650000000 1.0
C      1  0.5500370000000  0.5000780000000  0.5480270000000 1.0
C      1  0.5698160000000  0.4999840000000  0.5218340000000 1.0
C      1  0.4842660000000  0.5085600000000  0.4281060000000 1.0
C      1  0.4372210000000  0.4975220000000  0.5436740000000 1.0
C      1  0.5665150000000  0.5028220000000  0.4701250000000 1.0
C      1  0.4762200000000  0.4964000000000  0.5712220000000 1.0
C      1  0.4448800000000  0.4965170000000  0.4451070000000 1.0
C      1  0.4356180000000  0.4569780000000  0.4835040000000 1.0
C      1  0.5145600000000  0.4565730000000  0.5552100000000 1.0
C      1  0.5404520000000  0.4616920000000  0.4661370000000 1.0
C      1  0.4485140000000  0.5382210000000  0.5166420000000 1.0
C      1  0.5147050000000  0.5419100000000  0.4427000000000 1.0
C      1  0.5504190000000  0.5480260000000  0.5417770000000 1.0
C      1  0.5494010000000  0.5354040000000  0.5153630000000 1.0
C      1  0.4872920000000  0.5435470000000  0.4502430000000 1.0
C      1  0.4578330000000  0.5399420000000  0.5450240000000 1.0
C      1  0.5631010000000  0.4591330000000  0.4856490000000 1.0
C      1  0.4876820000000  0.4482770000000  0.5672040000000 1.0
C      1  0.4583080000000  0.4550370000000  0.4627200000000 1.0
C      1  0.4913390000000  0.5265900000000  0.4757280000000 1.0
C      1  0.4827270000000  0.5148570000000  0.5236420000000 1.0
C      1  0.5288670000000  0.5143860000000  0.5049620000000 1.0
C      1  0.4796830000000  0.4861140000000  0.5238580000000 1.0
C      1  0.4833410000000  0.4699340000000  0.4788370000000 1.0
C      1  0.5296900000000  0.4819280000000  0.5098950000000 1.0
C      1  0.5051970000000  0.4693650000000  0.5232490000000 1.0
C      1  0.5220770000000  0.4822440000000  0.4783010000000 1.0
C      1  0.4691940000000  0.4885830000000  0.4967680000000 1.0
C      1  0.5171030000000  0.5106000000000  0.4774520000000 1.0
C      1  0.5083410000000  0.5275250000000  0.5227170000000 1.0
C      1  0.4677300000000  0.5181150000000  0.4989780000000 1.0
C      1  0.5506210000000  0.4148550000000  0.5106420000000 1.0
C      1  0.4853760000000  0.4115380000000  0.4494440000000 1.0
C      1  0.4638600000000  0.4124460000000  0.5365610000000 1.0
C      1  0.5499400000000  0.5892320000000  0.4852440000000 1.0
C      1  0.4857190000000  0.5853860000000  0.5502750000000 1.0
C      1  0.4649100000000  0.5858440000000  0.4611090000000 1.0
C      1  0.4484310000000  0.5881400000000  0.4860360000000 1.0
C      1  0.5149230000000  0.5850070000000  0.5498790000000 1.0
C      1  0.5339310000000  0.5849290000000  0.4601330000000 1.0
C      1  0.4483030000000  0.4133760000000  0.5116980000000 1.0
C      1  0.5157510000000  0.4116260000000  0.4499690000000 1.0
C      1  0.5357310000000  0.4136750000000  0.5363910000000 1.0
C      1  0.4465140000000  0.4520560000000  0.5613120000000 1.0
C      1  0.5749480000000  0.4509710000000  0.5250920000000 1.0
C      1  0.4758860000000  0.4574500000000  0.4257730000000 1.0
C      1  0.4467970000000  0.5410260000000  0.4433650000000 1.0
C      1  0.5813760000000  0.5449900000000  0.4906000000000 1.0
C      1  0.4875230000000  0.5465960000000  0.5734180000000 1.0
C      1  0.5560420000000  0.5394240000000  0.4417980000000 1.0
C      1  0.4177590000000  0.5438400000000  0.4876370000000 1.0
C      1  0.5274560000000  0.5420810000000  0.5750450000000 1.0
C      1  0.5571840000000  0.4527380000000  0.5492970000000 1.0
C      1  0.4272420000000  0.4538060000000  0.5230790000000 1.0
C      1  0.5284190000000  0.4552910000000  0.4229310000000 1.0
C      1  0.5492750000000  0.4651020000000  0.5241030000000 1.0
C      1  0.4322560000000  0.5291060000000  0.4656740000000 1.0
C      1  0.5062790000000  0.5288400000000  0.5612310000000 1.0
C      1  0.5681860000000  0.5309040000000  0.4675180000000 1.0
C      1  0.5026420000000  0.4705300000000  0.4252660000000 1.0
C      1  0.4473820000000  0.4696110000000  0.5363330000000 1.0
C      1  0.4980440000000  0.4554780000000  0.4987880000000 1.0
C      1  0.5002970000000  0.5433150000000  0.4997610000000 1.0
END
