TITL C-2441163-1170-636 0.064117339194524 125000 -23050.168085729 0 0 163 (C1) n - 1
REM
REM in /home/bkarasulu/work/CARBON/AIRSS/Generating-Clusters/ReaxFF-fromJPCA2015/Units_Real/with-SteepDescent/Higher-Symm
REM
REM
REM
REM
REM
REM ./C.cell (1df0a924f5614ab8850e4351716899ee)
REM
REM compiler GCC version 9.2.1 20190827 (Red Hat 9.2.1-1)
REM options -cpp -mtune=generic -march=x86-64 -g -O0 -fpre-include=/usr/include/finclude/math-vector-fortran.h
REM seed -1880741875 1654440082 1739412348 -2018929356 1542286918 434691983 1138857120 -97159802 -761172620 -2120427616 -1831001825 -1172503167 692419557 865593261 -882898741 895481726 2060348312 -1789618450 -2016311743 -947936550 1048846589 1381797277 -1862683010 -1453555870 705874250 -1801789991 -989285816 14970589 -131752115 1540006781 195199536 -692772793 -1589826721
REM
CELL 1.54180   50.00000   50.00000   50.00000   90.00000   90.00000   90.00000
LATT -1
SFAC C  
C      1  0.5151500000000  0.4202090000000  0.5662080000000 1.0
C      1  0.5137750000000  0.4257800000000  0.4514540000000 1.0
C      1  0.5153230000000  0.5267240000000  0.4112370000000 1.0
C      1  0.5156110000000  0.5913740000000  0.5000960000000 1.0
C      1  0.5122890000000  0.5316440000000  0.5878170000000 1.0
C      1  0.4007130000000  0.5301410000000  0.5202820000000 1.0
C      1  0.4038980000000  0.4957160000000  0.5438720000000 1.0
C      1  0.4033440000000  0.4600490000000  0.5062890000000 1.0
C      1  0.3992890000000  0.4839950000000  0.4902640000000 1.0
C      1  0.4028840000000  0.5290750000000  0.4729130000000 1.0
C      1  0.5647110000000  0.4332760000000  0.5509010000000 1.0
C      1  0.5638030000000  0.4325960000000  0.4534490000000 1.0
C      1  0.5631600000000  0.5235360000000  0.4197920000000 1.0
C      1  0.5620780000000  0.5827800000000  0.5021230000000 1.0
C      1  0.5659680000000  0.5274520000000  0.5778200000000 1.0
C      1  0.4422740000000  0.4351360000000  0.4867960000000 1.0
C      1  0.4430840000000  0.4946220000000  0.4265590000000 1.0
C      1  0.4503380000000  0.5686270000000  0.4703840000000 1.0
C      1  0.4550470000000  0.5477280000000  0.5534090000000 1.0
C      1  0.4427020000000  0.4681080000000  0.5732280000000 1.0
C      1  0.5077310000000  0.5855710000000  0.4461490000000 1.0
C      1  0.5106520000000  0.5806980000000  0.5635920000000 1.0
C      1  0.5051740000000  0.4618790000000  0.5975280000000 1.0
C      1  0.5099180000000  0.3971210000000  0.4944250000000 1.0
C      1  0.5093160000000  0.4746690000000  0.4113100000000 1.0
C      1  0.5783460000000  0.4834160000000  0.4841140000000 1.0
C      1  0.5737550000000  0.5118810000000  0.4783480000000 1.0
C      1  0.5789370000000  0.5244560000000  0.5041270000000 1.0
C      1  0.5780400000000  0.5038090000000  0.5245230000000 1.0
C      1  0.5783330000000  0.4782810000000  0.5128040000000 1.0
C      1  0.4731080000000  0.4085310000000  0.5604180000000 1.0
C      1  0.4717180000000  0.4125440000000  0.4344840000000 1.0
C      1  0.4703570000000  0.5330290000000  0.3974950000000 1.0
C      1  0.4715560000000  0.6082170000000  0.4972960000000 1.0
C      1  0.4717350000000  0.5344130000000  0.6046340000000 1.0
C      1  0.5845000000000  0.4341470000000  0.5032870000000 1.0
C      1  0.5836330000000  0.4776330000000  0.4393920000000 1.0
C      1  0.5818450000000  0.5525190000000  0.4611230000000 1.0
C      1  0.5856290000000  0.5535990000000  0.5368120000000 1.0
C      1  0.5842180000000  0.4815740000000  0.5632690000000 1.0
C      1  0.4647580000000  0.5672120000000  0.4292620000000 1.0
C      1  0.4651930000000  0.5862680000000  0.5384210000000 1.0
C      1  0.4611040000000  0.4867130000000  0.5896120000000 1.0
C      1  0.4653420000000  0.4045700000000  0.5087590000000 1.0
C      1  0.4645660000000  0.4555380000000  0.4110550000000 1.0
C      1  0.5012710000000  0.4861610000000  0.5281570000000 1.0
C      1  0.4974900000000  0.4681960000000  0.4824900000000 1.0
C      1  0.4972870000000  0.5140220000000  0.4647930000000 1.0
C      1  0.4944340000000  0.5227470000000  0.5034890000000 1.0
C      1  0.4955580000000  0.5248350000000  0.5297320000000 1.0
C      1  0.5658960000000  0.4203060000000  0.5232930000000 1.0
C      1  0.5665460000000  0.4552250000000  0.4311840000000 1.0
C      1  0.5639320000000  0.5513180000000  0.4370060000000 1.0
C      1  0.5605720000000  0.5655490000000  0.5260870000000 1.0
C      1  0.5670700000000  0.4968500000000  0.5823160000000 1.0
C      1  0.4520220000000  0.5423970000000  0.4179910000000 1.0
C      1  0.4568810000000  0.5865200000000  0.5102710000000 1.0
C      1  0.4559730000000  0.5153940000000  0.5880210000000 1.0
C      1  0.4579580000000  0.4250810000000  0.5409410000000 1.0
C      1  0.4566880000000  0.4378400000000  0.4348100000000 1.0
C      1  0.5168210000000  0.5361630000000  0.4646840000000 1.0
C      1  0.5097400000000  0.5489760000000  0.5347300000000 1.0
C      1  0.5103360000000  0.4850840000000  0.5561410000000 1.0
C      1  0.5109340000000  0.4463910000000  0.5017230000000 1.0
C      1  0.5185780000000  0.4758230000000  0.4393810000000 1.0
C      1  0.4564870000000  0.5865370000000  0.4517560000000 1.0
C      1  0.4534680000000  0.5710280000000  0.5662350000000 1.0
C      1  0.4490570000000  0.4415510000000  0.5872190000000 1.0
C      1  0.4559360000000  0.3927370000000  0.4837970000000 1.0
C      1  0.4552580000000  0.4811680000000  0.4009660000000 1.0
C      1  0.5918300000000  0.5052670000000  0.5492570000000 1.0
C      1  0.5921040000000  0.4545150000000  0.5217050000000 1.0
C      1  0.5910040000000  0.4660660000000  0.4646850000000 1.0
C      1  0.5888850000000  0.5246330000000  0.4571990000000 1.0
C      1  0.5930120000000  0.5495050000000  0.5093880000000 1.0
C      1  0.4756000000000  0.6037540000000  0.4679760000000 1.0
C      1  0.4729290000000  0.5601920000000  0.5905590000000 1.0
C      1  0.4720600000000  0.4237280000000  0.5855960000000 1.0
C      1  0.4745090000000  0.3972660000000  0.4595530000000 1.0
C      1  0.4714570000000  0.5033130000000  0.3920370000000 1.0
C      1  0.5463090000000  0.4771030000000  0.4801290000000 1.0
C      1  0.5420320000000  0.5044630000000  0.4732520000000 1.0
C      1  0.5501200000000  0.5366620000000  0.5093390000000 1.0
C      1  0.5440030000000  0.5134560000000  0.5272830000000 1.0
C      1  0.5459270000000  0.4686000000000  0.5215450000000 1.0
C      1  0.4962670000000  0.5836420000000  0.4734380000000 1.0
C      1  0.4993700000000  0.5618300000000  0.5826810000000 1.0
C      1  0.4987980000000  0.4353670000000  0.5857880000000 1.0
C      1  0.4990280000000  0.4050850000000  0.4687970000000 1.0
C      1  0.4917620000000  0.5013740000000  0.4139300000000 1.0
C      1  0.4270540000000  0.5111790000000  0.5463050000000 1.0
C      1  0.4235890000000  0.4637940000000  0.5268320000000 1.0
C      1  0.4209790000000  0.4737690000000  0.4712960000000 1.0
C      1  0.4214620000000  0.5156760000000  0.4529800000000 1.0
C      1  0.4208090000000  0.5470270000000  0.5080430000000 1.0
C      1  0.4743780000000  0.5111050000000  0.5412760000000 1.0
C      1  0.4763800000000  0.4699230000000  0.5237890000000 1.0
C      1  0.4698920000000  0.4688310000000  0.4731540000000 1.0
C      1  0.4695730000000  0.5166380000000  0.4571310000000 1.0
C      1  0.4723630000000  0.5402770000000  0.4998650000000 1.0
C      1  0.5479770000000  0.4803730000000  0.5923210000000 1.0
C      1  0.5461070000000  0.4075290000000  0.5096480000000 1.0
C      1  0.5504690000000  0.4666960000000  0.4125200000000 1.0
C      1  0.5451290000000  0.5704300000000  0.4412310000000 1.0
C      1  0.5449270000000  0.5781110000000  0.5403010000000 1.0
C      1  0.5378660000000  0.4006410000000  0.4848640000000 1.0
C      1  0.5367530000000  0.4848690000000  0.3979590000000 1.0
C      1  0.5354410000000  0.5909600000000  0.4563810000000 1.0
C      1  0.5381140000000  0.5724760000000  0.5653020000000 1.0
C      1  0.5336810000000  0.4580680000000  0.5934300000000 1.0
C      1  0.4088450000000  0.5559690000000  0.4827430000000 1.0
C      1  0.4112560000000  0.5352950000000  0.5482940000000 1.0
C      1  0.4152930000000  0.4717220000000  0.5535470000000 1.0
C      1  0.4150130000000  0.4454000000000  0.4835130000000 1.0
C      1  0.4213380000000  0.4878640000000  0.4460770000000 1.0
C      1  0.5837180000000  0.4546760000000  0.5498970000000 1.0
C      1  0.5834080000000  0.4395910000000  0.4741790000000 1.0
C      1  0.5817970000000  0.5076020000000  0.4345280000000 1.0
C      1  0.5822830000000  0.5654630000000  0.4878990000000 1.0
C      1  0.5857650000000  0.5326750000000  0.5575510000000 1.0
C      1  0.4704390000000  0.5032110000000  0.4339110000000 1.0
C      1  0.4709890000000  0.5661160000000  0.4893820000000 1.0
C      1  0.4677050000000  0.5260110000000  0.5632320000000 1.0
C      1  0.4792590000000  0.4454470000000  0.5350190000000 1.0
C      1  0.4596240000000  0.4444930000000  0.4631800000000 1.0
C      1  0.4329640000000  0.5226540000000  0.4270990000000 1.0
C      1  0.4300830000000  0.5750010000000  0.4807980000000 1.0
C      1  0.4292840000000  0.5547940000000  0.5598540000000 1.0
C      1  0.4401600000000  0.4395220000000  0.5604750000000 1.0
C      1  0.4328840000000  0.4090550000000  0.4847970000000 1.0
C      1  0.4493300000000  0.4790760000000  0.5154510000000 1.0
C      1  0.4486760000000  0.4834150000000  0.4847160000000 1.0
C      1  0.4473320000000  0.5118920000000  0.4760320000000 1.0
C      1  0.4464280000000  0.5280910000000  0.5025420000000 1.0
C      1  0.4493600000000  0.5071810000000  0.5263380000000 1.0
C      1  0.5424040000000  0.5439610000000  0.5782730000000 1.0
C      1  0.5394910000000  0.4378420000000  0.5663050000000 1.0
C      1  0.5420190000000  0.4161670000000  0.4589440000000 1.0
C      1  0.5425080000000  0.5134280000000  0.4028130000000 1.0
C      1  0.5414430000000  0.5946140000000  0.4858350000000 1.0
C      1  0.4924560000000  0.5700950000000  0.4241420000000 1.0
C      1  0.4915850000000  0.5946690000000  0.5421810000000 1.0
C      1  0.4882140000000  0.4865130000000  0.5990000000000 1.0
C      1  0.4919070000000  0.4021450000000  0.5178230000000 1.0
C      1  0.4926570000000  0.4483960000000  0.4091640000000 1.0
C      1  0.5294640000000  0.5455450000000  0.4899640000000 1.0
C      1  0.5290050000000  0.5306790000000  0.5495430000000 1.0
C      1  0.5274320000000  0.4611050000000  0.5463770000000 1.0
C      1  0.5379140000000  0.4540570000000  0.4961450000000 1.0
C      1  0.5311690000000  0.5011260000000  0.4468300000000 1.0
C      1  0.5129790000000  0.5121200000000  0.5651530000000 1.0
C      1  0.5080070000000  0.4442140000000  0.5302740000000 1.0
C      1  0.5115160000000  0.4563100000000  0.4581330000000 1.0
C      1  0.5258930000000  0.5275790000000  0.4389330000000 1.0
C      1  0.5154280000000  0.5614330000000  0.5097240000000 1.0
C      1  0.4943290000000  0.5155200000000  0.6054940000000 1.0
C      1  0.4987740000000  0.4046170000000  0.5478750000000 1.0
C      1  0.4962950000000  0.4245480000000  0.4245440000000 1.0
C      1  0.4944150000000  0.5483890000000  0.4047830000000 1.0
C      1  0.4943800000000  0.6076360000000  0.5162400000000 1.0
C      1  0.3971450000000  0.5127000000000  0.4955760000000 1.0
C      1  0.5282940000000  0.4916460000000  0.5148700000000 1.0
C      1  0.4962160000000  0.4992440000000  0.4881740000000 1.0
END
