TITL C-2441169-1362-1143 0.00268844789398187 125000 -5389.86709700907 0 0 38 (Ci) n - 1
REM
REM in /home/bkarasulu/work/CARBON/AIRSS/Generating-Clusters/ReaxFF-fromJPCA2015/Units_Real/with-SteepDescent/Higher-Symm
REM
REM
REM
REM
REM
REM ./C.cell (1df0a924f5614ab8850e4351716899ee)
REM
REM compiler GCC version 9.2.1 20190827 (Red Hat 9.2.1-1)
REM options -cpp -mtune=generic -march=x86-64 -g -O0 -fpre-include=/usr/include/finclude/math-vector-fortran.h
REM seed -921888556 867696537 366553583 -62727995 -1756845717 1181183770 1650244030 -1271623197 -1030772296 -785483271 -160162806 -1308899329 -339875646 -538374978 613304281 -940545037 -1827131944 1628797337 -1915810842 -487049967 -761146153 1332334640 -1873667152 -1597578218 -530871559 -1234945220 -384594851 1317990856 -633163922 1841006420 792774683 -217192249 198503272
REM
CELL 1.54180   50.00000   50.00000   50.00000   90.00000   90.00000   90.00000
LATT -1
SFAC C  
C      1  0.5313920000000  0.5587240000000  0.5406670000000 1.0
C      1  0.4704430000000  0.4334280000000  0.5459490000000 1.0
C      1  0.5296470000000  0.5665660000000  0.4549860000000 1.0
C      1  0.4685920000000  0.4412440000000  0.4602800000000 1.0
C      1  0.4797180000000  0.5500030000000  0.5109130000000 1.0
C      1  0.5206690000000  0.4484150000000  0.5149980000000 1.0
C      1  0.4793350000000  0.5514700000000  0.4859010000000 1.0
C      1  0.5203220000000  0.4500280000000  0.4900080000000 1.0
C      1  0.4561120000000  0.4960910000000  0.4867070000000 1.0
C      1  0.5489350000000  0.5103060000000  0.4886850000000 1.0
C      1  0.4510730000000  0.4896760000000  0.5122550000000 1.0
C      1  0.5438520000000  0.5038570000000  0.5142120000000 1.0
C      1  0.5396380000000  0.4999180000000  0.4624660000000 1.0
C      1  0.4610700000000  0.5019750000000  0.4601780000000 1.0
C      1  0.5388960000000  0.4980640000000  0.5407890000000 1.0
C      1  0.4603440000000  0.5000730000000  0.5384570000000 1.0
C      1  0.4583340000000  0.4445200000000  0.5280120000000 1.0
C      1  0.5420050000000  0.5507590000000  0.5198870000000 1.0
C      1  0.4580350000000  0.4492010000000  0.4810380000000 1.0
C      1  0.5417530000000  0.5554540000000  0.4729310000000 1.0
C      1  0.4834450000000  0.4996760000000  0.5551070000000 1.0
C      1  0.5121810000000  0.4962600000000  0.5570090000000 1.0
C      1  0.4877860000000  0.5037660000000  0.4439240000000 1.0
C      1  0.5165130000000  0.5003570000000  0.4458300000000 1.0
C      1  0.5052360000000  0.5627360000000  0.4537900000000 1.0
C      1  0.4929360000000  0.4444420000000  0.4579780000000 1.0
C      1  0.5070340000000  0.5555250000000  0.5429280000000 1.0
C      1  0.4948040000000  0.4372540000000  0.5471440000000 1.0
C      1  0.5289060000000  0.4737140000000  0.5550840000000 1.0
C      1  0.4691910000000  0.5232110000000  0.5500180000000 1.0
C      1  0.5307720000000  0.4767990000000  0.4509210000000 1.0
C      1  0.4711110000000  0.5263510000000  0.4458960000000 1.0
C      1  0.5212680000000  0.4472780000000  0.5426650000000 1.0
C      1  0.4796970000000  0.5478010000000  0.5386210000000 1.0
C      1  0.5202030000000  0.4522600000000  0.4622710000000 1.0
C      1  0.4787050000000  0.5527950000000  0.4582190000000 1.0
C      1  0.4479000000000  0.4594240000000  0.5059600000000 1.0
C      1  0.5521460000000  0.5405820000000  0.4949840000000 1.0
END
