TITL C-2441156-4686-320 -3.28609690395113e-10 125000 -1201.23131400587 0 0 9 (D(inf)h) n - 1
REM
REM in /home/bkarasulu/work/CARBON/AIRSS/Generating-Clusters/ReaxFF-fromJPCA2015/Units_Real/with-SteepDescent/Higher-Symm
REM
REM
REM
REM
REM
REM ./C.cell (1df0a924f5614ab8850e4351716899ee)
REM
REM compiler GCC version 9.2.1 20190827 (Red Hat 9.2.1-1)
REM options -cpp -mtune=generic -march=x86-64 -g -O0 -fpre-include=/usr/include/finclude/math-vector-fortran.h
REM seed 322597891 1660767899 -1282457528 420496893 1836734218 1852840804 1022945770 -472679831 369808578 -409527790 1013167196 1634695373 1479162819 -1238990234 921505808 559373065 -1416940322 -1827321852 566077155 -395048656 1022860781 124887275 -1337745973 1931787160 738139377 1280147791 1684455002 1519181572 1022572995 -377548360 -690425500 1418088239 -2041278446
REM
CELL 1.54180   50.00000   50.00000   50.00000   90.00000   90.00000   90.00000
LATT -1
SFAC C  
C      1  0.4989760000000  0.5253220000000  0.4999950000000 1.0
C      1  0.4989760000000  0.3992470000000  0.4999950000000 1.0
C      1  0.4989760000000  0.4236630000000  0.4999950000000 1.0
C      1  0.4989760000000  0.6007530000000  0.4999950000000 1.0
C      1  0.4989760000000  0.5000000000000  0.4999950000000 1.0
C      1  0.4989760000000  0.4494110000000  0.4999950000000 1.0
C      1  0.4989760000000  0.4746780000000  0.4999950000000 1.0
C      1  0.4989760000000  0.5763370000000  0.4999950000000 1.0
C      1  0.4989760000000  0.5505890000000  0.4999950000000 1.0
END
