TITL C-2441158-471-1419 0.0708732506267989 125000 -25224.9614165761 0 0 182 (C1) n - 1
REM
REM in /home/bkarasulu/work/CARBON/AIRSS/Generating-Clusters/ReaxFF-fromJPCA2015/Units_Real/with-SteepDescent/Higher-Symm
REM
REM
REM
REM
REM
REM ./C.cell (1df0a924f5614ab8850e4351716899ee)
REM
REM compiler GCC version 9.2.1 20190827 (Red Hat 9.2.1-1)
REM options -cpp -mtune=generic -march=x86-64 -g -O0 -fpre-include=/usr/include/finclude/math-vector-fortran.h
REM seed -392600804 -1917805774 868645423 1399422959 -1794650712 -1361451600 -1316923788 993122725 -831923647 1348351072 1293250397 -2037804692 -126225788 292097881 -1559095053 1044283904 1572056953 115365366 -45874118 222307041 1911671132 -428656386 -1853662706 -1206825777 -1932372254 1067898614 -336482859 615256798 -1212909975 1156795387 1337084377 -733830914 -569676033
REM
CELL 1.54180   50.00000   50.00000   50.00000   90.00000   90.00000   90.00000
LATT -1
SFAC C  
C      1  0.4603150000000  0.5956400000000  0.4860980000000 1.0
C      1  0.5407700000000  0.5968000000000  0.5151270000000 1.0
C      1  0.4583060000000  0.4042180000000  0.4855690000000 1.0
C      1  0.5405470000000  0.4060460000000  0.5146090000000 1.0
C      1  0.4601730000000  0.5961270000000  0.5151260000000 1.0
C      1  0.5403990000000  0.5956610000000  0.4857350000000 1.0
C      1  0.4580600000000  0.4045340000000  0.5148270000000 1.0
C      1  0.5405440000000  0.4057370000000  0.4853180000000 1.0
C      1  0.4476700000000  0.4567510000000  0.4864770000000 1.0
C      1  0.5484760000000  0.4589950000000  0.5142430000000 1.0
C      1  0.4475260000000  0.5442790000000  0.4854570000000 1.0
C      1  0.5497790000000  0.5429930000000  0.5155800000000 1.0
C      1  0.4480550000000  0.4570610000000  0.5151900000000 1.0
C      1  0.5518260000000  0.4588460000000  0.4853470000000 1.0
C      1  0.4450210000000  0.5447390000000  0.5143960000000 1.0
C      1  0.5458220000000  0.5445870000000  0.4864700000000 1.0
C      1  0.4323040000000  0.4836720000000  0.5158230000000 1.0
C      1  0.5652050000000  0.4855360000000  0.4862080000000 1.0
C      1  0.4299030000000  0.5180400000000  0.5140610000000 1.0
C      1  0.5535080000000  0.5132960000000  0.4833710000000 1.0
C      1  0.4324770000000  0.4838370000000  0.4854410000000 1.0
C      1  0.5637280000000  0.4874210000000  0.5168250000000 1.0
C      1  0.4317180000000  0.5170800000000  0.4853930000000 1.0
C      1  0.5545030000000  0.5146520000000  0.5113320000000 1.0
C      1  0.4872370000000  0.5558520000000  0.4860360000000 1.0
C      1  0.5133540000000  0.5622770000000  0.5176580000000 1.0
C      1  0.4861650000000  0.4414360000000  0.4854680000000 1.0
C      1  0.5173530000000  0.4454510000000  0.5124750000000 1.0
C      1  0.4830480000000  0.5583260000000  0.5141800000000 1.0
C      1  0.5168160000000  0.5580120000000  0.4886190000000 1.0
C      1  0.4873510000000  0.4445510000000  0.5137580000000 1.0
C      1  0.5157870000000  0.4421420000000  0.4841430000000 1.0
C      1  0.4796980000000  0.5161340000000  0.4843360000000 1.0
C      1  0.5182130000000  0.5102610000000  0.5289640000000 1.0
C      1  0.4771840000000  0.4882640000000  0.4799210000000 1.0
C      1  0.5067470000000  0.4855510000000  0.5183790000000 1.0
C      1  0.4723860000000  0.5119020000000  0.5141850000000 1.0
C      1  0.5110970000000  0.5144880000000  0.4762560000000 1.0
C      1  0.4791800000000  0.4847320000000  0.5088250000000 1.0
C      1  0.5069100000000  0.4852100000000  0.4783030000000 1.0
C      1  0.5152020000000  0.3969060000000  0.5521850000000 1.0
C      1  0.4868190000000  0.3982570000000  0.4468750000000 1.0
C      1  0.5144030000000  0.6029870000000  0.5553550000000 1.0
C      1  0.4861580000000  0.6026600000000  0.4447500000000 1.0
C      1  0.5151460000000  0.3962100000000  0.4476740000000 1.0
C      1  0.4866560000000  0.3984220000000  0.5535290000000 1.0
C      1  0.5140110000000  0.6035760000000  0.4446390000000 1.0
C      1  0.4863100000000  0.6030580000000  0.5557980000000 1.0
C      1  0.5347700000000  0.5093040000000  0.4473310000000 1.0
C      1  0.4626030000000  0.5195630000000  0.5417920000000 1.0
C      1  0.5370750000000  0.4812300000000  0.4418470000000 1.0
C      1  0.4612690000000  0.4776760000000  0.5529950000000 1.0
C      1  0.5378830000000  0.5100570000000  0.5519310000000 1.0
C      1  0.4653260000000  0.5198020000000  0.4489230000000 1.0
C      1  0.5358020000000  0.4816750000000  0.5591110000000 1.0
C      1  0.4624720000000  0.4770550000000  0.4517910000000 1.0
C      1  0.5563880000000  0.5771240000000  0.5594700000000 1.0
C      1  0.4435670000000  0.5791160000000  0.4388570000000 1.0
C      1  0.5563590000000  0.4231640000000  0.5607540000000 1.0
C      1  0.4447220000000  0.4223160000000  0.4396830000000 1.0
C      1  0.5555570000000  0.5778850000000  0.4400190000000 1.0
C      1  0.4438860000000  0.5768770000000  0.5618790000000 1.0
C      1  0.5567200000000  0.4226880000000  0.4397280000000 1.0
C      1  0.4440170000000  0.4232730000000  0.5611440000000 1.0
C      1  0.5941310000000  0.5407240000000  0.4707040000000 1.0
C      1  0.4039350000000  0.5437240000000  0.5345820000000 1.0
C      1  0.5943550000000  0.4602880000000  0.4683430000000 1.0
C      1  0.4039310000000  0.4563450000000  0.5329730000000 1.0
C      1  0.5951590000000  0.5400610000000  0.5293720000000 1.0
C      1  0.4044710000000  0.5437060000000  0.4659230000000 1.0
C      1  0.5934330000000  0.4595950000000  0.5317540000000 1.0
C      1  0.4046990000000  0.4568940000000  0.4674440000000 1.0
C      1  0.4172870000000  0.5362530000000  0.4405160000000 1.0
C      1  0.5836390000000  0.5355050000000  0.5558540000000 1.0
C      1  0.4150990000000  0.4624670000000  0.4410370000000 1.0
C      1  0.5852080000000  0.4620660000000  0.5595660000000 1.0
C      1  0.4174890000000  0.5352760000000  0.5595670000000 1.0
C      1  0.5824460000000  0.5364110000000  0.4443130000000 1.0
C      1  0.4138630000000  0.4621150000000  0.5592990000000 1.0
C      1  0.5856510000000  0.4622650000000  0.4409430000000 1.0
C      1  0.5609170000000  0.4183920000000  0.4683240000000 1.0
C      1  0.4384000000000  0.4166690000000  0.5333090000000 1.0
C      1  0.5605800000000  0.5821610000000  0.4690590000000 1.0
C      1  0.4399060000000  0.5844310000000  0.5335180000000 1.0
C      1  0.5609230000000  0.4185850000000  0.5319840000000 1.0
C      1  0.4386110000000  0.4163630000000  0.4675990000000 1.0
C      1  0.5608400000000  0.5828520000000  0.5311970000000 1.0
C      1  0.4396310000000  0.5851290000000  0.4673130000000 1.0
C      1  0.5295150000000  0.5841910000000  0.5695310000000 1.0
C      1  0.4700700000000  0.5849110000000  0.4294590000000 1.0
C      1  0.5295620000000  0.4154160000000  0.5693810000000 1.0
C      1  0.4718120000000  0.4162910000000  0.4306440000000 1.0
C      1  0.5300050000000  0.5876650000000  0.4272160000000 1.0
C      1  0.4703980000000  0.5841950000000  0.5710290000000 1.0
C      1  0.5298310000000  0.4150490000000  0.4309210000000 1.0
C      1  0.4709670000000  0.4167420000000  0.5702200000000 1.0
C      1  0.5665330000000  0.4843890000000  0.5972340000000 1.0
C      1  0.4376740000000  0.4884100000000  0.4054400000000 1.0
C      1  0.5606920000000  0.5115120000000  0.6001440000000 1.0
C      1  0.4464160000000  0.5152870000000  0.4013410000000 1.0
C      1  0.5658210000000  0.4846070000000  0.4041820000000 1.0
C      1  0.4351640000000  0.4851840000000  0.5946060000000 1.0
C      1  0.5595320000000  0.5117640000000  0.3997070000000 1.0
C      1  0.4424440000000  0.5122810000000  0.5971330000000 1.0
C      1  0.4336540000000  0.4475910000000  0.5755330000000 1.0
C      1  0.5649110000000  0.4470780000000  0.4251150000000 1.0
C      1  0.4366880000000  0.5513510000000  0.5749240000000 1.0
C      1  0.5666030000000  0.5537000000000  0.4274450000000 1.0
C      1  0.4347850000000  0.4465340000000  0.4265810000000 1.0
C      1  0.5641000000000  0.4475280000000  0.5751830000000 1.0
C      1  0.4344650000000  0.5546250000000  0.4250610000000 1.0
C      1  0.5679320000000  0.5537330000000  0.5724380000000 1.0
C      1  0.4815610000000  0.5585710000000  0.4239840000000 1.0
C      1  0.5135370000000  0.5592330000000  0.5732380000000 1.0
C      1  0.4856370000000  0.4409210000000  0.4250910000000 1.0
C      1  0.5145730000000  0.4399050000000  0.5749190000000 1.0
C      1  0.4830040000000  0.5584050000000  0.5727680000000 1.0
C      1  0.5121080000000  0.5642290000000  0.4235650000000 1.0
C      1  0.4852930000000  0.4414450000000  0.5751200000000 1.0
C      1  0.5151670000000  0.4396580000000  0.4254230000000 1.0
C      1  0.4536000000000  0.4633300000000  0.4102770000000 1.0
C      1  0.5453530000000  0.4628220000000  0.5934000000000 1.0
C      1  0.4550460000000  0.5410440000000  0.4093940000000 1.0
C      1  0.5525390000000  0.5371170000000  0.5927410000000 1.0
C      1  0.4541060000000  0.4633380000000  0.5913610000000 1.0
C      1  0.5455400000000  0.4621490000000  0.4077350000000 1.0
C      1  0.4573330000000  0.5347040000000  0.5903190000000 1.0
C      1  0.5503260000000  0.5365000000000  0.4085470000000 1.0
C      1  0.5762810000000  0.5616280000000  0.4832320000000 1.0
C      1  0.4232900000000  0.5628780000000  0.5232650000000 1.0
C      1  0.5763680000000  0.4401430000000  0.4821610000000 1.0
C      1  0.4239210000000  0.4380360000000  0.5190140000000 1.0
C      1  0.5758980000000  0.5607180000000  0.5169220000000 1.0
C      1  0.4251800000000  0.5618400000000  0.4769880000000 1.0
C      1  0.5754230000000  0.4401900000000  0.5181720000000 1.0
C      1  0.4238020000000  0.4378870000000  0.4815620000000 1.0
C      1  0.5146230000000  0.3951140000000  0.4766650000000 1.0
C      1  0.4840250000000  0.3974350000000  0.5248790000000 1.0
C      1  0.5153460000000  0.6040000000000  0.4732250000000 1.0
C      1  0.4852950000000  0.6040780000000  0.5269790000000 1.0
C      1  0.5148280000000  0.3956350000000  0.5232530000000 1.0
C      1  0.4841160000000  0.3969810000000  0.4750650000000 1.0
C      1  0.5155300000000  0.6059410000000  0.5270350000000 1.0
C      1  0.4852360000000  0.6033240000000  0.4734480000000 1.0
C      1  0.4021740000000  0.4795810000000  0.5150850000000 1.0
C      1  0.5981530000000  0.4849100000000  0.4846460000000 1.0
C      1  0.4001850000000  0.5221810000000  0.5148940000000 1.0
C      1  0.6035900000000  0.5175550000000  0.4859130000000 1.0
C      1  0.4020850000000  0.4798750000000  0.4853200000000 1.0
C      1  0.5961900000000  0.4847090000000  0.5161490000000 1.0
C      1  0.4015240000000  0.5216450000000  0.4850520000000 1.0
C      1  0.6037220000000  0.5173620000000  0.5139460000000 1.0
C      1  0.5653190000000  0.5122900000000  0.4505460000000 1.0
C      1  0.4368500000000  0.5143220000000  0.5527210000000 1.0
C      1  0.5733720000000  0.4878060000000  0.4336570000000 1.0
C      1  0.4335420000000  0.4858330000000  0.5612740000000 1.0
C      1  0.5682910000000  0.5106090000000  0.5526770000000 1.0
C      1  0.4365150000000  0.5148330000000  0.4455050000000 1.0
C      1  0.5770950000000  0.4882170000000  0.5686660000000 1.0
C      1  0.4309780000000  0.4876440000000  0.4352280000000 1.0
C      1  0.5263880000000  0.5287520000000  0.5801140000000 1.0
C      1  0.4797930000000  0.5087950000000  0.4219530000000 1.0
C      1  0.5231960000000  0.4810620000000  0.5848700000000 1.0
C      1  0.4725840000000  0.4806790000000  0.4249300000000 1.0
C      1  0.5271540000000  0.5218610000000  0.4219030000000 1.0
C      1  0.4804420000000  0.5111100000000  0.5827610000000 1.0
C      1  0.5231800000000  0.4795750000000  0.4164430000000 1.0
C      1  0.4731600000000  0.4831370000000  0.5780130000000 1.0
C      1  0.5225870000000  0.5542770000000  0.4475050000000 1.0
C      1  0.4779680000000  0.5439480000000  0.5450500000000 1.0
C      1  0.5264460000000  0.4544200000000  0.4502890000000 1.0
C      1  0.4779330000000  0.4550570000000  0.5473080000000 1.0
C      1  0.5213220000000  0.5529910000000  0.5448710000000 1.0
C      1  0.4771080000000  0.5461670000000  0.4533790000000 1.0
C      1  0.5249190000000  0.4560320000000  0.5509760000000 1.0
C      1  0.4792070000000  0.4527200000000  0.4535850000000 1.0
C      1  0.5042770000000  0.5346670000000  0.4558380000000 1.0
C      1  0.5027460000000  0.4687930000000  0.5409230000000 1.0
C      1  0.5045100000000  0.5305990000000  0.5421310000000 1.0
C      1  0.5036670000000  0.4679370000000  0.4573190000000 1.0
C      1  0.5083790000000  0.5072660000000  0.5892430000000 1.0
C      1  0.5071030000000  0.5036850000000  0.4110150000000 1.0
END
