TITL C-2441154-10-1423 0.101493170182864 125000 -24582.5106362734 0 0 177 (C1) n - 1
REM
REM in /home/bkarasulu/work/CARBON/AIRSS/Generating-Clusters/ReaxFF-fromJPCA2015/Units_Real/with-SteepDescent/Higher-Symm
REM
REM
REM
REM
REM
REM ./C.cell (1df0a924f5614ab8850e4351716899ee)
REM
REM compiler GCC version 9.2.1 20190827 (Red Hat 9.2.1-1)
REM options -cpp -mtune=generic -march=x86-64 -g -O0 -fpre-include=/usr/include/finclude/math-vector-fortran.h
REM seed 1200481228 -528200827 -1438953330 829782727 609352231 876526278 -2031781845 -1872045003 -239938650 380240210 -1823888060 -913335751 -737209359 -840325719 861538 -1423509450 -722168019 -1233818152 626058470 -473657498 -1990716311 1171145337 548504829 2123857733 155220319 1808266024 694869901 798291962 -468252600 992051293 1566806841 -584463714 1975030161
REM
CELL 1.54180   50.00000   50.00000   50.00000   90.00000   90.00000   90.00000
LATT -1
SFAC C  
C      1  0.4650020000000  0.5264090000000  0.5972330000000 1.0
C      1  0.5844730000000  0.5305300000000  0.5649520000000 1.0
C      1  0.5886000000000  0.5328650000000  0.4382060000000 1.0
C      1  0.4600380000000  0.5264030000000  0.3991010000000 1.0
C      1  0.3979690000000  0.5275580000000  0.4964940000000 1.0
C      1  0.4659940000000  0.4749030000000  0.4030110000000 1.0
C      1  0.5783450000000  0.4763510000000  0.4356370000000 1.0
C      1  0.5872690000000  0.4740440000000  0.5567430000000 1.0
C      1  0.4692640000000  0.4695510000000  0.6055020000000 1.0
C      1  0.3921430000000  0.4712820000000  0.5024870000000 1.0
C      1  0.5836860000000  0.4274060000000  0.4931150000000 1.0
C      1  0.5213690000000  0.4281540000000  0.4181260000000 1.0
C      1  0.4289360000000  0.4336590000000  0.4551900000000 1.0
C      1  0.4421200000000  0.4406440000000  0.5510490000000 1.0
C      1  0.5311850000000  0.4302910000000  0.5779020000000 1.0
C      1  0.5762030000000  0.5579950000000  0.5070790000000 1.0
C      1  0.5141720000000  0.5585430000000  0.5773260000000 1.0
C      1  0.4344220000000  0.5616340000000  0.5428390000000 1.0
C      1  0.4364510000000  0.5736900000000  0.4477790000000 1.0
C      1  0.5281800000000  0.5593240000000  0.4286360000000 1.0
C      1  0.4578140000000  0.4850400000000  0.5219120000000 1.0
C      1  0.5072270000000  0.4860870000000  0.5488660000000 1.0
C      1  0.5479170000000  0.4884900000000  0.5084520000000 1.0
C      1  0.5195830000000  0.4875950000000  0.4608640000000 1.0
C      1  0.4645890000000  0.4888680000000  0.4725840000000 1.0
C      1  0.4586030000000  0.5162890000000  0.4846500000000 1.0
C      1  0.5081110000000  0.5152060000000  0.4555130000000 1.0
C      1  0.5479040000000  0.5206130000000  0.4869150000000 1.0
C      1  0.5233330000000  0.5162190000000  0.5424400000000 1.0
C      1  0.4666970000000  0.5170640000000  0.5355740000000 1.0
C      1  0.4033350000000  0.4763020000000  0.5490420000000 1.0
C      1  0.5147960000000  0.4808350000000  0.6050110000000 1.0
C      1  0.6102940000000  0.4760800000000  0.5179770000000 1.0
C      1  0.5482840000000  0.4810500000000  0.4032170000000 1.0
C      1  0.4277590000000  0.4833660000000  0.4178210000000 1.0
C      1  0.4094050000000  0.5219650000000  0.4509850000000 1.0
C      1  0.5133390000000  0.5235440000000  0.3919130000000 1.0
C      1  0.6025140000000  0.5209890000000  0.4838690000000 1.0
C      1  0.5497250000000  0.5207650000000  0.5938780000000 1.0
C      1  0.4248250000000  0.5230220000000  0.5768200000000 1.0
C      1  0.5488590000000  0.4601750000000  0.5459360000000 1.0
C      1  0.5623080000000  0.4597340000000  0.4698760000000 1.0
C      1  0.4947750000000  0.4689850000000  0.4325900000000 1.0
C      1  0.4341210000000  0.4773620000000  0.5015590000000 1.0
C      1  0.4791870000000  0.4795660000000  0.5622360000000 1.0
C      1  0.5498690000000  0.5168610000000  0.4576800000000 1.0
C      1  0.5541350000000  0.5111190000000  0.5295780000000 1.0
C      1  0.4814830000000  0.5285700000000  0.5579160000000 1.0
C      1  0.4402250000000  0.5321920000000  0.5024050000000 1.0
C      1  0.4774850000000  0.5244710000000  0.4404190000000 1.0
C      1  0.5121650000000  0.4665340000000  0.4803480000000 1.0
C      1  0.4826720000000  0.4701820000000  0.4840780000000 1.0
C      1  0.4812820000000  0.4718980000000  0.5106710000000 1.0
C      1  0.5052390000000  0.4663910000000  0.5255780000000 1.0
C      1  0.5241740000000  0.4730570000000  0.5057570000000 1.0
C      1  0.5143650000000  0.5321450000000  0.5209770000000 1.0
C      1  0.4874230000000  0.5365610000000  0.5178750000000 1.0
C      1  0.4808740000000  0.5372070000000  0.4895290000000 1.0
C      1  0.5049690000000  0.5321340000000  0.4784740000000 1.0
C      1  0.5257380000000  0.5386280000000  0.4954330000000 1.0
C      1  0.5233530000000  0.4711420000000  0.4386320000000 1.0
C      1  0.4368860000000  0.4829500000000  0.4732290000000 1.0
C      1  0.4577820000000  0.4690490000000  0.5465380000000 1.0
C      1  0.5335700000000  0.4794750000000  0.5604800000000 1.0
C      1  0.5661210000000  0.4820450000000  0.4865060000000 1.0
C      1  0.5082690000000  0.5248620000000  0.5680420000000 1.0
C      1  0.4431770000000  0.5334750000000  0.5295320000000 1.0
C      1  0.4518670000000  0.5234420000000  0.4536200000000 1.0
C      1  0.5308900000000  0.5295840000000  0.4416160000000 1.0
C      1  0.5618490000000  0.5307540000000  0.5098570000000 1.0
C      1  0.4915960000000  0.5756080000000  0.5686480000000 1.0
C      1  0.5608660000000  0.5812300000000  0.5237560000000 1.0
C      1  0.5348460000000  0.5827040000000  0.4464840000000 1.0
C      1  0.4655090000000  0.5795930000000  0.4462460000000 1.0
C      1  0.4375130000000  0.5833040000000  0.5201320000000 1.0
C      1  0.5010630000000  0.4177100000000  0.4367420000000 1.0
C      1  0.5627250000000  0.4119320000000  0.4783620000000 1.0
C      1  0.5379480000000  0.4180740000000  0.5520710000000 1.0
C      1  0.4644100000000  0.4190110000000  0.5556480000000 1.0
C      1  0.4361460000000  0.4249950000000  0.4825900000000 1.0
C      1  0.5522600000000  0.5735940000000  0.4674930000000 1.0
C      1  0.4814190000000  0.5557380000000  0.4392780000000 1.0
C      1  0.4401420000000  0.5619260000000  0.4948330000000 1.0
C      1  0.4765360000000  0.5578650000000  0.5539310000000 1.0
C      1  0.5391630000000  0.5717750000000  0.5412160000000 1.0
C      1  0.5487930000000  0.4345730000000  0.5287690000000 1.0
C      1  0.4850920000000  0.4397410000000  0.5604560000000 1.0
C      1  0.4340380000000  0.4468480000000  0.5034250000000 1.0
C      1  0.4771080000000  0.4339750000000  0.4457620000000 1.0
C      1  0.5471570000000  0.4359250000000  0.4624420000000 1.0
C      1  0.5776010000000  0.4364580000000  0.5198040000000 1.0
C      1  0.5451990000000  0.4360810000000  0.4320870000000 1.0
C      1  0.4500350000000  0.4396300000000  0.4369690000000 1.0
C      1  0.4222450000000  0.4378040000000  0.5280330000000 1.0
C      1  0.5035870000000  0.4383960000000  0.5832700000000 1.0
C      1  0.5771970000000  0.5630390000000  0.4767580000000 1.0
C      1  0.5418780000000  0.5615870000000  0.5676070000000 1.0
C      1  0.4520510000000  0.5646980000000  0.5661280000000 1.0
C      1  0.4235650000000  0.5635730000000  0.4709620000000 1.0
C      1  0.4991530000000  0.5586840000000  0.4172560000000 1.0
C      1  0.5721270000000  0.5466730000000  0.4219430000000 1.0
C      1  0.4502000000000  0.5507910000000  0.4052210000000 1.0
C      1  0.3978730000000  0.5437100000000  0.5181580000000 1.0
C      1  0.4860940000000  0.5413850000000  0.6071060000000 1.0
C      1  0.5958650000000  0.5453020000000  0.5458270000000 1.0
C      1  0.5688940000000  0.4538900000000  0.5672960000000 1.0
C      1  0.4491720000000  0.4537600000000  0.5958550000000 1.0
C      1  0.3964700000000  0.4606270000000  0.4773360000000 1.0
C      1  0.4861640000000  0.4542160000000  0.4082020000000 1.0
C      1  0.5862550000000  0.4557480000000  0.4537920000000 1.0
C      1  0.5215720000000  0.4363900000000  0.4755680000000 1.0
C      1  0.4809620000000  0.4208720000000  0.4734010000000 1.0
C      1  0.4830170000000  0.4200330000000  0.5142800000000 1.0
C      1  0.4978430000000  0.4355810000000  0.5357130000000 1.0
C      1  0.5279580000000  0.4222220000000  0.5018810000000 1.0
C      1  0.5111060000000  0.5796600000000  0.5299930000000 1.0
C      1  0.4849380000000  0.5650190000000  0.5243580000000 1.0
C      1  0.4702390000000  0.5645290000000  0.4937780000000 1.0
C      1  0.5109100000000  0.5822690000000  0.4793040000000 1.0
C      1  0.5329360000000  0.5704230000000  0.4894180000000 1.0
C      1  0.5386560000000  0.4000570000000  0.4866960000000 1.0
C      1  0.5088480000000  0.4127100000000  0.4650700000000 1.0
C      1  0.4573700000000  0.4039630000000  0.4830890000000 1.0
C      1  0.4734220000000  0.4026350000000  0.5346220000000 1.0
C      1  0.5131610000000  0.4092870000000  0.5408780000000 1.0
C      1  0.5438370000000  0.5971650000000  0.5073180000000 1.0
C      1  0.5011690000000  0.5985460000000  0.5503410000000 1.0
C      1  0.4483170000000  0.6057270000000  0.5208650000000 1.0
C      1  0.4822630000000  0.5999910000000  0.4584320000000 1.0
C      1  0.5120030000000  0.5982280000000  0.4564990000000 1.0
C      1  0.5513650000000  0.4476010000000  0.5901550000000 1.0
C      1  0.6005910000000  0.4464420000000  0.4775140000000 1.0
C      1  0.5122360000000  0.4473440000000  0.3975610000000 1.0
C      1  0.4037820000000  0.4498260000000  0.4528070000000 1.0
C      1  0.4290210000000  0.4462680000000  0.5789390000000 1.0
C      1  0.5510260000000  0.5557880000000  0.4073510000000 1.0
C      1  0.6037620000000  0.5532310000000  0.5212790000000 1.0
C      1  0.5116790000000  0.5528410000000  0.6067880000000 1.0
C      1  0.4042980000000  0.5530270000000  0.5431940000000 1.0
C      1  0.4296670000000  0.5586340000000  0.4232620000000 1.0
C      1  0.6109820000000  0.5262420000000  0.5116180000000 1.0
C      1  0.5425220000000  0.5293440000000  0.3977110000000 1.0
C      1  0.4202390000000  0.5303270000000  0.4254400000000 1.0
C      1  0.4048850000000  0.5262090000000  0.5551100000000 1.0
C      1  0.5255500000000  0.5271550000000  0.6105760000000 1.0
C      1  0.6103720000000  0.4712690000000  0.4890120000000 1.0
C      1  0.5431070000000  0.4731350000000  0.6015070000000 1.0
C      1  0.4178680000000  0.4732850000000  0.5745090000000 1.0
C      1  0.4066170000000  0.4756930000000  0.4378860000000 1.0
C      1  0.5225410000000  0.4742390000000  0.3925860000000 1.0
C      1  0.4965420000000  0.4583500000000  0.6032890000000 1.0
C      1  0.5942270000000  0.4570660000000  0.5333690000000 1.0
C      1  0.5546220000000  0.4630530000000  0.4248810000000 1.0
C      1  0.4445410000000  0.4601340000000  0.4158540000000 1.0
C      1  0.3998650000000  0.4561410000000  0.5278000000000 1.0
C      1  0.4892860000000  0.5380800000000  0.3994360000000 1.0
C      1  0.5939130000000  0.5425570000000  0.4654580000000 1.0
C      1  0.5611640000000  0.5425920000000  0.5784640000000 1.0
C      1  0.4446200000000  0.5430280000000  0.5843540000000 1.0
C      1  0.4061750000000  0.5408910000000  0.4717140000000 1.0
C      1  0.4349530000000  0.4962700000000  0.5815730000000 1.0
C      1  0.5488450000000  0.4938150000000  0.5819200000000 1.0
C      1  0.5929210000000  0.4935480000000  0.4809130000000 1.0
C      1  0.5051530000000  0.4969960000000  0.3986620000000 1.0
C      1  0.4141760000000  0.4943840000000  0.4584820000000 1.0
C      1  0.4375980000000  0.5113530000000  0.4121570000000 1.0
C      1  0.5538360000000  0.5070300000000  0.4122740000000 1.0
C      1  0.6044470000000  0.5026950000000  0.5285070000000 1.0
C      1  0.5086400000000  0.5081860000000  0.5962460000000 1.0
C      1  0.4047790000000  0.5024120000000  0.5371590000000 1.0
C      1  0.4058560000000  0.4983320000000  0.5080640000000 1.0
C      1  0.5709590000000  0.5055480000000  0.4382290000000 1.0
C      1  0.4641970000000  0.4946880000000  0.5874920000000 1.0
C      1  0.4834670000000  0.4940890000000  0.4192000000000 1.0
C      1  0.5814410000000  0.5032920000000  0.5478550000000 1.0
C      1  0.4841640000000  0.5886420000000  0.4849930000000 1.0
C      1  0.5072470000000  0.4025870000000  0.5124850000000 1.0
END
