TITL C-2441165-58-741 0.00981777137244475 125000 -17011.9970440499 0 0 112 (C1) n - 1
REM
REM in /home/bkarasulu/work/CARBON/AIRSS/Generating-Clusters/ReaxFF-fromJPCA2015/Units_Real/with-SteepDescent/Higher-Symm
REM
REM
REM
REM
REM
REM ./C.cell (1df0a924f5614ab8850e4351716899ee)
REM
REM compiler GCC version 9.2.1 20190827 (Red Hat 9.2.1-1)
REM options -cpp -mtune=generic -march=x86-64 -g -O0 -fpre-include=/usr/include/finclude/math-vector-fortran.h
REM seed 2069793821 58897483 361634733 1739508780 1801599942 983621081 -1241604740 -1094103255 -117217710 -1856980828 620753287 -511710110 -320948078 -1608089762 1892594016 -1363125120 1808254731 -743990407 -1142310403 -992520535 -1401036984 -1670834692 -1262092124 91935449 1446454993 -711923262 1650120967 -1554441772 923301363 -1102583013 -506899744 -10483791 1163637913
REM
CELL 1.54180   50.00000   50.00000   50.00000   90.00000   90.00000   90.00000
LATT -1
SFAC C  
C      1  0.4125080000000  0.4842000000000  0.4806930000000 1.0
C      1  0.4292000000000  0.4846860000000  0.5564340000000 1.0
C      1  0.5010960000000  0.4853520000000  0.5889850000000 1.0
C      1  0.5706680000000  0.4843450000000  0.5551870000000 1.0
C      1  0.5871400000000  0.4859840000000  0.4792220000000 1.0
C      1  0.5378510000000  0.4832540000000  0.4193970000000 1.0
C      1  0.4599720000000  0.4859270000000  0.4194350000000 1.0
C      1  0.5656090000000  0.4433450000000  0.4996930000000 1.0
C      1  0.5395460000000  0.4418820000000  0.4494070000000 1.0
C      1  0.4843150000000  0.4431370000000  0.4364480000000 1.0
C      1  0.4409090000000  0.4426990000000  0.4722150000000 1.0
C      1  0.4419450000000  0.4429260000000  0.5279560000000 1.0
C      1  0.4862260000000  0.4437500000000  0.5624870000000 1.0
C      1  0.5416310000000  0.4426020000000  0.5502800000000 1.0
C      1  0.5694250000000  0.4798780000000  0.4568590000000 1.0
C      1  0.5087590000000  0.4818860000000  0.4219010000000 1.0
C      1  0.4422120000000  0.4804270000000  0.4418740000000 1.0
C      1  0.4217530000000  0.4813350000000  0.5082120000000 1.0
C      1  0.4550820000000  0.4809040000000  0.5705230000000 1.0
C      1  0.5274480000000  0.4803220000000  0.5776780000000 1.0
C      1  0.5752570000000  0.4825390000000  0.5264470000000 1.0
C      1  0.4851730000000  0.4728500000000  0.5246440000000 1.0
C      1  0.5132410000000  0.4738380000000  0.5268840000000 1.0
C      1  0.5261940000000  0.4578960000000  0.5072420000000 1.0
C      1  0.5245150000000  0.4721080000000  0.4826570000000 1.0
C      1  0.5020960000000  0.4582830000000  0.4720860000000 1.0
C      1  0.4782630000000  0.4720270000000  0.4792340000000 1.0
C      1  0.4736060000000  0.4577100000000  0.5034510000000 1.0
C      1  0.5463510000000  0.5116750000000  0.4172230000000 1.0
C      1  0.4645990000000  0.5155940000000  0.4140480000000 1.0
C      1  0.4094670000000  0.5129230000000  0.4735640000000 1.0
C      1  0.4205020000000  0.5132640000000  0.5529270000000 1.0
C      1  0.4960800000000  0.5147300000000  0.5932900000000 1.0
C      1  0.5706610000000  0.5127660000000  0.5639990000000 1.0
C      1  0.5919920000000  0.5155610000000  0.4846090000000 1.0
C      1  0.5500280000000  0.4657440000000  0.5654680000000 1.0
C      1  0.5816590000000  0.4673050000000  0.5017660000000 1.0
C      1  0.5525000000000  0.4651020000000  0.4376570000000 1.0
C      1  0.4830560000000  0.4670540000000  0.4203710000000 1.0
C      1  0.4266180000000  0.4657380000000  0.4622470000000 1.0
C      1  0.4257800000000  0.4660550000000  0.5333730000000 1.0
C      1  0.4799390000000  0.4667560000000  0.5787410000000 1.0
C      1  0.5543260000000  0.4332020000000  0.5250300000000 1.0
C      1  0.5525340000000  0.4324270000000  0.4744680000000 1.0
C      1  0.5116820000000  0.4331020000000  0.4411060000000 1.0
C      1  0.4634530000000  0.4328640000000  0.4555600000000 1.0
C      1  0.4406860000000  0.4328670000000  0.5002870000000 1.0
C      1  0.4644980000000  0.4324710000000  0.5452870000000 1.0
C      1  0.5136730000000  0.4328060000000  0.5556360000000 1.0
C      1  0.5606110000000  0.5600150000000  0.5094360000000 1.0
C      1  0.5457290000000  0.5657260000000  0.4646810000000 1.0
C      1  0.4963060000000  0.5596110000000  0.4391110000000 1.0
C      1  0.4558410000000  0.5664020000000  0.4632600000000 1.0
C      1  0.4412220000000  0.5592820000000  0.5194580000000 1.0
C      1  0.4752460000000  0.5643040000000  0.5506550000000 1.0
C      1  0.5224290000000  0.5657620000000  0.5526780000000 1.0
C      1  0.5868430000000  0.5221430000000  0.5122420000000 1.0
C      1  0.5624460000000  0.5166220000000  0.4405270000000 1.0
C      1  0.4927910000000  0.5214970000000  0.4134150000000 1.0
C      1  0.4284070000000  0.5172930000000  0.4524480000000 1.0
C      1  0.4158630000000  0.5207890000000  0.5257060000000 1.0
C      1  0.4691820000000  0.5194930000000  0.5833870000000 1.0
C      1  0.5450900000000  0.5173160000000  0.5763350000000 1.0
C      1  0.5522210000000  0.5019490000000  0.4634800000000 1.0
C      1  0.5032700000000  0.5066300000000  0.4369550000000 1.0
C      1  0.4530840000000  0.5024950000000  0.4567700000000 1.0
C      1  0.4368930000000  0.5064480000000  0.5104110000000 1.0
C      1  0.4663570000000  0.5039400000000  0.5569430000000 1.0
C      1  0.5252070000000  0.5032940000000  0.5603240000000 1.0
C      1  0.5619530000000  0.5070100000000  0.5170570000000 1.0
C      1  0.5485600000000  0.5578570000000  0.5637070000000 1.0
C      1  0.5690740000000  0.5624850000000  0.4824100000000 1.0
C      1  0.5514430000000  0.5572960000000  0.4370720000000 1.0
C      1  0.4681530000000  0.5625830000000  0.4366810000000 1.0
C      1  0.4276710000000  0.5579870000000  0.4643840000000 1.0
C      1  0.4454020000000  0.5624250000000  0.5477350000000 1.0
C      1  0.4982430000000  0.5623010000000  0.5687500000000 1.0
C      1  0.5082310000000  0.5466810000000  0.4162610000000 1.0
C      1  0.4294670000000  0.5427430000000  0.4396850000000 1.0
C      1  0.4163380000000  0.5470490000000  0.5116650000000 1.0
C      1  0.4513320000000  0.5403030000000  0.5803870000000 1.0
C      1  0.5363970000000  0.5432700000000  0.5855130000000 1.0
C      1  0.5798430000000  0.5471620000000  0.5266300000000 1.0
C      1  0.5752120000000  0.5421940000000  0.4442390000000 1.0
C      1  0.5364150000000  0.5397800000000  0.4190350000000 1.0
C      1  0.4530590000000  0.5411430000000  0.4229650000000 1.0
C      1  0.4133730000000  0.5408230000000  0.4832400000000 1.0
C      1  0.4300810000000  0.5399870000000  0.5633040000000 1.0
C      1  0.5073380000000  0.5412220000000  0.5873000000000 1.0
C      1  0.5698760000000  0.5405100000000  0.5531570000000 1.0
C      1  0.5860570000000  0.5410270000000  0.4710990000000 1.0
C      1  0.4753840000000  0.5565310000000  0.4806640000000 1.0
C      1  0.4669880000000  0.5474440000000  0.5063790000000 1.0
C      1  0.4867400000000  0.5573150000000  0.5259110000000 1.0
C      1  0.5141490000000  0.5583550000000  0.5267010000000 1.0
C      1  0.5325350000000  0.5476750000000  0.5066560000000 1.0
C      1  0.5243420000000  0.5561870000000  0.4801410000000 1.0
C      1  0.5000120000000  0.5474450000000  0.4674010000000 1.0
C      1  0.5170560000000  0.5018210000000  0.5322140000000 1.0
C      1  0.5341500000000  0.5135790000000  0.5098580000000 1.0
C      1  0.5277260000000  0.5012200000000  0.4798320000000 1.0
C      1  0.5018100000000  0.5133020000000  0.4654800000000 1.0
C      1  0.4741910000000  0.5010700000000  0.4769640000000 1.0
C      1  0.4652320000000  0.5134650000000  0.5060640000000 1.0
C      1  0.4811360000000  0.5019600000000  0.5304890000000 1.0
C      1  0.5077480000000  0.4156120000000  0.5338720000000 1.0
C      1  0.5280170000000  0.4262290000000  0.5113470000000 1.0
C      1  0.5304690000000  0.4171180000000  0.4825960000000 1.0
C      1  0.5050450000000  0.4246070000000  0.4682780000000 1.0
C      1  0.4778010000000  0.4177630000000  0.4744630000000 1.0
C      1  0.4695070000000  0.4256890000000  0.5009630000000 1.0
C      1  0.4796850000000  0.4146610000000  0.5290420000000 1.0
END
