TITL C-2441154-10-417 0.131031620383366 125000 -24281.457192021 0 0 187 (C1) n - 1
REM
REM in /home/bkarasulu/work/CARBON/AIRSS/Generating-Clusters/ReaxFF-fromJPCA2015/Units_Real/with-SteepDescent/Higher-Symm
REM
REM
REM
REM
REM
REM ./C.cell (1df0a924f5614ab8850e4351716899ee)
REM
REM compiler GCC version 9.2.1 20190827 (Red Hat 9.2.1-1)
REM options -cpp -mtune=generic -march=x86-64 -g -O0 -fpre-include=/usr/include/finclude/math-vector-fortran.h
REM seed 280692196 2123500317 1763118326 -1358588030 167967598 1165459580 2122059593 -270198181 790057319 1158962034 1229737921 395403775 1043755913 126121144 -902959928 786311426 -211086539 2052772902 -1484216117 1618990319 1735907341 -1607715738 939798299 1924241822 -1580367829 -1564582175 -565327833 -63748062 409028178 1840629104 -448643346 1698788401 -201696660
REM
CELL 1.54180   50.00000   50.00000   50.00000   90.00000   90.00000   90.00000
LATT -1
SFAC C  
C      1  0.4875050000000  0.6102350000000  0.4932330000000 1.0
C      1  0.4501620000000  0.5190050000000  0.5610390000000 1.0
C      1  0.4286660000000  0.4716170000000  0.4826610000000 1.0
C      1  0.5316550000000  0.4117170000000  0.5605790000000 1.0
C      1  0.5340570000000  0.5562980000000  0.5813720000000 1.0
C      1  0.5824730000000  0.4580750000000  0.5458150000000 1.0
C      1  0.5409450000000  0.6050870000000  0.5013980000000 1.0
C      1  0.4765540000000  0.5195250000000  0.4954610000000 1.0
C      1  0.5275690000000  0.4061150000000  0.5284140000000 1.0
C      1  0.5758130000000  0.5553690000000  0.5584560000000 1.0
C      1  0.4247470000000  0.4268930000000  0.4842530000000 1.0
C      1  0.4297880000000  0.4320700000000  0.5621470000000 1.0
C      1  0.4135730000000  0.4222860000000  0.5352820000000 1.0
C      1  0.5092780000000  0.4163310000000  0.5783580000000 1.0
C      1  0.5873740000000  0.4501200000000  0.5183880000000 1.0
C      1  0.5627450000000  0.4730430000000  0.5699570000000 1.0
C      1  0.4970080000000  0.4961310000000  0.5610630000000 1.0
C      1  0.5431190000000  0.4235780000000  0.4345030000000 1.0
C      1  0.5111510000000  0.5279770000000  0.4803660000000 1.0
C      1  0.4616160000000  0.4721050000000  0.5143070000000 1.0
C      1  0.5195390000000  0.5132150000000  0.4341110000000 1.0
C      1  0.4791720000000  0.4162990000000  0.5753970000000 1.0
C      1  0.5371680000000  0.4614820000000  0.5181420000000 1.0
C      1  0.5632880000000  0.5221330000000  0.5948380000000 1.0
C      1  0.4877070000000  0.5402970000000  0.5131820000000 1.0
C      1  0.4368510000000  0.5457690000000  0.5569000000000 1.0
C      1  0.4558270000000  0.4048620000000  0.5007510000000 1.0
C      1  0.4686770000000  0.4987540000000  0.5129680000000 1.0
C      1  0.5521920000000  0.5239460000000  0.4988300000000 1.0
C      1  0.4160500000000  0.5367090000000  0.5793560000000 1.0
C      1  0.4169780000000  0.5143690000000  0.4607330000000 1.0
C      1  0.4235590000000  0.5113990000000  0.5898760000000 1.0
C      1  0.4648630000000  0.5557650000000  0.4152370000000 1.0
C      1  0.4899720000000  0.4658480000000  0.4958080000000 1.0
C      1  0.5141110000000  0.4289430000000  0.4886910000000 1.0
C      1  0.3995290000000  0.4744590000000  0.4745810000000 1.0
C      1  0.5779760000000  0.5603490000000  0.4934650000000 1.0
C      1  0.5717840000000  0.5040230000000  0.4929790000000 1.0
C      1  0.5187490000000  0.4488350000000  0.4029990000000 1.0
C      1  0.5753500000000  0.5702780000000  0.5192070000000 1.0
C      1  0.4542000000000  0.5753310000000  0.5595000000000 1.0
C      1  0.5885130000000  0.5052870000000  0.5580080000000 1.0
C      1  0.4333590000000  0.4698450000000  0.5083740000000 1.0
C      1  0.5491990000000  0.5299440000000  0.4711030000000 1.0
C      1  0.4646100000000  0.4667570000000  0.5436270000000 1.0
C      1  0.5183860000000  0.4775820000000  0.3983610000000 1.0
C      1  0.4188980000000  0.5467460000000  0.4594220000000 1.0
C      1  0.4065700000000  0.4871620000000  0.4496140000000 1.0
C      1  0.4712870000000  0.5081560000000  0.3935230000000 1.0
C      1  0.4537410000000  0.4308770000000  0.5790150000000 1.0
C      1  0.4317900000000  0.5243840000000  0.5083010000000 1.0
C      1  0.4510700000000  0.5306670000000  0.4865480000000 1.0
C      1  0.5012540000000  0.4437730000000  0.4526000000000 1.0
C      1  0.4486910000000  0.5665160000000  0.4378100000000 1.0
C      1  0.5506210000000  0.5698550000000  0.4856620000000 1.0
C      1  0.6048510000000  0.4970210000000  0.5178580000000 1.0
C      1  0.5539440000000  0.5976390000000  0.4767510000000 1.0
C      1  0.4705840000000  0.4591920000000  0.4564720000000 1.0
C      1  0.4474050000000  0.5069510000000  0.4620130000000 1.0
C      1  0.4539990000000  0.5105340000000  0.5898640000000 1.0
C      1  0.5618540000000  0.5503140000000  0.5842770000000 1.0
C      1  0.5935710000000  0.5410650000000  0.4773680000000 1.0
C      1  0.5131910000000  0.4199770000000  0.4402050000000 1.0
C      1  0.5199360000000  0.4778370000000  0.5559700000000 1.0
C      1  0.4859380000000  0.4504870000000  0.5526170000000 1.0
C      1  0.4990100000000  0.5680230000000  0.4498090000000 1.0
C      1  0.5387460000000  0.5106600000000  0.4565940000000 1.0
C      1  0.5261370000000  0.4833240000000  0.5998120000000 1.0
C      1  0.4506670000000  0.4615230000000  0.5847770000000 1.0
C      1  0.4437790000000  0.4986910000000  0.4067810000000 1.0
C      1  0.5147760000000  0.5441020000000  0.5166520000000 1.0
C      1  0.5847830000000  0.4521290000000  0.4528370000000 1.0
C      1  0.5151880000000  0.6078220000000  0.4863220000000 1.0
C      1  0.5417210000000  0.4615210000000  0.5894440000000 1.0
C      1  0.4410290000000  0.4321460000000  0.5357340000000 1.0
C      1  0.4867050000000  0.6104810000000  0.5222540000000 1.0
C      1  0.5107360000000  0.4741370000000  0.5140410000000 1.0
C      1  0.5271680000000  0.5685330000000  0.4198440000000 1.0
C      1  0.5436470000000  0.4462850000000  0.4170860000000 1.0
C      1  0.5671530000000  0.5634350000000  0.4410560000000 1.0
C      1  0.5929890000000  0.5517090000000  0.5340290000000 1.0
C      1  0.4712470000000  0.5708470000000  0.5844360000000 1.0
C      1  0.5532520000000  0.4218630000000  0.5285590000000 1.0
C      1  0.5478480000000  0.4710130000000  0.4323790000000 1.0
C      1  0.4823160000000  0.5067980000000  0.5359390000000 1.0
C      1  0.5458590000000  0.4899290000000  0.5510690000000 1.0
C      1  0.5283120000000  0.5253090000000  0.3934810000000 1.0
C      1  0.4957610000000  0.4549450000000  0.5796760000000 1.0
C      1  0.4664680000000  0.4838770000000  0.5957430000000 1.0
C      1  0.5755740000000  0.4986840000000  0.5825000000000 1.0
C      1  0.4383330000000  0.5248970000000  0.4174850000000 1.0
C      1  0.4867660000000  0.4259730000000  0.5290680000000 1.0
C      1  0.4673830000000  0.5758670000000  0.4614070000000 1.0
C      1  0.5194140000000  0.5664010000000  0.5004450000000 1.0
C      1  0.4431020000000  0.5974990000000  0.4990580000000 1.0
C      1  0.4863570000000  0.5237080000000  0.4691190000000 1.0
C      1  0.5221920000000  0.4028170000000  0.4780630000000 1.0
C      1  0.4211240000000  0.4637760000000  0.4404100000000 1.0
C      1  0.5583080000000  0.4804930000000  0.4875320000000 1.0
C      1  0.4587810000000  0.4379090000000  0.4693850000000 1.0
C      1  0.4765790000000  0.5407730000000  0.5878420000000 1.0
C      1  0.4831280000000  0.3933900000000  0.4961930000000 1.0
C      1  0.5353230000000  0.4929160000000  0.4169880000000 1.0
C      1  0.3921890000000  0.4857690000000  0.5233220000000 1.0
C      1  0.5950900000000  0.5252310000000  0.5191620000000 1.0
C      1  0.5774820000000  0.5244110000000  0.4305410000000 1.0
C      1  0.5641880000000  0.4040720000000  0.5100790000000 1.0
C      1  0.4128570000000  0.5594120000000  0.4860020000000 1.0
C      1  0.5996270000000  0.4822580000000  0.5433950000000 1.0
C      1  0.5141490000000  0.5578240000000  0.4733030000000 1.0
C      1  0.4898120000000  0.4377750000000  0.5001970000000 1.0
C      1  0.5373110000000  0.3945900000000  0.5024130000000 1.0
C      1  0.4083450000000  0.4340250000000  0.5089480000000 1.0
C      1  0.5516190000000  0.4328860000000  0.5558010000000 1.0
C      1  0.5292950000000  0.4510970000000  0.5472680000000 1.0
C      1  0.4541520000000  0.4172420000000  0.4370360000000 1.0
C      1  0.5888120000000  0.5455320000000  0.4481250000000 1.0
C      1  0.4784770000000  0.5676800000000  0.5072840000000 1.0
C      1  0.5089530000000  0.5472330000000  0.4297260000000 1.0
C      1  0.5363700000000  0.4463910000000  0.4855810000000 1.0
C      1  0.4603720000000  0.4137260000000  0.5275500000000 1.0
C      1  0.5085970000000  0.5224370000000  0.5642130000000 1.0
C      1  0.5772370000000  0.4750010000000  0.4368700000000 1.0
C      1  0.4092880000000  0.4607630000000  0.5225000000000 1.0
C      1  0.5296210000000  0.6032730000000  0.4613760000000 1.0
C      1  0.5251620000000  0.4591600000000  0.4581940000000 1.0
C      1  0.4348840000000  0.5441320000000  0.4396510000000 1.0
C      1  0.4953740000000  0.4950920000000  0.4426430000000 1.0
C      1  0.5179230000000  0.5884230000000  0.4394920000000 1.0
C      1  0.4986960000000  0.5269600000000  0.3930460000000 1.0
C      1  0.5481780000000  0.5556740000000  0.4621880000000 1.0
C      1  0.4378810000000  0.4734330000000  0.4190590000000 1.0
C      1  0.3949390000000  0.5279030000000  0.5263430000000 1.0
C      1  0.5289350000000  0.5206580000000  0.5163340000000 1.0
C      1  0.4857880000000  0.4776100000000  0.4225820000000 1.0
C      1  0.5548220000000  0.5407410000000  0.5443850000000 1.0
C      1  0.4640730000000  0.6005370000000  0.4790220000000 1.0
C      1  0.4660440000000  0.5276260000000  0.4195550000000 1.0
C      1  0.3900800000000  0.4926320000000  0.4952930000000 1.0
C      1  0.5286710000000  0.5834230000000  0.5421930000000 1.0
C      1  0.4056050000000  0.5162940000000  0.4890140000000 1.0
C      1  0.5392050000000  0.5089170000000  0.6032600000000 1.0
C      1  0.4924060000000  0.5526850000000  0.4062000000000 1.0
C      1  0.4616050000000  0.5793180000000  0.5298450000000 1.0
C      1  0.3939580000000  0.5419360000000  0.5013760000000 1.0
C      1  0.4707360000000  0.4306840000000  0.4178500000000 1.0
C      1  0.4931790000000  0.5265890000000  0.6078300000000 1.0
C      1  0.5011090000000  0.5947880000000  0.5428930000000 1.0
C      1  0.5082060000000  0.4820430000000  0.4710780000000 1.0
C      1  0.5601710000000  0.4310480000000  0.4790710000000 1.0
C      1  0.4723720000000  0.5356970000000  0.5369970000000 1.0
C      1  0.5202390000000  0.5308190000000  0.5918520000000 1.0
C      1  0.4363470000000  0.5476130000000  0.5253160000000 1.0
C      1  0.5537570000000  0.5569890000000  0.4163540000000 1.0
C      1  0.5002480000000  0.4010900000000  0.5191160000000 1.0
C      1  0.4654260000000  0.4595760000000  0.4273170000000 1.0
C      1  0.4289000000000  0.5715910000000  0.5064040000000 1.0
C      1  0.6007460000000  0.4718300000000  0.5022700000000 1.0
C      1  0.5852850000000  0.4682390000000  0.4773800000000 1.0
C      1  0.5199820000000  0.4419970000000  0.5887150000000 1.0
C      1  0.5543380000000  0.5290530000000  0.4086910000000 1.0
C      1  0.5864030000000  0.5017540000000  0.4449350000000 1.0
C      1  0.4629330000000  0.5580890000000  0.4846710000000 1.0
C      1  0.4428070000000  0.4740840000000  0.5600060000000 1.0
C      1  0.4526980000000  0.4795260000000  0.4688800000000 1.0
C      1  0.5804650000000  0.4261990000000  0.4997030000000 1.0
C      1  0.4314550000000  0.4347320000000  0.4550720000000 1.0
C      1  0.5499780000000  0.5888900000000  0.5237260000000 1.0
C      1  0.5667390000000  0.4281850000000  0.4510090000000 1.0
C      1  0.4953950000000  0.4786510000000  0.5972850000000 1.0
C      1  0.5919270000000  0.5120450000000  0.4734290000000 1.0
C      1  0.4705580000000  0.4074590000000  0.4583710000000 1.0
C      1  0.4887200000000  0.5424190000000  0.5602150000000 1.0
C      1  0.5344430000000  0.4931350000000  0.4765070000000 1.0
C      1  0.4025300000000  0.5058100000000  0.5419330000000 1.0
C      1  0.5305510000000  0.5550290000000  0.5524470000000 1.0
C      1  0.4828210000000  0.5880950000000  0.5648250000000 1.0
C      1  0.4724380000000  0.5143160000000  0.4462990000000 1.0
C      1  0.4512470000000  0.4331410000000  0.4941010000000 1.0
C      1  0.4946940000000  0.3943140000000  0.4689750000000 1.0
C      1  0.4899300000000  0.4852870000000  0.3948790000000 1.0
C      1  0.4287840000000  0.5001480000000  0.5595450000000 1.0
C      1  0.5536130000000  0.4848450000000  0.5242250000000 1.0
C      1  0.4996300000000  0.4280530000000  0.4142340000000 1.0
C      1  0.5714480000000  0.5173080000000  0.5361730000000 1.0
C      1  0.4579930000000  0.6069240000000  0.5229540000000 1.0
C      1  0.5104310000000  0.5007220000000  0.5222920000000 1.0
END
