TITL C-2441168-9922-313 0.0152913986735249 125000 -12046.1596528859 0 0 86 (C1) n - 1
REM
REM in /home/bkarasulu/work/CARBON/AIRSS/Generating-Clusters/ReaxFF-fromJPCA2015/Units_Real/with-SteepDescent/Higher-Symm
REM
REM
REM
REM
REM
REM ./C.cell (1df0a924f5614ab8850e4351716899ee)
REM
REM compiler GCC version 9.2.1 20190827 (Red Hat 9.2.1-1)
REM options -cpp -mtune=generic -march=x86-64 -g -O0 -fpre-include=/usr/include/finclude/math-vector-fortran.h
REM seed 1190558518 -979096303 959949414 1483001728 1251031505 -1484253274 520356136 -103003465 -784908530 -307247099 193581271 1645066974 199224456 1610515022 242126358 1996072297 1872048833 -1486127921 1135752654 -1766164155 1228529866 1355109783 1075622866 -735629887 1117567415 -1127432119 895187358 1582666782 818386379 -1437836459 -1494640589 2128481483 1507889479
REM
CELL 1.54180   50.00000   50.00000   50.00000   90.00000   90.00000   90.00000
LATT -1
SFAC C  
C      1  0.4656000000000  0.5507250000000  0.5656790000000 1.0
C      1  0.5343700000000  0.5508180000000  0.5655280000000 1.0
C      1  0.4604120000000  0.4458630000000  0.4571680000000 1.0
C      1  0.5395830000000  0.4434490000000  0.4567930000000 1.0
C      1  0.4722050000000  0.4262110000000  0.4981430000000 1.0
C      1  0.5275940000000  0.4276180000000  0.4969710000000 1.0
C      1  0.5642750000000  0.4526140000000  0.5235400000000 1.0
C      1  0.4361620000000  0.4520540000000  0.5236940000000 1.0
C      1  0.4872400000000  0.4676490000000  0.4954450000000 1.0
C      1  0.5157010000000  0.4723160000000  0.4975570000000 1.0
C      1  0.4570280000000  0.5225760000000  0.4363210000000 1.0
C      1  0.5427320000000  0.5203600000000  0.4352500000000 1.0
C      1  0.5550050000000  0.4390760000000  0.4996260000000 1.0
C      1  0.4457740000000  0.4378390000000  0.5003180000000 1.0
C      1  0.4860280000000  0.5141880000000  0.5089600000000 1.0
C      1  0.5145020000000  0.5158900000000  0.5104240000000 1.0
C      1  0.5544810000000  0.5684580000000  0.4590010000000 1.0
C      1  0.4465930000000  0.5664220000000  0.4584080000000 1.0
C      1  0.5565470000000  0.5427100000000  0.5043920000000 1.0
C      1  0.4452490000000  0.5432970000000  0.5044100000000 1.0
C      1  0.5130810000000  0.5460870000000  0.5496530000000 1.0
C      1  0.4868190000000  0.5462480000000  0.5496500000000 1.0
C      1  0.5543060000000  0.4977030000000  0.4985690000000 1.0
C      1  0.4468030000000  0.4958100000000  0.4978950000000 1.0
C      1  0.5404500000000  0.4700720000000  0.4434960000000 1.0
C      1  0.4560780000000  0.4700700000000  0.4403640000000 1.0
C      1  0.5578090000000  0.5420870000000  0.4501250000000 1.0
C      1  0.4415580000000  0.5424160000000  0.4532720000000 1.0
C      1  0.5156280000000  0.4334590000000  0.4715850000000 1.0
C      1  0.4857570000000  0.4398690000000  0.4748420000000 1.0
C      1  0.4307350000000  0.4764860000000  0.5357160000000 1.0
C      1  0.5686800000000  0.4766380000000  0.5363000000000 1.0
C      1  0.4425270000000  0.4984140000000  0.4444040000000 1.0
C      1  0.5567600000000  0.4968360000000  0.4445640000000 1.0
C      1  0.5144100000000  0.4562680000000  0.5703290000000 1.0
C      1  0.4853970000000  0.4563890000000  0.5700050000000 1.0
C      1  0.4745310000000  0.4948900000000  0.4890630000000 1.0
C      1  0.5269720000000  0.4983390000000  0.4888290000000 1.0
C      1  0.5147250000000  0.4711310000000  0.5267160000000 1.0
C      1  0.4853300000000  0.4696120000000  0.5252620000000 1.0
C      1  0.5135240000000  0.5740870000000  0.5204200000000 1.0
C      1  0.4846890000000  0.5744460000000  0.5201020000000 1.0
C      1  0.5623930000000  0.5017630000000  0.5249950000000 1.0
C      1  0.4375070000000  0.5016920000000  0.5239140000000 1.0
C      1  0.5331130000000  0.5030090000000  0.5616950000000 1.0
C      1  0.4669140000000  0.5027300000000  0.5603960000000 1.0
C      1  0.4852360000000  0.5235410000000  0.4270420000000 1.0
C      1  0.5130700000000  0.5162770000000  0.4324980000000 1.0
C      1  0.5757150000000  0.5078010000000  0.4651430000000 1.0
C      1  0.4243930000000  0.5077450000000  0.4654650000000 1.0
C      1  0.5110860000000  0.4701800000000  0.4434560000000 1.0
C      1  0.4834330000000  0.4790590000000  0.4403510000000 1.0
C      1  0.4265150000000  0.4670580000000  0.4664200000000 1.0
C      1  0.5727580000000  0.4673500000000  0.4674140000000 1.0
C      1  0.5313490000000  0.5603210000000  0.4997360000000 1.0
C      1  0.4655960000000  0.5629870000000  0.5003350000000 1.0
C      1  0.5143580000000  0.4978520000000  0.4567540000000 1.0
C      1  0.4861960000000  0.5018780000000  0.4623180000000 1.0
C      1  0.4857890000000  0.4247440000000  0.5233680000000 1.0
C      1  0.5141700000000  0.4258210000000  0.5228840000000 1.0
C      1  0.5623990000000  0.4447460000000  0.4735340000000 1.0
C      1  0.4385280000000  0.4444590000000  0.4734710000000 1.0
C      1  0.5777790000000  0.4880050000000  0.4856960000000 1.0
C      1  0.4225090000000  0.4874420000000  0.4858210000000 1.0
C      1  0.5161850000000  0.5011490000000  0.5364550000000 1.0
C      1  0.4832390000000  0.4991460000000  0.5348410000000 1.0
C      1  0.5138590000000  0.5629190000000  0.4585000000000 1.0
C      1  0.4852530000000  0.5581100000000  0.4577100000000 1.0
C      1  0.4447550000000  0.4566290000000  0.5514030000000 1.0
C      1  0.5548770000000  0.4561360000000  0.5512170000000 1.0
C      1  0.5361280000000  0.4754600000000  0.5699910000000 1.0
C      1  0.4635230000000  0.4754630000000  0.5694410000000 1.0
C      1  0.4506670000000  0.5270600000000  0.5574690000000 1.0
C      1  0.5495840000000  0.5271880000000  0.5580090000000 1.0
C      1  0.4741190000000  0.5712310000000  0.5472260000000 1.0
C      1  0.5254890000000  0.5711590000000  0.5467020000000 1.0
C      1  0.4755820000000  0.4468580000000  0.5426840000000 1.0
C      1  0.5250390000000  0.4455830000000  0.5436270000000 1.0
C      1  0.4323880000000  0.5346100000000  0.4777240000000 1.0
C      1  0.5671700000000  0.5338130000000  0.4780030000000 1.0
C      1  0.5163760000000  0.5409780000000  0.4779240000000 1.0
C      1  0.4897960000000  0.5317740000000  0.4715020000000 1.0
C      1  0.5611360000000  0.5300900000000  0.5307780000000 1.0
C      1  0.4399550000000  0.5299330000000  0.5300610000000 1.0
C      1  0.4671450000000  0.5717890000000  0.4731780000000 1.0
C      1  0.5332790000000  0.5789710000000  0.4740600000000 1.0
END
