TITL C-2441155-8282-206 0.00445120246107833 125000 -21234.1927447177 0 0 135 (C1) n - 1
REM
REM in /home/bkarasulu/work/CARBON/AIRSS/Generating-Clusters/ReaxFF-fromJPCA2015/Units_Real/with-SteepDescent/Higher-Symm
REM
REM
REM
REM
REM
REM ./C.cell (1df0a924f5614ab8850e4351716899ee)
REM
REM compiler GCC version 9.2.1 20190827 (Red Hat 9.2.1-1)
REM options -cpp -mtune=generic -march=x86-64 -g -O0 -fpre-include=/usr/include/finclude/math-vector-fortran.h
REM seed -1082340585 -146646030 1911287276 -2146134883 996666176 -525078957 351228548 543585308 -1376580932 -796328907 -1124071319 -465235864 1503664968 -1030622143 -1032764343 -1659845365 -368925730 -1746745768 -1818073416 1137888356 -1116027413 1462893469 -1193102340 -880600898 -721206819 -328613126 -962635384 1346838328 -1156907092 2081306424 786969517 1620138138 -831283933
REM
CELL 1.54180   50.00000   50.00000   50.00000   90.00000   90.00000   90.00000
LATT -1
SFAC C  
C      1  0.4232130000000  0.5099630000000  0.5621920000000 1.0
C      1  0.4613800000000  0.5668810000000  0.5602780000000 1.0
C      1  0.5294290000000  0.5752850000000  0.5596310000000 1.0
C      1  0.5725260000000  0.5257440000000  0.5572130000000 1.0
C      1  0.5624400000000  0.4580180000000  0.5559500000000 1.0
C      1  0.5022510000000  0.4256370000000  0.5591780000000 1.0
C      1  0.4455500000000  0.4401320000000  0.5586710000000 1.0
C      1  0.4200470000000  0.4607770000000  0.4636430000000 1.0
C      1  0.4174360000000  0.5380760000000  0.4635210000000 1.0
C      1  0.4776370000000  0.5873250000000  0.4626210000000 1.0
C      1  0.5531460000000  0.5682620000000  0.4638350000000 1.0
C      1  0.5916580000000  0.5025440000000  0.4635270000000 1.0
C      1  0.5568350000000  0.4314310000000  0.4639280000000 1.0
C      1  0.4819030000000  0.4096470000000  0.4618850000000 1.0
C      1  0.5302510000000  0.5203650000000  0.5254700000000 1.0
C      1  0.5356070000000  0.4906840000000  0.5235420000000 1.0
C      1  0.5158300000000  0.4693110000000  0.5165020000000 1.0
C      1  0.4852840000000  0.4685880000000  0.5147460000000 1.0
C      1  0.4655710000000  0.4912620000000  0.5117570000000 1.0
C      1  0.4696380000000  0.5193440000000  0.5191010000000 1.0
C      1  0.4983130000000  0.5289670000000  0.5127230000000 1.0
C      1  0.5013030000000  0.5326850000000  0.4628300000000 1.0
C      1  0.5255070000000  0.5181760000000  0.4538460000000 1.0
C      1  0.5308280000000  0.4930670000000  0.4668490000000 1.0
C      1  0.5120840000000  0.4734940000000  0.4546810000000 1.0
C      1  0.4860210000000  0.4705100000000  0.4665000000000 1.0
C      1  0.4692270000000  0.4939660000000  0.4624760000000 1.0
C      1  0.4800300000000  0.5183920000000  0.4494540000000 1.0
C      1  0.4489320000000  0.5622080000000  0.4391390000000 1.0
C      1  0.5161850000000  0.5780600000000  0.4380640000000 1.0
C      1  0.5747720000000  0.5361090000000  0.4384630000000 1.0
C      1  0.5726830000000  0.4661970000000  0.4395100000000 1.0
C      1  0.5186340000000  0.4209110000000  0.4389030000000 1.0
C      1  0.4510690000000  0.4375540000000  0.4387240000000 1.0
C      1  0.4172730000000  0.5002780000000  0.4379150000000 1.0
C      1  0.4297910000000  0.5472080000000  0.4900850000000 1.0
C      1  0.4919930000000  0.5790280000000  0.4876370000000 1.0
C      1  0.5609830000000  0.5541060000000  0.4897930000000 1.0
C      1  0.5830690000000  0.4893750000000  0.4892010000000 1.0
C      1  0.5411920000000  0.4264900000000  0.4898060000000 1.0
C      1  0.4705570000000  0.4195060000000  0.4870450000000 1.0
C      1  0.4205300000000  0.4766660000000  0.4881580000000 1.0
C      1  0.4149060000000  0.5407290000000  0.5149900000000 1.0
C      1  0.4793510000000  0.5903010000000  0.5121350000000 1.0
C      1  0.5589560000000  0.5734590000000  0.5121080000000 1.0
C      1  0.5956680000000  0.5011620000000  0.5130090000000 1.0
C      1  0.5578110000000  0.4265410000000  0.5143620000000 1.0
C      1  0.4784410000000  0.4052260000000  0.5115860000000 1.0
C      1  0.4184840000000  0.4604520000000  0.5123860000000 1.0
C      1  0.5292250000000  0.5564420000000  0.4237280000000 1.0
C      1  0.5642530000000  0.5130780000000  0.4254860000000 1.0
C      1  0.5486990000000  0.4594800000000  0.4248330000000 1.0
C      1  0.4986800000000  0.4366180000000  0.4259570000000 1.0
C      1  0.4488340000000  0.4626990000000  0.4242510000000 1.0
C      1  0.4365810000000  0.5161890000000  0.4235390000000 1.0
C      1  0.4732320000000  0.5586160000000  0.4258970000000 1.0
C      1  0.5948030000000  0.5291200000000  0.5124180000000 1.0
C      1  0.5786150000000  0.4455060000000  0.5128390000000 1.0
C      1  0.5063830000000  0.4025990000000  0.5129180000000 1.0
C      1  0.4294960000000  0.4344220000000  0.5112880000000 1.0
C      1  0.4050530000000  0.5144170000000  0.5143960000000 1.0
C      1  0.4521040000000  0.5835080000000  0.5128180000000 1.0
C      1  0.5354350000000  0.5892160000000  0.5112010000000 1.0
C      1  0.5439770000000  0.4337420000000  0.4387350000000 1.0
C      1  0.4758100000000  0.4240240000000  0.4380300000000 1.0
C      1  0.4241620000000  0.4726030000000  0.4376890000000 1.0
C      1  0.4313580000000  0.5409330000000  0.4385880000000 1.0
C      1  0.4883950000000  0.5788320000000  0.4379520000000 1.0
C      1  0.5553130000000  0.5570390000000  0.4378610000000 1.0
C      1  0.5806010000000  0.4933180000000  0.4386020000000 1.0
C      1  0.4306770000000  0.5363410000000  0.5624710000000 1.0
C      1  0.4869070000000  0.5746580000000  0.5571160000000 1.0
C      1  0.5508910000000  0.5596470000000  0.5570030000000 1.0
C      1  0.5763430000000  0.4980250000000  0.5574240000000 1.0
C      1  0.5458880000000  0.4374450000000  0.5611930000000 1.0
C      1  0.4738600000000  0.4301870000000  0.5552780000000 1.0
C      1  0.4329340000000  0.4661580000000  0.5604580000000 1.0
C      1  0.5025790000000  0.5333630000000  0.5822260000000 1.0
C      1  0.5257940000000  0.5173680000000  0.5773100000000 1.0
C      1  0.5302170000000  0.4893370000000  0.5782900000000 1.0
C      1  0.5130340000000  0.4677560000000  0.5862790000000 1.0
C      1  0.4839270000000  0.4733280000000  0.5845360000000 1.0
C      1  0.4657030000000  0.4966840000000  0.5872830000000 1.0
C      1  0.4748270000000  0.5241840000000  0.5854110000000 1.0
C      1  0.5074280000000  0.5594830000000  0.5691570000000 1.0
C      1  0.5430530000000  0.5315840000000  0.5556010000000 1.0
C      1  0.5503710000000  0.4833480000000  0.5555120000000 1.0
C      1  0.5202190000000  0.4422650000000  0.5739310000000 1.0
C      1  0.4820500000000  0.4682840000000  0.5554050000000 1.0
C      1  0.4399400000000  0.4902220000000  0.5750240000000 1.0
C      1  0.4553100000000  0.5432660000000  0.5749340000000 1.0
C      1  0.5489050000000  0.4975480000000  0.4929990000000 1.0
C      1  0.5175640000000  0.4499190000000  0.4965320000000 1.0
C      1  0.4886090000000  0.4506090000000  0.4901260000000 1.0
C      1  0.4522870000000  0.4994020000000  0.4861440000000 1.0
C      1  0.4588500000000  0.5285780000000  0.4934980000000 1.0
C      1  0.4887610000000  0.5440540000000  0.4871800000000 1.0
C      1  0.5457790000000  0.5251960000000  0.5013370000000 1.0
C      1  0.5305480000000  0.5839650000000  0.4622650000000 1.0
C      1  0.5900470000000  0.5301410000000  0.4623630000000 1.0
C      1  0.5765740000000  0.4505580000000  0.4632990000000 1.0
C      1  0.5097040000000  0.4055020000000  0.4625510000000 1.0
C      1  0.4345750000000  0.4370640000000  0.4620570000000 1.0
C      1  0.4062120000000  0.5124110000000  0.4629570000000 1.0
C      1  0.4503800000000  0.5792680000000  0.4625030000000 1.0
C      1  0.4436870000000  0.5729510000000  0.5382940000000 1.0
C      1  0.5228130000000  0.5926330000000  0.5371800000000 1.0
C      1  0.5863030000000  0.5416540000000  0.5368250000000 1.0
C      1  0.5831660000000  0.4585940000000  0.5374840000000 1.0
C      1  0.5166410000000  0.4116440000000  0.5381880000000 1.0
C      1  0.4387260000000  0.4241880000000  0.5356490000000 1.0
C      1  0.4095040000000  0.5003100000000  0.5389750000000 1.0
C      1  0.5693800000000  0.5647470000000  0.5369370000000 1.0
C      1  0.5930250000000  0.4858200000000  0.5372890000000 1.0
C      1  0.5439240000000  0.4203670000000  0.5385300000000 1.0
C      1  0.4636180000000  0.4118530000000  0.5352960000000 1.0
C      1  0.4160820000000  0.4730150000000  0.5380610000000 1.0
C      1  0.4244720000000  0.5517040000000  0.5394230000000 1.0
C      1  0.4944830000000  0.5916650000000  0.5361040000000 1.0
C      1  0.4047580000000  0.5004200000000  0.4891940000000 1.0
C      1  0.4399280000000  0.5744750000000  0.4888530000000 1.0
C      1  0.5195860000000  0.5887780000000  0.4872070000000 1.0
C      1  0.5878700000000  0.5420790000000  0.4878050000000 1.0
C      1  0.5843530000000  0.4598250000000  0.4885910000000 1.0
C      1  0.5212040000000  0.4050230000000  0.4887500000000 1.0
C      1  0.4417250000000  0.4258910000000  0.4867270000000 1.0
C      1  0.5153430000000  0.5322800000000  0.4161350000000 1.0
C      1  0.5337110000000  0.5094900000000  0.4229200000000 1.0
C      1  0.5279570000000  0.4783040000000  0.4170420000000 1.0
C      1  0.5012500000000  0.4670370000000  0.4231450000000 1.0
C      1  0.4711780000000  0.4794930000000  0.4167050000000 1.0
C      1  0.4628660000000  0.5067560000000  0.4133560000000 1.0
C      1  0.4842180000000  0.5304510000000  0.4211720000000 1.0
C      1  0.4999030000000  0.5042850000000  0.4967310000000 1.0
C      1  0.4882980000000  0.4914570000000  0.5472070000000 1.0
END
