TITL C-2441160-1326-895 0.0365769007821006 125000 -5017.72711943459 0 0 47 (T23) n - 1
REM
REM in /home/bkarasulu/work/CARBON/AIRSS/Generating-Clusters/ReaxFF-fromJPCA2015/Units_Real/with-SteepDescent/Higher-Symm
REM
REM
REM
REM
REM
REM ./C.cell (1df0a924f5614ab8850e4351716899ee)
REM
REM compiler GCC version 9.2.1 20190827 (Red Hat 9.2.1-1)
REM options -cpp -mtune=generic -march=x86-64 -g -O0 -fpre-include=/usr/include/finclude/math-vector-fortran.h
REM seed 780026304 -737090188 1523197608 -315565640 288408200 -74980267 1129636329 -23050541 -364359098 317686070 1399265720 -1544661493 1344572782 1562752810 1760258055 -387339073 1160673651 1744234815 177712407 1637432154 -482872564 -1265914105 -1629581741 -987447755 -586735100 201059007 -173124516 -1516178132 -78216034 590266510 -933593680 -573945672 -458328954
REM
CELL 1.54180   50.00000   50.00000   50.00000   90.00000   90.00000   90.00000
LATT -1
SFAC C  
C      1  0.4391820000000  0.4586000000000  0.4998010000000 1.0
C      1  0.4574870000000  0.4990330000000  0.4410120000000 1.0
C      1  0.4978900000000  0.4403950000000  0.4592780000000 1.0
C      1  0.5573830000000  0.5401510000000  0.4996510000000 1.0
C      1  0.4391600000000  0.5402130000000  0.5003810000000 1.0
C      1  0.5573190000000  0.4586340000000  0.5005260000000 1.0
C      1  0.5389930000000  0.4997560000000  0.4409270000000 1.0
C      1  0.4574690000000  0.4997710000000  0.5591880000000 1.0
C      1  0.5390110000000  0.4989950000000  0.5592580000000 1.0
C      1  0.4985890000000  0.5585450000000  0.4593210000000 1.0
C      1  0.4978540000000  0.5584160000000  0.5410100000000 1.0
C      1  0.4986190000000  0.4402800000000  0.5408710000000 1.0
C      1  0.4736560000000  0.5204270000000  0.4583620000000 1.0
C      1  0.5198530000000  0.4570180000000  0.4750900000000 1.0
C      1  0.4564050000000  0.4747530000000  0.5212650000000 1.0
C      1  0.5229170000000  0.4782480000000  0.4582670000000 1.0
C      1  0.4736430000000  0.4782980000000  0.5419140000000 1.0
C      1  0.5229870000000  0.5205720000000  0.5419760000000 1.0
C      1  0.4771680000000  0.5411800000000  0.4754180000000 1.0
C      1  0.5199650000000  0.5420170000000  0.5253020000000 1.0
C      1  0.4771640000000  0.4576000000000  0.5247300000000 1.0
C      1  0.5399500000000  0.5240300000000  0.5211400000000 1.0
C      1  0.4563780000000  0.5240540000000  0.4789410000000 1.0
C      1  0.5400410000000  0.4748160000000  0.4790150000000 1.0
C      1  0.5159910000000  0.4483060000000  0.5178350000000 1.0
C      1  0.4471050000000  0.5171510000000  0.5177980000000 1.0
C      1  0.5159750000000  0.5171240000000  0.4490040000000 1.0
C      1  0.4807200000000  0.5501970000000  0.5177050000000 1.0
C      1  0.5160030000000  0.5504410000000  0.4823400000000 1.0
C      1  0.4806810000000  0.4485410000000  0.4824590000000 1.0
C      1  0.5493970000000  0.4816810000000  0.5178840000000 1.0
C      1  0.4471600000000  0.4816710000000  0.4823930000000 1.0
C      1  0.5494340000000  0.5171040000000  0.4823030000000 1.0
C      1  0.4805150000000  0.4816380000000  0.4489350000000 1.0
C      1  0.5159450000000  0.4816500000000  0.5511590000000 1.0
C      1  0.4805130000000  0.5171100000000  0.5512540000000 1.0
C      1  0.4982350000000  0.4993780000000  0.4343240000000 1.0
C      1  0.4982710000000  0.4337260000000  0.5000580000000 1.0
C      1  0.4325220000000  0.4993850000000  0.5000990000000 1.0
C      1  0.4982560000000  0.4993970000000  0.5658780000000 1.0
C      1  0.4982870000000  0.5650180000000  0.5001230000000 1.0
C      1  0.5640350000000  0.4993880000000  0.5001180000000 1.0
C      1  0.5182440000000  0.4793900000000  0.5201030000000 1.0
C      1  0.4782150000000  0.5193650000000  0.5200540000000 1.0
C      1  0.5182580000000  0.5193890000000  0.4800970000000 1.0
C      1  0.4782300000000  0.4794060000000  0.4801080000000 1.0
C      1  0.4983160000000  0.4994040000000  0.5000890000000 1.0
END
