TITL C-2441159-1093-1054 0.0358329140420425 125000 -15940.2115577968 0 0 115 (C1) n - 1
REM
REM in /home/bkarasulu/work/CARBON/AIRSS/Generating-Clusters/ReaxFF-fromJPCA2015/Units_Real/with-SteepDescent/Higher-Symm
REM
REM
REM
REM
REM
REM ./C.cell (1df0a924f5614ab8850e4351716899ee)
REM
REM compiler GCC version 9.2.1 20190827 (Red Hat 9.2.1-1)
REM options -cpp -mtune=generic -march=x86-64 -g -O0 -fpre-include=/usr/include/finclude/math-vector-fortran.h
REM seed 539814037 2135538203 593940242 -761613029 990762733 -1720454532 1594896322 -501070027 1270180725 -409575524 503371212 1062254216 -2062527334 -1749419943 -1970068644 1965725302 1395668479 -1222925867 -1163415014 434952031 -447621081 -1782498884 164940801 -1291483625 -317184456 213013073 315632876 1388877985 -1361348191 -747248303 88458068 1528618715 -1036181205
REM
CELL 1.54180   50.00000   50.00000   50.00000   90.00000   90.00000   90.00000
LATT -1
SFAC C  
C      1  0.4164090000000  0.4992080000000  0.5415350000000 1.0
C      1  0.5602740000000  0.5040760000000  0.5574880000000 1.0
C      1  0.5189560000000  0.5026050000000  0.4187930000000 1.0
C      1  0.4353680000000  0.5133390000000  0.4842550000000 1.0
C      1  0.5295930000000  0.5153290000000  0.5608890000000 1.0
C      1  0.5352170000000  0.5166500000000  0.4438160000000 1.0
C      1  0.5827810000000  0.4689520000000  0.5184290000000 1.0
C      1  0.4753900000000  0.4660420000000  0.4199770000000 1.0
C      1  0.4463630000000  0.4675040000000  0.5654860000000 1.0
C      1  0.4122560000000  0.4722440000000  0.5318980000000 1.0
C      1  0.5631150000000  0.4750200000000  0.5605950000000 1.0
C      1  0.5212070000000  0.4733730000000  0.4159880000000 1.0
C      1  0.4962150000000  0.5919060000000  0.5188250000000 1.0
C      1  0.5252250000000  0.5984940000000  0.4849740000000 1.0
C      1  0.4965650000000  0.5998010000000  0.4904800000000 1.0
C      1  0.5038890000000  0.5231300000000  0.4089010000000 1.0
C      1  0.4137250000000  0.5228240000000  0.5255240000000 1.0
C      1  0.5768250000000  0.5252150000000  0.5524950000000 1.0
C      1  0.4323520000000  0.4530120000000  0.5429450000000 1.0
C      1  0.5678310000000  0.4567270000000  0.5392730000000 1.0
C      1  0.5012950000000  0.4546510000000  0.4237050000000 1.0
C      1  0.4521310000000  0.4435550000000  0.4926350000000 1.0
C      1  0.5176750000000  0.4412340000000  0.5425250000000 1.0
C      1  0.5293390000000  0.4445420000000  0.4633480000000 1.0
C      1  0.4141390000000  0.4717240000000  0.5032330000000 1.0
C      1  0.5359430000000  0.4712000000000  0.5697270000000 1.0
C      1  0.5451010000000  0.4716200000000  0.4322820000000 1.0
C      1  0.4499310000000  0.5379990000000  0.5033880000000 1.0
C      1  0.5319200000000  0.5410340000000  0.5422120000000 1.0
C      1  0.5208150000000  0.5420520000000  0.4510340000000 1.0
C      1  0.4433280000000  0.4971790000000  0.5558810000000 1.0
C      1  0.5738460000000  0.4961600000000  0.5143820000000 1.0
C      1  0.4753290000000  0.4947260000000  0.4270490000000 1.0
C      1  0.4734960000000  0.5631610000000  0.5526300000000 1.0
C      1  0.5597670000000  0.5655060000000  0.4933690000000 1.0
C      1  0.4673430000000  0.5711250000000  0.4547740000000 1.0
C      1  0.5654740000000  0.4925570000000  0.4248750000000 1.0
C      1  0.3967890000000  0.4908150000000  0.4877900000000 1.0
C      1  0.5200390000000  0.4851270000000  0.5897870000000 1.0
C      1  0.4791670000000  0.4236550000000  0.5674360000000 1.0
C      1  0.5709770000000  0.4327260000000  0.4868820000000 1.0
C      1  0.4527800000000  0.4311200000000  0.4478210000000 1.0
C      1  0.4900170000000  0.4059930000000  0.4810190000000 1.0
C      1  0.4901490000000  0.4131040000000  0.5091650000000 1.0
C      1  0.5148990000000  0.4117300000000  0.4936530000000 1.0
C      1  0.4517660000000  0.5439800000000  0.5558650000000 1.0
C      1  0.5679020000000  0.5408530000000  0.5076700000000 1.0
C      1  0.4703340000000  0.5449080000000  0.4367760000000 1.0
C      1  0.4348880000000  0.4702460000000  0.4530340000000 1.0
C      1  0.4979330000000  0.4643330000000  0.5863010000000 1.0
C      1  0.5768960000000  0.4684380000000  0.4672960000000 1.0
C      1  0.4673970000000  0.4969620000000  0.5335310000000 1.0
C      1  0.5443000000000  0.4976370000000  0.5099200000000 1.0
C      1  0.4823850000000  0.4971270000000  0.4546270000000 1.0
C      1  0.4678430000000  0.5277440000000  0.4604920000000 1.0
C      1  0.4875640000000  0.5174950000000  0.5392170000000 1.0
C      1  0.5402740000000  0.5244940000000  0.4980290000000 1.0
C      1  0.5623360000000  0.4445140000000  0.4610290000000 1.0
C      1  0.4350320000000  0.4429130000000  0.4670920000000 1.0
C      1  0.5031030000000  0.4379020000000  0.5716380000000 1.0
C      1  0.5201030000000  0.5864240000000  0.4584910000000 1.0
C      1  0.4519320000000  0.5833370000000  0.5060330000000 1.0
C      1  0.5224010000000  0.5833970000000  0.5292330000000 1.0
C      1  0.5225400000000  0.5148340000000  0.5902010000000 1.0
C      1  0.5641720000000  0.5208490000000  0.4328610000000 1.0
C      1  0.4081340000000  0.5169230000000  0.4969620000000 1.0
C      1  0.4980440000000  0.5584460000000  0.5681930000000 1.0
C      1  0.5616630000000  0.5572410000000  0.4657190000000 1.0
C      1  0.4483630000000  0.5788030000000  0.4751980000000 1.0
C      1  0.4784430000000  0.4489890000000  0.4755210000000 1.0
C      1  0.4931670000000  0.4380580000000  0.5244740000000 1.0
C      1  0.5268040000000  0.4388820000000  0.4927750000000 1.0
C      1  0.4556510000000  0.5200080000000  0.5719540000000 1.0
C      1  0.5824960000000  0.5163760000000  0.4956280000000 1.0
C      1  0.4549750000000  0.5164200000000  0.4242140000000 1.0
C      1  0.4987430000000  0.5422940000000  0.4284280000000 1.0
C      1  0.4366840000000  0.5403790000000  0.5307570000000 1.0
C      1  0.5617280000000  0.5411840000000  0.5364610000000 1.0
C      1  0.4840740000000  0.4252790000000  0.4572960000000 1.0
C      1  0.4695930000000  0.4321340000000  0.5408620000000 1.0
C      1  0.5500540000000  0.4325010000000  0.5063320000000 1.0
C      1  0.5400140000000  0.5830280000000  0.5051430000000 1.0
C      1  0.4907050000000  0.5843620000000  0.4650200000000 1.0
C      1  0.4717450000000  0.5794620000000  0.5276330000000 1.0
C      1  0.5175630000000  0.5377210000000  0.4839860000000 1.0
C      1  0.4761040000000  0.5382270000000  0.4880010000000 1.0
C      1  0.5077000000000  0.5327800000000  0.5240360000000 1.0
C      1  0.4825560000000  0.5128490000000  0.5793880000000 1.0
C      1  0.5725470000000  0.5036460000000  0.4707320000000 1.0
C      1  0.4350440000000  0.5045410000000  0.4406550000000 1.0
C      1  0.5478080000000  0.4383800000000  0.5328650000000 1.0
C      1  0.5075540000000  0.4371170000000  0.4442540000000 1.0
C      1  0.4463840000000  0.4368720000000  0.5245190000000 1.0
C      1  0.4716140000000  0.4658230000000  0.5762070000000 1.0
C      1  0.5876660000000  0.4569600000000  0.4919000000000 1.0
C      1  0.4511820000000  0.4546380000000  0.4309510000000 1.0
C      1  0.4734370000000  0.4738770000000  0.5179040000000 1.0
C      1  0.5256170000000  0.4736680000000  0.5142630000000 1.0
C      1  0.4941480000000  0.4736550000000  0.4707690000000 1.0
C      1  0.5189850000000  0.4722200000000  0.5437620000000 1.0
C      1  0.5292640000000  0.4746730000000  0.4596300000000 1.0
C      1  0.4459170000000  0.4708770000000  0.4988420000000 1.0
C      1  0.5068240000000  0.5104940000000  0.4810070000000 1.0
C      1  0.4838740000000  0.5119670000000  0.4952660000000 1.0
C      1  0.5074300000000  0.5086510000000  0.5082500000000 1.0
C      1  0.5749520000000  0.5318140000000  0.4575390000000 1.0
C      1  0.4385940000000  0.5256960000000  0.4598280000000 1.0
C      1  0.5005150000000  0.5344110000000  0.5866520000000 1.0
C      1  0.5380180000000  0.5651270000000  0.4507460000000 1.0
C      1  0.4341710000000  0.5634240000000  0.4958440000000 1.0
C      1  0.5212760000000  0.5673480000000  0.5533140000000 1.0
C      1  0.5426690000000  0.4992060000000  0.4668710000000 1.0
C      1  0.4447680000000  0.4863860000000  0.4755650000000 1.0
C      1  0.5029250000000  0.5019850000000  0.5570220000000 1.0
C      1  0.4985530000000  0.4725660000000  0.5025690000000 1.0
END
