TITL C-2441154-10-743 0.0473328747830051 125000 -18867.5831749111 0 0 137 (C1) n - 1
REM
REM in /home/bkarasulu/work/CARBON/AIRSS/Generating-Clusters/ReaxFF-fromJPCA2015/Units_Real/with-SteepDescent/Higher-Symm
REM
REM
REM
REM
REM
REM ./C.cell (1df0a924f5614ab8850e4351716899ee)
REM
REM compiler GCC version 9.2.1 20190827 (Red Hat 9.2.1-1)
REM options -cpp -mtune=generic -march=x86-64 -g -O0 -fpre-include=/usr/include/finclude/math-vector-fortran.h
REM seed 932012431 -380782949 1449157298 1607000092 -1007188696 1076295777 -1185387939 2004113753 778120895 1470463735 -807701997 271558215 1109297002 -1572376754 1202908124 -1472117286 1553316423 -142582471 -2107000385 1854481162 831423006 -363692075 1804849751 -1593308471 1535448234 544279874 -917330517 1863183035 860655525 168705390 -757621057 -1170286222 -1711302865
REM
CELL 1.54180   50.00000   50.00000   50.00000   90.00000   90.00000   90.00000
LATT -1
SFAC C  
C      1  0.5337130000000  0.4278150000000  0.5537550000000 1.0
C      1  0.5319610000000  0.4727010000000  0.5886740000000 1.0
C      1  0.5306550000000  0.5185590000000  0.5890660000000 1.0
C      1  0.5297440000000  0.5625650000000  0.5639960000000 1.0
C      1  0.5336160000000  0.5874870000000  0.5179130000000 1.0
C      1  0.5300270000000  0.5841950000000  0.4618550000000 1.0
C      1  0.5302340000000  0.5447700000000  0.4240520000000 1.0
C      1  0.5303430000000  0.4970670000000  0.4112880000000 1.0
C      1  0.5313130000000  0.4489930000000  0.4271120000000 1.0
C      1  0.5356650000000  0.4155820000000  0.4643790000000 1.0
C      1  0.5309010000000  0.4117610000000  0.5114670000000 1.0
C      1  0.5052660000000  0.4710200000000  0.5999490000000 1.0
C      1  0.5057620000000  0.5265630000000  0.6032030000000 1.0
C      1  0.5063290000000  0.5777560000000  0.5695320000000 1.0
C      1  0.5085260000000  0.6012800000000  0.5172850000000 1.0
C      1  0.5052200000000  0.5965830000000  0.4528740000000 1.0
C      1  0.5062490000000  0.5543870000000  0.4098120000000 1.0
C      1  0.5056450000000  0.4969160000000  0.3956500000000 1.0
C      1  0.5048820000000  0.4403530000000  0.4172950000000 1.0
C      1  0.5136210000000  0.4030740000000  0.4526810000000 1.0
C      1  0.5071920000000  0.3955070000000  0.5122490000000 1.0
C      1  0.5082520000000  0.4209800000000  0.5671890000000 1.0
C      1  0.4821600000000  0.5957820000000  0.4705190000000 1.0
C      1  0.4842180000000  0.5642570000000  0.4241470000000 1.0
C      1  0.4831620000000  0.5127070000000  0.4019160000000 1.0
C      1  0.4827260000000  0.4565000000000  0.4101780000000 1.0
C      1  0.4740410000000  0.4126010000000  0.4498340000000 1.0
C      1  0.4831510000000  0.4006190000000  0.4963010000000 1.0
C      1  0.4829080000000  0.4187410000000  0.5528950000000 1.0
C      1  0.4867310000000  0.4567810000000  0.5844090000000 1.0
C      1  0.4826680000000  0.5132990000000  0.5950880000000 1.0
C      1  0.4860230000000  0.5596640000000  0.5775320000000 1.0
C      1  0.4879160000000  0.5810600000000  0.5268400000000 1.0
C      1  0.4294880000000  0.5455470000000  0.4647410000000 1.0
C      1  0.4362720000000  0.5192080000000  0.4507940000000 1.0
C      1  0.4303740000000  0.4902430000000  0.4468880000000 1.0
C      1  0.4350270000000  0.4654890000000  0.4632090000000 1.0
C      1  0.4295430000000  0.4496600000000  0.4887620000000 1.0
C      1  0.4376540000000  0.4541060000000  0.5177850000000 1.0
C      1  0.4313240000000  0.4678610000000  0.5440460000000 1.0
C      1  0.4379140000000  0.4956700000000  0.5522830000000 1.0
C      1  0.4307520000000  0.5273000000000  0.5515980000000 1.0
C      1  0.4366920000000  0.5456030000000  0.5303600000000 1.0
C      1  0.4370060000000  0.5522730000000  0.4909340000000 1.0
C      1  0.5572320000000  0.5583760000000  0.5526350000000 1.0
C      1  0.5589530000000  0.5797590000000  0.5074000000000 1.0
C      1  0.5699150000000  0.5741190000000  0.4657510000000 1.0
C      1  0.5584910000000  0.5493330000000  0.4304100000000 1.0
C      1  0.5582770000000  0.5053610000000  0.4175990000000 1.0
C      1  0.5592360000000  0.4601460000000  0.4281760000000 1.0
C      1  0.5631570000000  0.4252310000000  0.4589140000000 1.0
C      1  0.5576640000000  0.4199970000000  0.5039370000000 1.0
C      1  0.5551130000000  0.4477490000000  0.5558620000000 1.0
C      1  0.5600710000000  0.4778540000000  0.5959760000000 1.0
C      1  0.5580480000000  0.5262150000000  0.5827150000000 1.0
C      1  0.5627690000000  0.5263800000000  0.5425760000000 1.0
C      1  0.5623290000000  0.5242850000000  0.5142210000000 1.0
C      1  0.5649180000000  0.5477570000000  0.4979410000000 1.0
C      1  0.5678030000000  0.5435470000000  0.4711580000000 1.0
C      1  0.5650710000000  0.5182190000000  0.4553250000000 1.0
C      1  0.5641270000000  0.4904240000000  0.4548370000000 1.0
C      1  0.5637200000000  0.4657390000000  0.4680950000000 1.0
C      1  0.5630100000000  0.4514200000000  0.4914200000000 1.0
C      1  0.5617100000000  0.4733080000000  0.5105610000000 1.0
C      1  0.5605700000000  0.4721480000000  0.5394340000000 1.0
C      1  0.5521190000000  0.4995640000000  0.5480280000000 1.0
C      1  0.4939320000000  0.4744510000000  0.3974900000000 1.0
C      1  0.4972070000000  0.4163650000000  0.4322710000000 1.0
C      1  0.4900250000000  0.4002990000000  0.4690050000000 1.0
C      1  0.4939610000000  0.3995100000000  0.5360660000000 1.0
C      1  0.4981920000000  0.4346810000000  0.5864950000000 1.0
C      1  0.4877290000000  0.4908120000000  0.6052260000000 1.0
C      1  0.4971830000000  0.5503470000000  0.5972340000000 1.0
C      1  0.4901390000000  0.5888400000000  0.5510540000000 1.0
C      1  0.4975450000000  0.6012970000000  0.4920910000000 1.0
C      1  0.4950990000000  0.5848270000000  0.4332290000000 1.0
C      1  0.4938490000000  0.5350000000000  0.3985350000000 1.0
C      1  0.4804480000000  0.4891270000000  0.4533000000000 1.0
C      1  0.4673240000000  0.4681970000000  0.4684450000000 1.0
C      1  0.4800080000000  0.4536710000000  0.4902730000000 1.0
C      1  0.4673670000000  0.4585670000000  0.5156330000000 1.0
C      1  0.4806940000000  0.4722740000000  0.5369340000000 1.0
C      1  0.4665580000000  0.4957940000000  0.5448300000000 1.0
C      1  0.4796440000000  0.5203640000000  0.5392140000000 1.0
C      1  0.4654610000000  0.5393940000000  0.5217640000000 1.0
C      1  0.4635910000000  0.5423870000000  0.4938490000000 1.0
C      1  0.4802630000000  0.5358850000000  0.4705690000000 1.0
C      1  0.4678910000000  0.5148940000000  0.4564140000000 1.0
C      1  0.4540010000000  0.5859130000000  0.4688870000000 1.0
C      1  0.4558470000000  0.5566380000000  0.4279490000000 1.0
C      1  0.4551360000000  0.5087360000000  0.4097130000000 1.0
C      1  0.4554570000000  0.4588080000000  0.4201150000000 1.0
C      1  0.4482220000000  0.4224120000000  0.4548730000000 1.0
C      1  0.4559760000000  0.4104940000000  0.5038740000000 1.0
C      1  0.4535740000000  0.4272850000000  0.5534500000000 1.0
C      1  0.4589830000000  0.4678800000000  0.5853380000000 1.0
C      1  0.4542770000000  0.5187520000000  0.5899440000000 1.0
C      1  0.4592610000000  0.5654120000000  0.5665370000000 1.0
C      1  0.4584270000000  0.5852110000000  0.5195010000000 1.0
C      1  0.5535680000000  0.4328560000000  0.4325310000000 1.0
C      1  0.5549460000000  0.4050770000000  0.4800770000000 1.0
C      1  0.5475820000000  0.4144330000000  0.5328610000000 1.0
C      1  0.5515070000000  0.4544490000000  0.5827600000000 1.0
C      1  0.5534580000000  0.5051870000000  0.6010000000000 1.0
C      1  0.5511400000000  0.5535790000000  0.5815250000000 1.0
C      1  0.5530840000000  0.5822750000000  0.5366910000000 1.0
C      1  0.5510040000000  0.5907340000000  0.4814900000000 1.0
C      1  0.5514500000000  0.5751090000000  0.4429230000000 1.0
C      1  0.5517200000000  0.5314160000000  0.4101670000000 1.0
C      1  0.5523190000000  0.4784800000000  0.4069890000000 1.0
C      1  0.4431110000000  0.5662660000000  0.4512630000000 1.0
C      1  0.4446570000000  0.5307180000000  0.4238600000000 1.0
C      1  0.4437540000000  0.4852370000000  0.4226810000000 1.0
C      1  0.4415030000000  0.4458440000000  0.4412640000000 1.0
C      1  0.4401630000000  0.4242890000000  0.4829480000000 1.0
C      1  0.4451160000000  0.4235850000000  0.5268090000000 1.0
C      1  0.4439540000000  0.4529550000000  0.5642780000000 1.0
C      1  0.4460760000000  0.4931250000000  0.5811620000000 1.0
C      1  0.4442100000000  0.5402970000000  0.5727740000000 1.0
C      1  0.4461830000000  0.5720790000000  0.5414260000000 1.0
C      1  0.4440530000000  0.5799570000000  0.4949070000000 1.0
C      1  0.5155840000000  0.5160880000000  0.4593810000000 1.0
C      1  0.5122630000000  0.4890800000000  0.4510660000000 1.0
C      1  0.5144180000000  0.4669920000000  0.4685460000000 1.0
C      1  0.5114660000000  0.4490670000000  0.4901070000000 1.0
C      1  0.5144870000000  0.4593530000000  0.5162940000000 1.0
C      1  0.5105730000000  0.4748410000000  0.5390650000000 1.0
C      1  0.5234420000000  0.5016830000000  0.5443650000000 1.0
C      1  0.5075020000000  0.5257950000000  0.5412270000000 1.0
C      1  0.5052890000000  0.5509210000000  0.5246820000000 1.0
C      1  0.5101500000000  0.5462360000000  0.4997700000000 1.0
C      1  0.5107360000000  0.5410170000000  0.4718170000000 1.0
C      1  0.4944550000000  0.4990830000000  0.4984740000000 1.0
C      1  0.4675820000000  0.4980510000000  0.4987220000000 1.0
C      1  0.4425510000000  0.4999490000000  0.4997800000000 1.0
C      1  0.5487270000000  0.4996100000000  0.5024510000000 1.0
C      1  0.5207220000000  0.5000870000000  0.4985670000000 1.0
END
