TITL C-2441163-1170-440 0.193412499262669 125000 -23053.3068228828 0 0 189 (C1) n - 1
REM
REM in /home/bkarasulu/work/CARBON/AIRSS/Generating-Clusters/ReaxFF-fromJPCA2015/Units_Real/with-SteepDescent/Higher-Symm
REM
REM
REM
REM
REM
REM ./C.cell (1df0a924f5614ab8850e4351716899ee)
REM
REM compiler GCC version 9.2.1 20190827 (Red Hat 9.2.1-1)
REM options -cpp -mtune=generic -march=x86-64 -g -O0 -fpre-include=/usr/include/finclude/math-vector-fortran.h
REM seed -1020039480 -1526517299 1405961960 1135801697 -215936102 843394358 -211045360 -741900021 -1088509504 994167203 124785084 -626903778 1086325451 92249449 -254879642 -1155652183 2129013111 -823911916 -2090877243 -114127635 1105042094 726757861 -239870157 -1898498983 -777741596 1297037174 -1843924546 -21499716 1939822312 -2004895480 799020532 1849066506 907864412
REM
CELL 1.54180   50.00000   50.00000   50.00000   90.00000   90.00000   90.00000
LATT -1
SFAC C  
C      1  0.5611060000000  0.5285860000000  0.5085030000000 1.0
C      1  0.4982950000000  0.4367150000000  0.4945930000000 1.0
C      1  0.4420430000000  0.5409910000000  0.5104550000000 1.0
C      1  0.5526670000000  0.4567900000000  0.5003660000000 1.0
C      1  0.4912770000000  0.5649900000000  0.4951430000000 1.0
C      1  0.4323840000000  0.4724750000000  0.4993350000000 1.0
C      1  0.5560240000000  0.4058980000000  0.4648560000000 1.0
C      1  0.3918220000000  0.5003410000000  0.4602390000000 1.0
C      1  0.5604760000000  0.5937110000000  0.4578810000000 1.0
C      1  0.5587600000000  0.5959200000000  0.5402540000000 1.0
C      1  0.3892360000000  0.5046100000000  0.5369800000000 1.0
C      1  0.5556710000000  0.4039680000000  0.5354870000000 1.0
C      1  0.5769730000000  0.5147020000000  0.4605100000000 1.0
C      1  0.4760370000000  0.4183020000000  0.4574890000000 1.0
C      1  0.4484160000000  0.5596910000000  0.4623820000000 1.0
C      1  0.5751470000000  0.4842400000000  0.5346740000000 1.0
C      1  0.4744460000000  0.5787120000000  0.5413560000000 1.0
C      1  0.4499020000000  0.4460660000000  0.5345140000000 1.0
C      1  0.5900470000000  0.4328400000000  0.4848900000000 1.0
C      1  0.3962910000000  0.4557930000000  0.4848330000000 1.0
C      1  0.5198480000000  0.6097390000000  0.4813270000000 1.0
C      1  0.5831870000000  0.5650360000000  0.5164490000000 1.0
C      1  0.4074400000000  0.5433870000000  0.5122320000000 1.0
C      1  0.5154220000000  0.3894440000000  0.5155770000000 1.0
C      1  0.5594730000000  0.5458220000000  0.4190610000000 1.0
C      1  0.5141410000000  0.4195730000000  0.4247980000000 1.0
C      1  0.4262100000000  0.5273660000000  0.4235650000000 1.0
C      1  0.5571940000000  0.4511810000000  0.5818800000000 1.0
C      1  0.5039210000000  0.5778000000000  0.5806940000000 1.0
C      1  0.4302740000000  0.4630890000000  0.5802300000000 1.0
C      1  0.5460850000000  0.5288730000000  0.5883440000000 1.0
C      1  0.5026530000000  0.4447720000000  0.5831670000000 1.0
C      1  0.4563380000000  0.5212540000000  0.5882870000000 1.0
C      1  0.5419190000000  0.4723150000000  0.4078580000000 1.0
C      1  0.5024840000000  0.5526950000000  0.4144960000000 1.0
C      1  0.4524020000000  0.4786520000000  0.4128310000000 1.0
C      1  0.3915250000000  0.5297000000000  0.4624000000000 1.0
C      1  0.5813090000000  0.5804440000000  0.4728800000000 1.0
C      1  0.5322220000000  0.3886430000000  0.4617680000000 1.0
C      1  0.3853000000000  0.4785220000000  0.5327410000000 1.0
C      1  0.5789710000000  0.4171190000000  0.5345720000000 1.0
C      1  0.5363260000000  0.6111000000000  0.5321390000000 1.0
C      1  0.4938920000000  0.5140480000000  0.4050940000000 1.0
C      1  0.5317600000000  0.4951180000000  0.3921590000000 1.0
C      1  0.4906760000000  0.4877690000000  0.4028530000000 1.0
C      1  0.4959770000000  0.4815340000000  0.5911120000000 1.0
C      1  0.5157100000000  0.5009300000000  0.5981560000000 1.0
C      1  0.4942520000000  0.5177600000000  0.6028030000000 1.0
C      1  0.4204590000000  0.5289120000000  0.5586590000000 1.0
C      1  0.5638860000000  0.5519510000000  0.5586950000000 1.0
C      1  0.5155680000000  0.4154880000000  0.5594180000000 1.0
C      1  0.4230050000000  0.4729480000000  0.4408640000000 1.0
C      1  0.5624150000000  0.4453890000000  0.4418360000000 1.0
C      1  0.5139030000000  0.5811960000000  0.4408410000000 1.0
C      1  0.5290090000000  0.3965080000000  0.5414470000000 1.0
C      1  0.3982420000000  0.5303350000000  0.5401200000000 1.0
C      1  0.5768360000000  0.5747960000000  0.5444430000000 1.0
C      1  0.5312350000000  0.5995200000000  0.4546100000000 1.0
C      1  0.4005960000000  0.4723250000000  0.4581660000000 1.0
C      1  0.5756720000000  0.4265650000000  0.4581770000000 1.0
C      1  0.4322240000000  0.5811210000000  0.5211080000000 1.0
C      1  0.6070820000000  0.5100980000000  0.5158470000000 1.0
C      1  0.4515980000000  0.4046240000000  0.5165040000000 1.0
C      1  0.4376940000000  0.4184010000000  0.4768690000000 1.0
C      1  0.6024630000000  0.4879320000000  0.4773420000000 1.0
C      1  0.4506710000000  0.5976320000000  0.4818360000000 1.0
C      1  0.4885940000000  0.5935430000000  0.5627630000000 1.0
C      1  0.5828770000000  0.4717000000000  0.5576000000000 1.0
C      1  0.4366820000000  0.4423410000000  0.5613970000000 1.0
C      1  0.4896860000000  0.4091180000000  0.4366160000000 1.0
C      1  0.5857710000000  0.5279480000000  0.4378800000000 1.0
C      1  0.4304820000000  0.5621460000000  0.4419200000000 1.0
C      1  0.5148320000000  0.6026660000000  0.5517770000000 1.0
C      1  0.5772800000000  0.4438060000000  0.5580970000000 1.0
C      1  0.4131960000000  0.4606570000000  0.5564110000000 1.0
C      1  0.5137980000000  0.3948610000000  0.4403070000000 1.0
C      1  0.5771790000000  0.5549660000000  0.4414220000000 1.0
C      1  0.4090590000000  0.5438440000000  0.4403680000000 1.0
C      1  0.4563030000000  0.5299430000000  0.4187090000000 1.0
C      1  0.5442940000000  0.5200110000000  0.4228750000000 1.0
C      1  0.4942250000000  0.4506610000000  0.4188030000000 1.0
C      1  0.4592880000000  0.4705910000000  0.5810590000000 1.0
C      1  0.5428740000000  0.4766760000000  0.5755350000000 1.0
C      1  0.4905360000000  0.5533760000000  0.5832890000000 1.0
C      1  0.5369110000000  0.5420150000000  0.5164530000000 1.0
C      1  0.5093210000000  0.4429960000000  0.5221370000000 1.0
C      1  0.4455020000000  0.5153900000000  0.5233950000000 1.0
C      1  0.5397600000000  0.4642610000000  0.4767930000000 1.0
C      1  0.5153910000000  0.5580080000000  0.4812420000000 1.0
C      1  0.4518700000000  0.4734560000000  0.4781880000000 1.0
C      1  0.4848860000000  0.5858580000000  0.5151900000000 1.0
C      1  0.5762100000000  0.4678530000000  0.5104910000000 1.0
C      1  0.4306070000000  0.4484130000000  0.5137000000000 1.0
C      1  0.4845960000000  0.4121200000000  0.4831060000000 1.0
C      1  0.5764310000000  0.5303290000000  0.4838960000000 1.0
C      1  0.4324670000000  0.5455580000000  0.4816040000000 1.0
C      1  0.5297340000000  0.5970760000000  0.5068010000000 1.0
C      1  0.5810330000000  0.4183150000000  0.5069670000000 1.0
C      1  0.3880330000000  0.4698880000000  0.5065970000000 1.0
C      1  0.5262650000000  0.3949660000000  0.4907360000000 1.0
C      1  0.5650780000000  0.5778640000000  0.4969000000000 1.0
C      1  0.3980960000000  0.5257330000000  0.4909750000000 1.0
C      1  0.5119300000000  0.4670130000000  0.5650100000000 1.0
C      1  0.4604040000000  0.5007100000000  0.5671220000000 1.0
C      1  0.5257570000000  0.5329420000000  0.5675210000000 1.0
C      1  0.5147340000000  0.5347720000000  0.4355950000000 1.0
C      1  0.4605990000000  0.5007680000000  0.4313010000000 1.0
C      1  0.5204260000000  0.4646920000000  0.4313300000000 1.0
C      1  0.5276580000000  0.5318560000000  0.6144900000000 1.0
C      1  0.5075700000000  0.4608300000000  0.6075930000000 1.0
C      1  0.4706280000000  0.5107600000000  0.6112730000000 1.0
C      1  0.5238050000000  0.4698550000000  0.3839350000000 1.0
C      1  0.5078040000000  0.5347270000000  0.3909140000000 1.0
C      1  0.4656860000000  0.4904110000000  0.3881800000000 1.0
C      1  0.4912470000000  0.4782770000000  0.4786340000000 1.0
C      1  0.4689170000000  0.5232550000000  0.4756120000000 1.0
C      1  0.5301210000000  0.5032160000000  0.4732170000000 1.0
C      1  0.4894630000000  0.5242440000000  0.5222680000000 1.0
C      1  0.4720520000000  0.4701060000000  0.5239730000000 1.0
C      1  0.5337300000000  0.4947930000000  0.5303880000000 1.0
C      1  0.6132940000000  0.4839000000000  0.5013430000000 1.0
C      1  0.4265560000000  0.4107060000000  0.4995390000000 1.0
C      1  0.4699370000000  0.6087460000000  0.5004800000000 1.0
C      1  0.6042420000000  0.5318470000000  0.4960230000000 1.0
C      1  0.4253230000000  0.5894130000000  0.4955440000000 1.0
C      1  0.4713130000000  0.3937520000000  0.4999090000000 1.0
C      1  0.4955830000000  0.4789280000000  0.5416150000000 1.0
C      1  0.4896470000000  0.5085060000000  0.5480910000000 1.0
C      1  0.5185600000000  0.5113300000000  0.5500540000000 1.0
C      1  0.4930640000000  0.5230730000000  0.4588330000000 1.0
C      1  0.4896960000000  0.4943760000000  0.4488020000000 1.0
C      1  0.5186850000000  0.4902640000000  0.4467200000000 1.0
C      1  0.4763130000000  0.4435120000000  0.5715090000000 1.0
C      1  0.4637220000000  0.5448750000000  0.5747450000000 1.0
C      1  0.5570210000000  0.5069640000000  0.5732520000000 1.0
C      1  0.4765780000000  0.5548040000000  0.4267160000000 1.0
C      1  0.4668050000000  0.4573020000000  0.4262010000000 1.0
C      1  0.5542580000000  0.4914740000000  0.4266440000000 1.0
C      1  0.4702010000000  0.4962340000000  0.4862240000000 1.0
C      1  0.5141710000000  0.5268590000000  0.4799470000000 1.0
C      1  0.5175790000000  0.4813040000000  0.4877310000000 1.0
C      1  0.4695750000000  0.4995930000000  0.5146960000000 1.0
C      1  0.5153840000000  0.4745330000000  0.5192020000000 1.0
C      1  0.5153620000000  0.5239120000000  0.5097850000000 1.0
C      1  0.5354260000000  0.5597120000000  0.5629920000000 1.0
C      1  0.5384810000000  0.4326650000000  0.5665620000000 1.0
C      1  0.4310290000000  0.5022250000000  0.5630500000000 1.0
C      1  0.5320920000000  0.4394980000000  0.4417530000000 1.0
C      1  0.5346490000000  0.5567540000000  0.4387730000000 1.0
C      1  0.4329610000000  0.5033420000000  0.4420550000000 1.0
C      1  0.4093000000000  0.4351900000000  0.5021690000000 1.0
C      1  0.4932230000000  0.6142940000000  0.4868820000000 1.0
C      1  0.6007280000000  0.4546710000000  0.5025600000000 1.0
C      1  0.4097690000000  0.5643700000000  0.4914610000000 1.0
C      1  0.4930430000000  0.3836800000000  0.5110950000000 1.0
C      1  0.6017500000000  0.5605680000000  0.4957790000000 1.0
C      1  0.5499220000000  0.4427670000000  0.5438800000000 1.0
C      1  0.4222890000000  0.4839990000000  0.5442380000000 1.0
C      1  0.5207860000000  0.5747460000000  0.5437770000000 1.0
C      1  0.5537320000000  0.5524130000000  0.4602590000000 1.0
C      1  0.4363450000000  0.5166250000000  0.4701950000000 1.0
C      1  0.5246420000000  0.4398230000000  0.4717420000000 1.0
C      1  0.4719740000000  0.4809430000000  0.6063790000000 1.0
C      1  0.4977220000000  0.5407990000000  0.6085960000000 1.0
C      1  0.5327000000000  0.4764140000000  0.6039910000000 1.0
C      1  0.4687360000000  0.5201940000000  0.3923100000000 1.0
C      1  0.4965290000000  0.4624260000000  0.3906560000000 1.0
C      1  0.5349090000000  0.5229880000000  0.3948080000000 1.0
C      1  0.4857090000000  0.5732410000000  0.4460900000000 1.0
C      1  0.5622890000000  0.4739720000000  0.4492570000000 1.0
C      1  0.4474710000000  0.4580490000000  0.4506000000000 1.0
C      1  0.4889600000000  0.4294370000000  0.5484770000000 1.0
C      1  0.5694740000000  0.5235140000000  0.5531610000000 1.0
C      1  0.4452310000000  0.5438100000000  0.5530570000000 1.0
C      1  0.5408770000000  0.4196910000000  0.4861190000000 1.0
C      1  0.4132660000000  0.5026790000000  0.4830840000000 1.0
C      1  0.5429970000000  0.5653760000000  0.4813300000000 1.0
C      1  0.5280650000000  0.5702980000000  0.5184460000000 1.0
C      1  0.4281870000000  0.4926260000000  0.5188150000000 1.0
C      1  0.5390030000000  0.4407400000000  0.5193650000000 1.0
C      1  0.5892950000000  0.4906660000000  0.4534980000000 1.0
C      1  0.4483780000000  0.4257820000000  0.4551280000000 1.0
C      1  0.4603760000000  0.5833060000000  0.4592460000000 1.0
C      1  0.5908120000000  0.5076650000000  0.5398200000000 1.0
C      1  0.4453200000000  0.5729150000000  0.5440410000000 1.0
C      1  0.4619300000000  0.4206320000000  0.5374590000000 1.0
C      1  0.4725230000000  0.5419010000000  0.4998570000000 1.0
C      1  0.4773980000000  0.4588650000000  0.4957220000000 1.0
C      1  0.5486650000000  0.5005760000000  0.5024910000000 1.0
END
