TITL C-2441162-9305-1440 0.026612198341422 125000 -15423.1265383106 0 0 110 (C1) n - 1
REM
REM in /home/bkarasulu/work/CARBON/AIRSS/Generating-Clusters/ReaxFF-fromJPCA2015/Units_Real/with-SteepDescent/Higher-Symm
REM
REM
REM
REM
REM
REM ./C.cell (1df0a924f5614ab8850e4351716899ee)
REM
REM compiler GCC version 9.2.1 20190827 (Red Hat 9.2.1-1)
REM options -cpp -mtune=generic -march=x86-64 -g -O0 -fpre-include=/usr/include/finclude/math-vector-fortran.h
REM seed 1085271602 -1838000735 -241352953 -1957360313 187227123 -164175140 -450870959 -910096935 1294784113 -1127633678 865066288 -1887128658 -1379116596 1992857308 -565745897 -1436384530 432160240 -572218314 1409802289 1048371479 1688316815 1625422401 -1055053077 1367534173 1167915903 593645936 99200526 94962126 -858634215 -764251074 1514374184 -1282585297 -1128123258
REM
CELL 1.54180   50.00000   50.00000   50.00000   90.00000   90.00000   90.00000
LATT -1
SFAC C  
C      1  0.4208120000000  0.4985050000000  0.5464460000000 1.0
C      1  0.4198050000000  0.5547100000000  0.5228810000000 1.0
C      1  0.4197470000000  0.5366160000000  0.4608210000000 1.0
C      1  0.4245970000000  0.4739400000000  0.4506780000000 1.0
C      1  0.4247260000000  0.4407190000000  0.5117440000000 1.0
C      1  0.4397160000000  0.4578790000000  0.5588530000000 1.0
C      1  0.4546710000000  0.5297040000000  0.5651490000000 1.0
C      1  0.4514180000000  0.5688200000000  0.4810390000000 1.0
C      1  0.4506110000000  0.5019330000000  0.4288500000000 1.0
C      1  0.4532260000000  0.4369540000000  0.4701890000000 1.0
C      1  0.5353890000000  0.5043090000000  0.5203750000000 1.0
C      1  0.5381970000000  0.5155060000000  0.4934160000000 1.0
C      1  0.5352230000000  0.4940170000000  0.4744100000000 1.0
C      1  0.5308000000000  0.4716690000000  0.4929980000000 1.0
C      1  0.5480070000000  0.4801630000000  0.5141220000000 1.0
C      1  0.4722230000000  0.4859670000000  0.4627540000000 1.0
C      1  0.4836920000000  0.4546630000000  0.5013470000000 1.0
C      1  0.4769780000000  0.4864990000000  0.5466490000000 1.0
C      1  0.4723230000000  0.5367010000000  0.5235010000000 1.0
C      1  0.4802740000000  0.5359400000000  0.4690950000000 1.0
C      1  0.4293800000000  0.5040460000000  0.4507590000000 1.0
C      1  0.4288090000000  0.4569440000000  0.4743610000000 1.0
C      1  0.4200610000000  0.4535520000000  0.5365940000000 1.0
C      1  0.4316500000000  0.5264230000000  0.5453590000000 1.0
C      1  0.4291400000000  0.5481510000000  0.4890640000000 1.0
C      1  0.4774310000000  0.4934240000000  0.5982760000000 1.0
C      1  0.4674560000000  0.5840770000000  0.5311890000000 1.0
C      1  0.4668000000000  0.5566760000000  0.4314890000000 1.0
C      1  0.4669030000000  0.4506920000000  0.4115770000000 1.0
C      1  0.4667640000000  0.4044900000000  0.5225000000000 1.0
C      1  0.5753610000000  0.4900350000000  0.4518240000000 1.0
C      1  0.5762160000000  0.4521420000000  0.4929970000000 1.0
C      1  0.5771950000000  0.4820150000000  0.5464260000000 1.0
C      1  0.5738980000000  0.5353890000000  0.5321700000000 1.0
C      1  0.5740970000000  0.5410690000000  0.4745330000000 1.0
C      1  0.5758400000000  0.4640190000000  0.4666450000000 1.0
C      1  0.5709470000000  0.4626650000000  0.5227580000000 1.0
C      1  0.5775030000000  0.5108520000000  0.5487950000000 1.0
C      1  0.5645240000000  0.5355800000000  0.5021710000000 1.0
C      1  0.5756210000000  0.5195480000000  0.4549620000000 1.0
C      1  0.5130310000000  0.5163280000000  0.5742740000000 1.0
C      1  0.5120480000000  0.5846470000000  0.5152170000000 1.0
C      1  0.5120850000000  0.5463720000000  0.4196220000000 1.0
C      1  0.5132410000000  0.4344200000000  0.4370830000000 1.0
C      1  0.5111990000000  0.4232210000000  0.5478840000000 1.0
C      1  0.4617280000000  0.5636170000000  0.5139140000000 1.0
C      1  0.4615610000000  0.5338090000000  0.4475520000000 1.0
C      1  0.4640300000000  0.4580100000000  0.4509160000000 1.0
C      1  0.4664660000000  0.4476300000000  0.5194640000000 1.0
C      1  0.4612230000000  0.5001980000000  0.5707010000000 1.0
C      1  0.5558570000000  0.4383170000000  0.5357620000000 1.0
C      1  0.5544660000000  0.5140120000000  0.5671200000000 1.0
C      1  0.5558780000000  0.5651410000000  0.5096260000000 1.0
C      1  0.5585150000000  0.5297330000000  0.4334930000000 1.0
C      1  0.5584130000000  0.4447100000000  0.4517320000000 1.0
C      1  0.5573990000000  0.4298800000000  0.4935400000000 1.0
C      1  0.5549230000000  0.4723870000000  0.5622420000000 1.0
C      1  0.5571340000000  0.5525780000000  0.5491110000000 1.0
C      1  0.5566550000000  0.5641200000000  0.4677530000000 1.0
C      1  0.5560690000000  0.4880050000000  0.4298940000000 1.0
C      1  0.4797340000000  0.5628550000000  0.4778530000000 1.0
C      1  0.4787870000000  0.4990590000000  0.4366220000000 1.0
C      1  0.4812820000000  0.4360550000000  0.4806330000000 1.0
C      1  0.4659980000000  0.4601280000000  0.5456750000000 1.0
C      1  0.4773550000000  0.5424670000000  0.5547060000000 1.0
C      1  0.5222910000000  0.4165320000000  0.4584620000000 1.0
C      1  0.5222830000000  0.4377830000000  0.5715810000000 1.0
C      1  0.5195920000000  0.5437250000000  0.5802430000000 1.0
C      1  0.5195460000000  0.5891070000000  0.4870830000000 1.0
C      1  0.5187140000000  0.5180160000000  0.4114180000000 1.0
C      1  0.5505740000000  0.4209060000000  0.4660950000000 1.0
C      1  0.5515050000000  0.4418760000000  0.5642720000000 1.0
C      1  0.5485890000000  0.5416820000000  0.5753420000000 1.0
C      1  0.5482720000000  0.5838380000000  0.4879240000000 1.0
C      1  0.5474630000000  0.5114210000000  0.4146550000000 1.0
C      1  0.5284350000000  0.4377550000000  0.4989370000000 1.0
C      1  0.5279760000000  0.4718530000000  0.5490300000000 1.0
C      1  0.5277620000000  0.5474020000000  0.5413880000000 1.0
C      1  0.5296680000000  0.5586430000000  0.4604390000000 1.0
C      1  0.5289870000000  0.4850750000000  0.4442920000000 1.0
C      1  0.4884480000000  0.4127600000000  0.5361600000000 1.0
C      1  0.5040150000000  0.4910720000000  0.5884200000000 1.0
C      1  0.4946570000000  0.5818510000000  0.5386560000000 1.0
C      1  0.4940510000000  0.5630020000000  0.4341400000000 1.0
C      1  0.4842310000000  0.4433110000000  0.4309740000000 1.0
C      1  0.5013840000000  0.5593790000000  0.5597900000000 1.0
C      1  0.5043080000000  0.5749380000000  0.4644650000000 1.0
C      1  0.5057060000000  0.4980140000000  0.4269620000000 1.0
C      1  0.5073480000000  0.4240530000000  0.4820650000000 1.0
C      1  0.5121040000000  0.4655350000000  0.5719650000000 1.0
C      1  0.4987630000000  0.5193550000000  0.4843020000000 1.0
C      1  0.4942000000000  0.4918860000000  0.4793770000000 1.0
C      1  0.4996850000000  0.4775700000000  0.5022950000000 1.0
C      1  0.4928660000000  0.4958790000000  0.5253500000000 1.0
C      1  0.4939260000000  0.5208180000000  0.5129180000000 1.0
C      1  0.4441680000000  0.5564870000000  0.4516650000000 1.0
C      1  0.4447450000000  0.4713280000000  0.4294700000000 1.0
C      1  0.4494200000000  0.4275500000000  0.5052020000000 1.0
C      1  0.4344420000000  0.4846190000000  0.5676770000000 1.0
C      1  0.4412380000000  0.5694890000000  0.5357400000000 1.0
C      1  0.5271130000000  0.4428160000000  0.5304630000000 1.0
C      1  0.5300210000000  0.5176680000000  0.5473320000000 1.0
C      1  0.5290690000000  0.5617130000000  0.5188120000000 1.0
C      1  0.5340290000000  0.5437600000000  0.4390130000000 1.0
C      1  0.5336670000000  0.4541510000000  0.4391950000000 1.0
C      1  0.4486970000000  0.5200960000000  0.5225270000000 1.0
C      1  0.4394080000000  0.5222020000000  0.4962020000000 1.0
C      1  0.4432100000000  0.4996990000000  0.4778920000000 1.0
C      1  0.4292100000000  0.4782990000000  0.4945040000000 1.0
C      1  0.4211050000000  0.4803810000000  0.5231540000000 1.0
END
