TITL C-2441162-9305-1211 0.113019456310398 125000 -18034.7551845745 0 0 137 (C1) n - 1
REM
REM in /home/bkarasulu/work/CARBON/AIRSS/Generating-Clusters/ReaxFF-fromJPCA2015/Units_Real/with-SteepDescent/Higher-Symm
REM
REM
REM
REM
REM
REM ./C.cell (1df0a924f5614ab8850e4351716899ee)
REM
REM compiler GCC version 9.2.1 20190827 (Red Hat 9.2.1-1)
REM options -cpp -mtune=generic -march=x86-64 -g -O0 -fpre-include=/usr/include/finclude/math-vector-fortran.h
REM seed -571041142 61580 1725854693 1539409959 -769679073 -898918747 855507253 -350564320 -571340574 -702867250 -1132060738 1980318844 -123354663 -1314222738 -328315823 -874235843 -1463272189 363345424 2009523629 1511137588 -1168387192 -755999539 953233932 -588071157 1678891810 -1110904307 774662829 230856251 1221922549 1362382344 704709374 1378233086 1964058177
REM
CELL 1.54180   50.00000   50.00000   50.00000   90.00000   90.00000   90.00000
LATT -1
SFAC C  
C      1  0.5357740000000  0.5855210000000  0.4850610000000 1.0
C      1  0.5370270000000  0.5859690000000  0.5135410000000 1.0
C      1  0.4370900000000  0.4376750000000  0.4706620000000 1.0
C      1  0.4403970000000  0.4342630000000  0.5266620000000 1.0
C      1  0.5623170000000  0.4667380000000  0.5454630000000 1.0
C      1  0.5606090000000  0.4669790000000  0.4536450000000 1.0
C      1  0.4781470000000  0.4944920000000  0.4116080000000 1.0
C      1  0.4778970000000  0.4949190000000  0.5876230000000 1.0
C      1  0.4368720000000  0.5041020000000  0.5798490000000 1.0
C      1  0.4378770000000  0.5026710000000  0.4235410000000 1.0
C      1  0.5569380000000  0.4946810000000  0.5772260000000 1.0
C      1  0.5553730000000  0.4953070000000  0.4242020000000 1.0
C      1  0.5122980000000  0.5895170000000  0.5276610000000 1.0
C      1  0.5096540000000  0.5909140000000  0.4723950000000 1.0
C      1  0.4570560000000  0.5003330000000  0.4657360000000 1.0
C      1  0.4597060000000  0.5077390000000  0.5410500000000 1.0
C      1  0.5500250000000  0.5626040000000  0.4755670000000 1.0
C      1  0.5503650000000  0.5634590000000  0.5232400000000 1.0
C      1  0.5073620000000  0.5250700000000  0.4676710000000 1.0
C      1  0.5089890000000  0.5236540000000  0.5299340000000 1.0
C      1  0.5329160000000  0.4316090000000  0.4408010000000 1.0
C      1  0.5331800000000  0.4301050000000  0.5587640000000 1.0
C      1  0.4945400000000  0.5072580000000  0.5144470000000 1.0
C      1  0.4941980000000  0.5106110000000  0.4878580000000 1.0
C      1  0.4496250000000  0.4829970000000  0.4064630000000 1.0
C      1  0.4494950000000  0.4830920000000  0.5950270000000 1.0
C      1  0.4337430000000  0.4999910000000  0.5510580000000 1.0
C      1  0.4310020000000  0.4912710000000  0.4522300000000 1.0
C      1  0.5000040000000  0.5816550000000  0.4462280000000 1.0
C      1  0.5009080000000  0.5815300000000  0.5528970000000 1.0
C      1  0.4546010000000  0.5082650000000  0.5120100000000 1.0
C      1  0.4508100000000  0.5223930000000  0.4865160000000 1.0
C      1  0.4083190000000  0.4772710000000  0.4840810000000 1.0
C      1  0.4087370000000  0.4762310000000  0.5141900000000 1.0
C      1  0.5798810000000  0.5279510000000  0.4624090000000 1.0
C      1  0.5801090000000  0.5331690000000  0.5370870000000 1.0
C      1  0.4625100000000  0.4747190000000  0.4856390000000 1.0
C      1  0.4527860000000  0.4798370000000  0.5119620000000 1.0
C      1  0.4666420000000  0.4577440000000  0.5582560000000 1.0
C      1  0.4722090000000  0.4637060000000  0.4427160000000 1.0
C      1  0.4842480000000  0.4354300000000  0.5507630000000 1.0
C      1  0.4843640000000  0.4387100000000  0.4509690000000 1.0
C      1  0.4644690000000  0.4304860000000  0.5105300000000 1.0
C      1  0.4598570000000  0.4465260000000  0.4860640000000 1.0
C      1  0.5143940000000  0.4655780000000  0.5300070000000 1.0
C      1  0.5131200000000  0.4663040000000  0.4754880000000 1.0
C      1  0.4488400000000  0.5697480000000  0.4443450000000 1.0
C      1  0.4482350000000  0.5690780000000  0.5552650000000 1.0
C      1  0.5208180000000  0.5143160000000  0.6039990000000 1.0
C      1  0.5200430000000  0.5129260000000  0.3963530000000 1.0
C      1  0.5079700000000  0.5093730000000  0.5543560000000 1.0
C      1  0.5097900000000  0.5037810000000  0.4480200000000 1.0
C      1  0.5367070000000  0.4139750000000  0.4621320000000 1.0
C      1  0.5350930000000  0.4137980000000  0.5352290000000 1.0
C      1  0.4120490000000  0.5258170000000  0.5165110000000 1.0
C      1  0.4192650000000  0.5254820000000  0.4836900000000 1.0
C      1  0.4294650000000  0.5701980000000  0.5323900000000 1.0
C      1  0.4325280000000  0.5697550000000  0.4688720000000 1.0
C      1  0.4483000000000  0.5647560000000  0.5126310000000 1.0
C      1  0.4513800000000  0.5590940000000  0.4862940000000 1.0
C      1  0.4226630000000  0.4612860000000  0.4645960000000 1.0
C      1  0.4319780000000  0.4623690000000  0.5243840000000 1.0
C      1  0.4922850000000  0.5152370000000  0.3976320000000 1.0
C      1  0.4930560000000  0.5155000000000  0.6048080000000 1.0
C      1  0.4877080000000  0.4689620000000  0.4041940000000 1.0
C      1  0.4879990000000  0.4693090000000  0.5955050000000 1.0
C      1  0.4876330000000  0.5451240000000  0.4682460000000 1.0
C      1  0.4896680000000  0.5457390000000  0.5290940000000 1.0
C      1  0.5198710000000  0.4418240000000  0.4892000000000 1.0
C      1  0.5099770000000  0.4408000000000  0.5150620000000 1.0
C      1  0.5069620000000  0.5378340000000  0.4277870000000 1.0
C      1  0.5069430000000  0.5366330000000  0.5729670000000 1.0
C      1  0.4983960000000  0.5675570000000  0.5142730000000 1.0
C      1  0.4980620000000  0.5665840000000  0.4849310000000 1.0
C      1  0.4551690000000  0.4308840000000  0.5515270000000 1.0
C      1  0.4593580000000  0.4193390000000  0.4557450000000 1.0
C      1  0.5532400000000  0.5218930000000  0.4171060000000 1.0
C      1  0.5535320000000  0.5222430000000  0.5818540000000 1.0
C      1  0.4822080000000  0.4967580000000  0.5567100000000 1.0
C      1  0.4815390000000  0.4923270000000  0.4459500000000 1.0
C      1  0.4330770000000  0.5469970000000  0.4347700000000 1.0
C      1  0.4341560000000  0.5463900000000  0.5657670000000 1.0
C      1  0.5770960000000  0.4887180000000  0.5581970000000 1.0
C      1  0.5752030000000  0.4905810000000  0.4446490000000 1.0
C      1  0.5603390000000  0.4251880000000  0.4752900000000 1.0
C      1  0.5570140000000  0.4265970000000  0.5209540000000 1.0
C      1  0.4923950000000  0.4797140000000  0.5174500000000 1.0
C      1  0.4913650000000  0.4796140000000  0.4876000000000 1.0
C      1  0.5346300000000  0.5066240000000  0.5151930000000 1.0
C      1  0.5416200000000  0.5038310000000  0.4873540000000 1.0
C      1  0.5889020000000  0.5061020000000  0.5387460000000 1.0
C      1  0.5890300000000  0.4989700000000  0.4694630000000 1.0
C      1  0.4112430000000  0.5007350000000  0.5303110000000 1.0
C      1  0.4120480000000  0.5018370000000  0.4701050000000 1.0
C      1  0.4521690000000  0.5300370000000  0.5817990000000 1.0
C      1  0.4516650000000  0.5280730000000  0.4220530000000 1.0
C      1  0.5117960000000  0.4097710000000  0.4765630000000 1.0
C      1  0.5092120000000  0.4128430000000  0.5215760000000 1.0
C      1  0.4627540000000  0.4583310000000  0.4155080000000 1.0
C      1  0.4623920000000  0.4584100000000  0.5873400000000 1.0
C      1  0.5502890000000  0.4513140000000  0.5662290000000 1.0
C      1  0.5501170000000  0.4517720000000  0.4336640000000 1.0
C      1  0.5121760000000  0.4608730000000  0.4160570000000 1.0
C      1  0.5123460000000  0.4620860000000  0.5829110000000 1.0
C      1  0.4191170000000  0.5436090000000  0.5377830000000 1.0
C      1  0.4185050000000  0.5460730000000  0.4607140000000 1.0
C      1  0.5431400000000  0.5562480000000  0.5492380000000 1.0
C      1  0.5444070000000  0.5562420000000  0.4490310000000 1.0
C      1  0.5077520000000  0.4388240000000  0.5671290000000 1.0
C      1  0.5072120000000  0.4378080000000  0.4324750000000 1.0
C      1  0.5620390000000  0.5357150000000  0.4412000000000 1.0
C      1  0.5612390000000  0.5369690000000  0.5581450000000 1.0
C      1  0.5309020000000  0.5345050000000  0.5915810000000 1.0
C      1  0.5293350000000  0.5329120000000  0.4096780000000 1.0
C      1  0.5913760000000  0.4674270000000  0.4827910000000 1.0
C      1  0.5900550000000  0.4647660000000  0.5108570000000 1.0
C      1  0.5345020000000  0.4862020000000  0.5350070000000 1.0
C      1  0.5298740000000  0.4866840000000  0.4639630000000 1.0
C      1  0.4720190000000  0.5823440000000  0.4855240000000 1.0
C      1  0.4705530000000  0.5836830000000  0.5143000000000 1.0
C      1  0.4832960000000  0.4073380000000  0.4775230000000 1.0
C      1  0.4834320000000  0.4074390000000  0.5070690000000 1.0
C      1  0.4774430000000  0.5627100000000  0.5492530000000 1.0
C      1  0.4775380000000  0.5618450000000  0.4462110000000 1.0
C      1  0.5395410000000  0.4718820000000  0.4165940000000 1.0
C      1  0.5399190000000  0.4714820000000  0.5832520000000 1.0
C      1  0.5189960000000  0.5624710000000  0.5632540000000 1.0
C      1  0.5191410000000  0.5627890000000  0.4363090000000 1.0
C      1  0.5720240000000  0.5478120000000  0.5131850000000 1.0
C      1  0.5716660000000  0.5457590000000  0.4844430000000 1.0
C      1  0.4802350000000  0.5359880000000  0.4144690000000 1.0
C      1  0.4802340000000  0.5354460000000  0.5884850000000 1.0
C      1  0.5814830000000  0.4923360000000  0.5152030000000 1.0
C      1  0.5695670000000  0.5016280000000  0.4916590000000 1.0
C      1  0.5769720000000  0.4481370000000  0.4685660000000 1.0
C      1  0.5752660000000  0.4473610000000  0.5282670000000 1.0
C      1  0.5474020000000  0.4382730000000  0.4966690000000 1.0
END
