TITL C-2441165-58-318 -4.73406356637178e-09 125000 -616.374212868223 0 0 5 (D(inf)h) n - 1
REM
REM in /home/bkarasulu/work/CARBON/AIRSS/Generating-Clusters/ReaxFF-fromJPCA2015/Units_Real/with-SteepDescent/Higher-Symm
REM
REM
REM
REM
REM
REM ./C.cell (1df0a924f5614ab8850e4351716899ee)
REM
REM compiler GCC version 9.2.1 20190827 (Red Hat 9.2.1-1)
REM options -cpp -mtune=generic -march=x86-64 -g -O0 -fpre-include=/usr/include/finclude/math-vector-fortran.h
REM seed -1769078051 -498329162 -370203856 676667527 -2050961685 1518737361 -44902870 -952985346 -1291519206 171056023 -1998929343 -603280667 -765589766 1249219980 261972247 1838482765 -727257144 -570992154 -1336235829 481663527 -1384836693 -834655133 786389269 809511588 1393271450 702218769 -712329815 1918978437 -880162113 -92513843 -1094589272 -1683095018 -1598517833
REM
CELL 1.54180   50.00000   50.00000   50.00000   90.00000   90.00000   90.00000
LATT -1
SFAC C  
C      1  0.4993010000000  0.4993590000000  0.5501350000000 1.0
C      1  0.4993010000000  0.4993590000000  0.4498650000000 1.0
C      1  0.4993010000000  0.4993590000000  0.5000000000000 1.0
C      1  0.4993010000000  0.4993590000000  0.4742870000000 1.0
C      1  0.4993010000000  0.4993590000000  0.5257130000000 1.0
END
