TITL C-2441169-1362-444 0.00779298103505622 125000 -6583.30311191011 0 0 46 (C1) n - 1
REM
REM in /home/bkarasulu/work/CARBON/AIRSS/Generating-Clusters/ReaxFF-fromJPCA2015/Units_Real/with-SteepDescent/Higher-Symm
REM
REM
REM
REM
REM
REM ./C.cell (1df0a924f5614ab8850e4351716899ee)
REM
REM compiler GCC version 9.2.1 20190827 (Red Hat 9.2.1-1)
REM options -cpp -mtune=generic -march=x86-64 -g -O0 -fpre-include=/usr/include/finclude/math-vector-fortran.h
REM seed 1594254118 812257841 1809999007 1710162086 -1570338535 51549431 1783266204 -867691869 -897728992 2040813677 -1001570463 1823162664 -994534116 -505203204 -631600589 -1701889432 -1985712357 -2064580734 1660771895 1833078379 203652194 -935991463 130007074 2027580411 -705976060 452167332 -1639663034 1372477808 -1109529664 -1142411801 658375332 699574566 -210278591
REM
CELL 1.54180   50.00000   50.00000   50.00000   90.00000   90.00000   90.00000
LATT -1
SFAC C  
C      1  0.4611480000000  0.4962630000000  0.4847110000000 1.0
C      1  0.4975420000000  0.5611200000000  0.5105940000000 1.0
C      1  0.4633850000000  0.5071050000000  0.5499760000000 1.0
C      1  0.5703420000000  0.4973090000000  0.5100900000000 1.0
C      1  0.5356470000000  0.4466660000000  0.4866780000000 1.0
C      1  0.5402440000000  0.5060880000000  0.5515840000000 1.0
C      1  0.5286980000000  0.5280940000000  0.5091400000000 1.0
C      1  0.5288980000000  0.5087830000000  0.4500620000000 1.0
C      1  0.4403180000000  0.4922090000000  0.5366080000000 1.0
C      1  0.4466630000000  0.4701270000000  0.4886890000000 1.0
C      1  0.4845490000000  0.4438940000000  0.5011350000000 1.0
C      1  0.4347160000000  0.5119120000000  0.5175660000000 1.0
C      1  0.4753630000000  0.4668000000000  0.5196370000000 1.0
C      1  0.4881050000000  0.4935290000000  0.5586600000000 1.0
C      1  0.4519780000000  0.5212440000000  0.4724460000000 1.0
C      1  0.4900300000000  0.5478590000000  0.5360450000000 1.0
C      1  0.4835300000000  0.4934990000000  0.5020430000000 1.0
C      1  0.4420650000000  0.5383450000000  0.5186010000000 1.0
C      1  0.5584300000000  0.4630440000000  0.4882660000000 1.0
C      1  0.4406350000000  0.5405710000000  0.4889220000000 1.0
C      1  0.4645210000000  0.5339820000000  0.5387160000000 1.0
C      1  0.5118860000000  0.5368930000000  0.5524050000000 1.0
C      1  0.4634940000000  0.5471400000000  0.4730000000000 1.0
C      1  0.4877860000000  0.5591260000000  0.4831530000000 1.0
C      1  0.5022780000000  0.4536050000000  0.4555450000000 1.0
C      1  0.5370920000000  0.5314040000000  0.5366510000000 1.0
C      1  0.4912370000000  0.4680340000000  0.5455610000000 1.0
C      1  0.5050700000000  0.5034950000000  0.4663250000000 1.0
C      1  0.4833180000000  0.4907570000000  0.4475060000000 1.0
C      1  0.4777440000000  0.5017300000000  0.4245520000000 1.0
C      1  0.5270900000000  0.5360230000000  0.4576220000000 1.0
C      1  0.5130550000000  0.5094370000000  0.5631470000000 1.0
C      1  0.5510760000000  0.4888440000000  0.5297320000000 1.0
C      1  0.5164660000000  0.5576370000000  0.4724250000000 1.0
C      1  0.5269790000000  0.4808250000000  0.5157220000000 1.0
C      1  0.5128860000000  0.4421820000000  0.5064520000000 1.0
C      1  0.5302090000000  0.4566600000000  0.4583740000000 1.0
C      1  0.5148090000000  0.4594850000000  0.5307720000000 1.0
C      1  0.4661970000000  0.4490560000000  0.4789420000000 1.0
C      1  0.5114870000000  0.5024260000000  0.4985450000000 1.0
C      1  0.4441630000000  0.4702200000000  0.5174620000000 1.0
C      1  0.5450980000000  0.4827090000000  0.4539300000000 1.0
C      1  0.5686860000000  0.4825180000000  0.4706520000000 1.0
C      1  0.5254570000000  0.5554490000000  0.5013400000000 1.0
C      1  0.5832110000000  0.5069580000000  0.4868650000000 1.0
C      1  0.4764200000000  0.4589450000000  0.4531510000000 1.0
END
