TITL C-2441163-1170-1204 0.0112209735815318 125000 -17521.3808527564 0 0 116 (C1) n - 1
REM
REM in /home/bkarasulu/work/CARBON/AIRSS/Generating-Clusters/ReaxFF-fromJPCA2015/Units_Real/with-SteepDescent/Higher-Symm
REM
REM
REM
REM
REM
REM ./C.cell (1df0a924f5614ab8850e4351716899ee)
REM
REM compiler GCC version 9.2.1 20190827 (Red Hat 9.2.1-1)
REM options -cpp -mtune=generic -march=x86-64 -g -O0 -fpre-include=/usr/include/finclude/math-vector-fortran.h
REM seed 492745220 1566849736 1748790239 -290767308 -1741659114 -1739278335 326494465 90149128 -791756575 2053517386 58443358 1229491593 -743520673 17456034 -2059384895 1495916231 -1953832638 2085891493 1273518760 -1591088363 1282405312 -1682111223 -107661259 -523430275 1444806142 -1632038721 1902166783 -2106162989 -332912984 454623699 1486290825 1125270431 -1167262473
REM
CELL 1.54180   50.00000   50.00000   50.00000   90.00000   90.00000   90.00000
LATT -1
SFAC C  
C      1  0.4666700000000  0.4403400000000  0.5675420000000 1.0
C      1  0.5335090000000  0.4379280000000  0.4329440000000 1.0
C      1  0.5673720000000  0.5176540000000  0.4328110000000 1.0
C      1  0.4339210000000  0.5204670000000  0.5582250000000 1.0
C      1  0.5557490000000  0.5458470000000  0.4308800000000 1.0
C      1  0.4859180000000  0.5386880000000  0.5771130000000 1.0
C      1  0.4719790000000  0.4134940000000  0.5088670000000 1.0
C      1  0.5280120000000  0.4124720000000  0.4910790000000 1.0
C      1  0.4677010000000  0.5540950000000  0.5602280000000 1.0
C      1  0.5438800000000  0.5630490000000  0.4508080000000 1.0
C      1  0.4306960000000  0.4996070000000  0.4682320000000 1.0
C      1  0.5686160000000  0.5066980000000  0.5324110000000 1.0
C      1  0.5335170000000  0.4756370000000  0.4709500000000 1.0
C      1  0.4662640000000  0.4791530000000  0.5279210000000 1.0
C      1  0.4705860000000  0.5788170000000  0.4554170000000 1.0
C      1  0.5290130000000  0.5839780000000  0.5426190000000 1.0
C      1  0.4519790000000  0.5611420000000  0.4713140000000 1.0
C      1  0.5497930000000  0.5666100000000  0.5282240000000 1.0
C      1  0.4872330000000  0.4696070000000  0.4744610000000 1.0
C      1  0.5104260000000  0.4643620000000  0.5227940000000 1.0
C      1  0.5115320000000  0.5506340000000  0.5786830000000 1.0
C      1  0.4861750000000  0.5423050000000  0.4236500000000 1.0
C      1  0.4818290000000  0.5926520000000  0.4773520000000 1.0
C      1  0.5137250000000  0.5955270000000  0.5217670000000 1.0
C      1  0.4517590000000  0.4210840000000  0.4665450000000 1.0
C      1  0.5471950000000  0.4221780000000  0.5325490000000 1.0
C      1  0.5267820000000  0.5925020000000  0.4966430000000 1.0
C      1  0.4691260000000  0.5861870000000  0.5025600000000 1.0
C      1  0.4694060000000  0.4986410000000  0.5086880000000 1.0
C      1  0.5387220000000  0.4912760000000  0.4941910000000 1.0
C      1  0.5628390000000  0.4352700000000  0.5111170000000 1.0
C      1  0.4323330000000  0.4293670000000  0.4875230000000 1.0
C      1  0.5139090000000  0.4903480000000  0.5106990000000 1.0
C      1  0.4890120000000  0.4935320000000  0.4892710000000 1.0
C      1  0.4417490000000  0.4397330000000  0.4481030000000 1.0
C      1  0.5528810000000  0.4357530000000  0.5574350000000 1.0
C      1  0.4525530000000  0.5020940000000  0.5699140000000 1.0
C      1  0.5457420000000  0.4978770000000  0.4314330000000 1.0
C      1  0.5120070000000  0.4576130000000  0.4697650000000 1.0
C      1  0.4846220000000  0.4582810000000  0.5287600000000 1.0
C      1  0.4866440000000  0.4822600000000  0.5955690000000 1.0
C      1  0.5132010000000  0.4792890000000  0.4067090000000 1.0
C      1  0.5857700000000  0.5287380000000  0.5262250000000 1.0
C      1  0.4173280000000  0.5250120000000  0.4741310000000 1.0
C      1  0.5822280000000  0.5081550000000  0.4551870000000 1.0
C      1  0.4202040000000  0.4985480000000  0.5446230000000 1.0
C      1  0.5493700000000  0.5763610000000  0.4993590000000 1.0
C      1  0.4490230000000  0.5671690000000  0.4994060000000 1.0
C      1  0.4991850000000  0.4570200000000  0.5876840000000 1.0
C      1  0.4934330000000  0.4603990000000  0.4074930000000 1.0
C      1  0.4201650000000  0.5223180000000  0.5025240000000 1.0
C      1  0.5849400000000  0.5225390000000  0.4975570000000 1.0
C      1  0.5190190000000  0.5024830000000  0.4220430000000 1.0
C      1  0.4793220000000  0.5076950000000  0.5791720000000 1.0
C      1  0.4722170000000  0.4599580000000  0.5875870000000 1.0
C      1  0.5204700000000  0.4522250000000  0.4111660000000 1.0
C      1  0.4272300000000  0.5479900000000  0.4573360000000 1.0
C      1  0.5751480000000  0.5518120000000  0.5419030000000 1.0
C      1  0.4709480000000  0.4735710000000  0.4517910000000 1.0
C      1  0.5265600000000  0.4610130000000  0.5455920000000 1.0
C      1  0.5649520000000  0.4610910000000  0.5567980000000 1.0
C      1  0.4294970000000  0.4618040000000  0.4363350000000 1.0
C      1  0.5145530000000  0.5063670000000  0.5359600000000 1.0
C      1  0.4858930000000  0.5157700000000  0.4625910000000 1.0
C      1  0.5488950000000  0.4772220000000  0.4488610000000 1.0
C      1  0.4459520000000  0.4805270000000  0.5515580000000 1.0
C      1  0.4140150000000  0.4974120000000  0.5165220000000 1.0
C      1  0.5900230000000  0.4981760000000  0.4797870000000 1.0
C      1  0.5388990000000  0.5199640000000  0.4882740000000 1.0
C      1  0.4682000000000  0.5262350000000  0.5135090000000 1.0
C      1  0.5261980000000  0.4919310000000  0.5794470000000 1.0
C      1  0.4460180000000  0.4774410000000  0.4163860000000 1.0
C      1  0.5222940000000  0.4124830000000  0.5194780000000 1.0
C      1  0.4776960000000  0.4128950000000  0.4807600000000 1.0
C      1  0.5331140000000  0.5423370000000  0.5287870000000 1.0
C      1  0.4778820000000  0.5403430000000  0.4757400000000 1.0
C      1  0.5039970000000  0.4981650000000  0.5613550000000 1.0
C      1  0.5006450000000  0.5204130000000  0.4360100000000 1.0
C      1  0.4323700000000  0.4460860000000  0.5294300000000 1.0
C      1  0.5689960000000  0.4455880000000  0.4702420000000 1.0
C      1  0.5573110000000  0.4508280000000  0.4438430000000 1.0
C      1  0.4421150000000  0.4508400000000  0.5556780000000 1.0
C      1  0.5551230000000  0.4243250000000  0.4858600000000 1.0
C      1  0.4444700000000  0.4247030000000  0.5131800000000 1.0
C      1  0.5402160000000  0.5176520000000  0.5422120000000 1.0
C      1  0.4571860000000  0.5005920000000  0.4522330000000 1.0
C      1  0.4496030000000  0.5054500000000  0.4225350000000 1.0
C      1  0.5447510000000  0.5129580000000  0.5746150000000 1.0
C      1  0.5804440000000  0.4695120000000  0.4846480000000 1.0
C      1  0.4191180000000  0.4674780000000  0.5126170000000 1.0
C      1  0.4941380000000  0.4139110000000  0.5283110000000 1.0
C      1  0.5056110000000  0.4122130000000  0.4719250000000 1.0
C      1  0.5105060000000  0.5914030000000  0.4733360000000 1.0
C      1  0.4853740000000  0.5902380000000  0.5255080000000 1.0
C      1  0.5747420000000  0.4783900000000  0.5359470000000 1.0
C      1  0.4192650000000  0.4734800000000  0.4623560000000 1.0
C      1  0.4388350000000  0.5434330000000  0.4327680000000 1.0
C      1  0.5618610000000  0.5487550000000  0.5662640000000 1.0
C      1  0.5403380000000  0.5403460000000  0.5829430000000 1.0
C      1  0.4583620000000  0.5332880000000  0.4154920000000 1.0
C      1  0.4426450000000  0.5429660000000  0.5157690000000 1.0
C      1  0.5628450000000  0.5339030000000  0.4845130000000 1.0
C      1  0.5674410000000  0.4654400000000  0.5098140000000 1.0
C      1  0.4189580000000  0.4564080000000  0.4865510000000 1.0
C      1  0.4832810000000  0.5772330000000  0.5510660000000 1.0
C      1  0.5165060000000  0.5755970000000  0.4502040000000 1.0
C      1  0.5271250000000  0.4616210000000  0.5744690000000 1.0
C      1  0.4705050000000  0.4638080000000  0.4245260000000 1.0
C      1  0.4439540000000  0.5445730000000  0.5464680000000 1.0
C      1  0.5575450000000  0.5603960000000  0.4778020000000 1.0
C      1  0.4859690000000  0.4356720000000  0.5456850000000 1.0
C      1  0.5127980000000  0.4336110000000  0.4530910000000 1.0
C      1  0.5100320000000  0.5748570000000  0.5621910000000 1.0
C      1  0.4911050000000  0.5678190000000  0.4380100000000 1.0
C      1  0.5199520000000  0.5362970000000  0.5037030000000 1.0
C      1  0.4907460000000  0.5406950000000  0.5014940000000 1.0
END
