TITL C-2441165-58-1326 0.0125200290541253 125000 -3644.94396087754 0 0 32 (C1) n - 1
REM
REM in /home/bkarasulu/work/CARBON/AIRSS/Generating-Clusters/ReaxFF-fromJPCA2015/Units_Real/with-SteepDescent/Higher-Symm
REM
REM
REM
REM
REM
REM ./C.cell (1df0a924f5614ab8850e4351716899ee)
REM
REM compiler GCC version 9.2.1 20190827 (Red Hat 9.2.1-1)
REM options -cpp -mtune=generic -march=x86-64 -g -O0 -fpre-include=/usr/include/finclude/math-vector-fortran.h
REM seed 1762956907 -975245877 163783624 1677412395 -1922388810 -938837679 -457502740 -1435194790 -1599530653 -645509191 -2081132390 833581651 313316221 -560405548 892071946 -448650912 304972855 914112668 1184411896 339476610 -788881538 1394364998 1119185368 -1454139358 2117256717 2073520897 -668876368 -526942489 -776805579 -220932428 1683622528 -1629494237 -1680476719
REM
CELL 1.54180   50.00000   50.00000   50.00000   90.00000   90.00000   90.00000
LATT -1
SFAC C  
C      1  0.5227220000000  0.5087250000000  0.4853290000000 1.0
C      1  0.4701230000000  0.5371670000000  0.4643900000000 1.0
C      1  0.4928730000000  0.4958770000000  0.4624220000000 1.0
C      1  0.5584620000000  0.4813300000000  0.4912140000000 1.0
C      1  0.4758770000000  0.4567080000000  0.5391890000000 1.0
C      1  0.5186010000000  0.5629750000000  0.5169680000000 1.0
C      1  0.5182880000000  0.4918190000000  0.5465350000000 1.0
C      1  0.5488270000000  0.5048660000000  0.5023310000000 1.0
C      1  0.4573170000000  0.5145480000000  0.5176130000000 1.0
C      1  0.4973280000000  0.5196860000000  0.5198880000000 1.0
C      1  0.5245770000000  0.4688560000000  0.5237990000000 1.0
C      1  0.4985420000000  0.5001180000000  0.5008600000000 1.0
C      1  0.4921250000000  0.4562140000000  0.4849650000000 1.0
C      1  0.4908640000000  0.4842090000000  0.5354570000000 1.0
C      1  0.5319370000000  0.4799140000000  0.4672190000000 1.0
C      1  0.4740110000000  0.4942610000000  0.4870000000000 1.0
C      1  0.4936220000000  0.5677100000000  0.5128620000000 1.0
C      1  0.4590330000000  0.5242610000000  0.4901720000000 1.0
C      1  0.4935970000000  0.4907670000000  0.4373420000000 1.0
C      1  0.4674570000000  0.4652590000000  0.4766900000000 1.0
C      1  0.5120990000000  0.5363390000000  0.4802780000000 1.0
C      1  0.4452510000000  0.4960580000000  0.5340170000000 1.0
C      1  0.5340970000000  0.5410210000000  0.5151510000000 1.0
C      1  0.5292010000000  0.5156510000000  0.5276910000000 1.0
C      1  0.4675430000000  0.4820680000000  0.5543920000000 1.0
C      1  0.4889370000000  0.5408720000000  0.5004950000000 1.0
C      1  0.5177230000000  0.4634740000000  0.4928560000000 1.0
C      1  0.4965340000000  0.5270260000000  0.4566810000000 1.0
C      1  0.4926240000000  0.4965640000000  0.5599890000000 1.0
C      1  0.5230850000000  0.4802320000000  0.4397510000000 1.0
C      1  0.5301410000000  0.4448380000000  0.5263070000000 1.0
C      1  0.4765820000000  0.4705870000000  0.4501480000000 1.0
END
