TITL C-2441164-471-158 0.0828331758767296 125000 -16812.3337178592 0 0 126 (C1) n - 1
REM
REM in /home/bkarasulu/work/CARBON/AIRSS/Generating-Clusters/ReaxFF-fromJPCA2015/Units_Real/with-SteepDescent/Higher-Symm
REM
REM
REM
REM
REM
REM ./C.cell (1df0a924f5614ab8850e4351716899ee)
REM
REM compiler GCC version 9.2.1 20190827 (Red Hat 9.2.1-1)
REM options -cpp -mtune=generic -march=x86-64 -g -O0 -fpre-include=/usr/include/finclude/math-vector-fortran.h
REM seed 2025415861 170681868 -1235698649 640666610 -1176666339 1167344844 -1627637535 750735642 2021069806 280862418 -63086337 -350318775 928008276 324937651 -150526033 792858666 484618357 249958587 1878640520 1842791750 -1772971427 784757698 1679526814 -1695569238 -1499663340 -1820806969 -1878537877 1111336398 859882435 1523977326 1981575989 -1477448413 959988135
REM
CELL 1.54180   50.00000   50.00000   50.00000   90.00000   90.00000   90.00000
LATT -1
SFAC C  
C      1  0.5853420000000  0.5090140000000  0.5392610000000 1.0
C      1  0.5870540000000  0.5129940000000  0.4599350000000 1.0
C      1  0.4897620000000  0.5310940000000  0.4794020000000 1.0
C      1  0.4918060000000  0.5181010000000  0.5252690000000 1.0
C      1  0.4788450000000  0.5610310000000  0.5151590000000 1.0
C      1  0.4886110000000  0.5575910000000  0.4894430000000 1.0
C      1  0.4379400000000  0.4406180000000  0.5144560000000 1.0
C      1  0.4388400000000  0.4422560000000  0.4861860000000 1.0
C      1  0.5450170000000  0.4902660000000  0.5161910000000 1.0
C      1  0.5400390000000  0.4796190000000  0.4824950000000 1.0
C      1  0.4921040000000  0.4631960000000  0.4851910000000 1.0
C      1  0.4895640000000  0.4633710000000  0.5174580000000 1.0
C      1  0.4546970000000  0.5025930000000  0.4358960000000 1.0
C      1  0.4506410000000  0.5064530000000  0.5661880000000 1.0
C      1  0.5407090000000  0.5759180000000  0.4427900000000 1.0
C      1  0.5364810000000  0.5731740000000  0.5591450000000 1.0
C      1  0.4639550000000  0.5805040000000  0.5511850000000 1.0
C      1  0.4679770000000  0.5795800000000  0.4511550000000 1.0
C      1  0.5882080000000  0.4654750000000  0.5173610000000 1.0
C      1  0.5901460000000  0.4724220000000  0.4900420000000 1.0
C      1  0.5145050000000  0.4555090000000  0.5317010000000 1.0
C      1  0.5173150000000  0.4586890000000  0.4721180000000 1.0
C      1  0.4901550000000  0.5228180000000  0.4056280000000 1.0
C      1  0.4905850000000  0.5227650000000  0.5934580000000 1.0
C      1  0.5213140000000  0.4576990000000  0.5584110000000 1.0
C      1  0.5214190000000  0.4578310000000  0.4403860000000 1.0
C      1  0.5647870000000  0.4652810000000  0.4740040000000 1.0
C      1  0.5643660000000  0.4699640000000  0.5291520000000 1.0
C      1  0.4997250000000  0.5305290000000  0.5516390000000 1.0
C      1  0.4958980000000  0.5277290000000  0.4526370000000 1.0
C      1  0.5344130000000  0.5737120000000  0.5099730000000 1.0
C      1  0.5477330000000  0.5760170000000  0.4841610000000 1.0
C      1  0.5485290000000  0.4899250000000  0.4339930000000 1.0
C      1  0.5493520000000  0.4872330000000  0.5675370000000 1.0
C      1  0.5337110000000  0.4939160000000  0.5436670000000 1.0
C      1  0.5325980000000  0.4961080000000  0.4582650000000 1.0
C      1  0.4484680000000  0.4344660000000  0.5388410000000 1.0
C      1  0.4497110000000  0.4368510000000  0.4621530000000 1.0
C      1  0.5312490000000  0.4894770000000  0.4103290000000 1.0
C      1  0.5321480000000  0.4865890000000  0.5914720000000 1.0
C      1  0.4702080000000  0.5580420000000  0.5680780000000 1.0
C      1  0.4731240000000  0.5557200000000  0.4332470000000 1.0
C      1  0.5346400000000  0.5888420000000  0.4616620000000 1.0
C      1  0.5346950000000  0.5876040000000  0.5346970000000 1.0
C      1  0.4715300000000  0.4184190000000  0.5389740000000 1.0
C      1  0.4712260000000  0.4197180000000  0.4612630000000 1.0
C      1  0.4393820000000  0.5233420000000  0.4868890000000 1.0
C      1  0.4412260000000  0.5213950000000  0.5147780000000 1.0
C      1  0.4852750000000  0.4092040000000  0.5145610000000 1.0
C      1  0.4852160000000  0.4098910000000  0.4851010000000 1.0
C      1  0.5701190000000  0.5090740000000  0.5116910000000 1.0
C      1  0.5870540000000  0.5011650000000  0.4862560000000 1.0
C      1  0.4503610000000  0.4590030000000  0.5552320000000 1.0
C      1  0.4490570000000  0.4578570000000  0.4420420000000 1.0
C      1  0.4830170000000  0.4737710000000  0.5875620000000 1.0
C      1  0.4834130000000  0.4729020000000  0.4104960000000 1.0
C      1  0.5620300000000  0.5354940000000  0.4343630000000 1.0
C      1  0.5630530000000  0.5332070000000  0.5646930000000 1.0
C      1  0.5113410000000  0.4112920000000  0.4736480000000 1.0
C      1  0.5111460000000  0.4105800000000  0.5266000000000 1.0
C      1  0.5776800000000  0.5410550000000  0.4582160000000 1.0
C      1  0.5790930000000  0.5370640000000  0.5402510000000 1.0
C      1  0.4718440000000  0.5014320000000  0.5853500000000 1.0
C      1  0.4724440000000  0.4997610000000  0.4112640000000 1.0
C      1  0.4951250000000  0.4920540000000  0.5144860000000 1.0
C      1  0.4896370000000  0.4911040000000  0.4896660000000 1.0
C      1  0.4329730000000  0.4849250000000  0.5556660000000 1.0
C      1  0.4321610000000  0.4820490000000  0.4442700000000 1.0
C      1  0.5585910000000  0.4247890000000  0.4859160000000 1.0
C      1  0.5568070000000  0.4272290000000  0.5143310000000 1.0
C      1  0.5209140000000  0.5409010000000  0.4518650000000 1.0
C      1  0.5226720000000  0.5499690000000  0.5461060000000 1.0
C      1  0.5394830000000  0.4348580000000  0.5573370000000 1.0
C      1  0.5377690000000  0.4344600000000  0.4420360000000 1.0
C      1  0.5116860000000  0.5086480000000  0.4194650000000 1.0
C      1  0.5157400000000  0.5098500000000  0.5859650000000 1.0
C      1  0.5616640000000  0.5493440000000  0.4828150000000 1.0
C      1  0.5649370000000  0.5379860000000  0.5135600000000 1.0
C      1  0.5122880000000  0.4677010000000  0.4148490000000 1.0
C      1  0.5114350000000  0.4668900000000  0.5854080000000 1.0
C      1  0.5135670000000  0.4171550000000  0.4453240000000 1.0
C      1  0.5151320000000  0.4175720000000  0.5538060000000 1.0
C      1  0.4121060000000  0.5268280000000  0.4727860000000 1.0
C      1  0.4136960000000  0.5266790000000  0.5266670000000 1.0
C      1  0.4813440000000  0.5863670000000  0.5283540000000 1.0
C      1  0.4860620000000  0.5830340000000  0.4739790000000 1.0
C      1  0.4021970000000  0.5027520000000  0.5153090000000 1.0
C      1  0.4022300000000  0.5024720000000  0.4851460000000 1.0
C      1  0.5365270000000  0.5461660000000  0.5705180000000 1.0
C      1  0.5336240000000  0.5519670000000  0.4284340000000 1.0
C      1  0.5624900000000  0.4413690000000  0.5386190000000 1.0
C      1  0.5607000000000  0.4394410000000  0.4609100000000 1.0
C      1  0.4370320000000  0.5702450000000  0.5379080000000 1.0
C      1  0.4428210000000  0.5732220000000  0.4667990000000 1.0
C      1  0.4601680000000  0.4945090000000  0.4822200000000 1.0
C      1  0.4530690000000  0.4921020000000  0.5119450000000 1.0
C      1  0.4275830000000  0.5346450000000  0.4505940000000 1.0
C      1  0.4255990000000  0.5421400000000  0.5480950000000 1.0
C      1  0.4958090000000  0.5467060000000  0.5771360000000 1.0
C      1  0.4972150000000  0.5478060000000  0.4195610000000 1.0
C      1  0.4747060000000  0.4505750000000  0.5731320000000 1.0
C      1  0.4730430000000  0.4505860000000  0.4259910000000 1.0
C      1  0.5024320000000  0.4987660000000  0.4465820000000 1.0
C      1  0.5118660000000  0.5054820000000  0.5578970000000 1.0
C      1  0.4162720000000  0.4594200000000  0.5149110000000 1.0
C      1  0.4168100000000  0.4599880000000  0.4858960000000 1.0
C      1  0.4498320000000  0.5357520000000  0.5618510000000 1.0
C      1  0.4514900000000  0.5354830000000  0.4374480000000 1.0
C      1  0.4141660000000  0.4823660000000  0.4674810000000 1.0
C      1  0.4142420000000  0.4824750000000  0.5329820000000 1.0
C      1  0.5714140000000  0.5078870000000  0.4335770000000 1.0
C      1  0.5727620000000  0.5049220000000  0.5656490000000 1.0
C      1  0.4528710000000  0.5509140000000  0.5153220000000 1.0
C      1  0.4457190000000  0.5515550000000  0.4868660000000 1.0
C      1  0.5375410000000  0.5292550000000  0.4720410000000 1.0
C      1  0.5356140000000  0.5454290000000  0.5198040000000 1.0
C      1  0.5167240000000  0.5256920000000  0.5127240000000 1.0
C      1  0.5147780000000  0.5218810000000  0.4884180000000 1.0
C      1  0.5075950000000  0.5910280000000  0.5361780000000 1.0
C      1  0.5086240000000  0.5900030000000  0.4609370000000 1.0
C      1  0.4632720000000  0.4735870000000  0.5299330000000 1.0
C      1  0.4715350000000  0.4874780000000  0.4553530000000 1.0
C      1  0.5281410000000  0.4311630000000  0.4859260000000 1.0
C      1  0.5269730000000  0.4332060000000  0.5150130000000 1.0
C      1  0.4866850000000  0.4277870000000  0.4381940000000 1.0
C      1  0.4881480000000  0.4271720000000  0.5614050000000 1.0
END
