TITL C-2441164-471-60 0.0901105997511167 125000 -22762.865512879 0 0 168 (C1) n - 1
REM
REM in /home/bkarasulu/work/CARBON/AIRSS/Generating-Clusters/ReaxFF-fromJPCA2015/Units_Real/with-SteepDescent/Higher-Symm
REM
REM
REM
REM
REM
REM ./C.cell (1df0a924f5614ab8850e4351716899ee)
REM
REM compiler GCC version 9.2.1 20190827 (Red Hat 9.2.1-1)
REM options -cpp -mtune=generic -march=x86-64 -g -O0 -fpre-include=/usr/include/finclude/math-vector-fortran.h
REM seed -252873438 1388906655 -141899751 -770469297 969219016 423904256 -2064451230 1859887556 -315617069 573643682 2130344162 -1843952620 -178762256 -195830597 -1491168984 -797658389 696251840 -2032264204 1845413600 1812637854 -668228332 -2039483070 -232981444 1419214988 902272147 -1961117789 1853908692 -164536233 388564337 -1727911433 -1680670996 -1523667587 -718972652
REM
CELL 1.54180   50.00000   50.00000   50.00000   90.00000   90.00000   90.00000
LATT -1
SFAC C  
C      1  0.5117770000000  0.5119240000000  0.4011930000000 1.0
C      1  0.5113640000000  0.4085690000000  0.5451280000000 1.0
C      1  0.5090920000000  0.5884230000000  0.5547960000000 1.0
C      1  0.4957990000000  0.4265550000000  0.5846160000000 1.0
C      1  0.4974590000000  0.6072750000000  0.5171970000000 1.0
C      1  0.4963410000000  0.4652050000000  0.3915510000000 1.0
C      1  0.4923590000000  0.5003030000000  0.5638520000000 1.0
C      1  0.4849730000000  0.5568400000000  0.4651150000000 1.0
C      1  0.4924210000000  0.4401430000000  0.4720090000000 1.0
C      1  0.5278100000000  0.5223350000000  0.4450750000000 1.0
C      1  0.5286440000000  0.4333910000000  0.5094190000000 1.0
C      1  0.5215000000000  0.5436290000000  0.5607070000000 1.0
C      1  0.4859760000000  0.4940380000000  0.5174790000000 1.0
C      1  0.4834160000000  0.5170300000000  0.4862040000000 1.0
C      1  0.4839460000000  0.4886640000000  0.4903060000000 1.0
C      1  0.4567690000000  0.4506810000000  0.5781800000000 1.0
C      1  0.4543620000000  0.5943060000000  0.5005140000000 1.0
C      1  0.4545300000000  0.4547200000000  0.4156610000000 1.0
C      1  0.5507370000000  0.5446410000000  0.4842440000000 1.0
C      1  0.5531530000000  0.4658620000000  0.4772240000000 1.0
C      1  0.5440660000000  0.4987580000000  0.5446290000000 1.0
C      1  0.4695380000000  0.4730670000000  0.3984250000000 1.0
C      1  0.4723330000000  0.4281840000000  0.5693000000000 1.0
C      1  0.4736290000000  0.5928950000000  0.5241510000000 1.0
C      1  0.4088950000000  0.4696990000000  0.4720160000000 1.0
C      1  0.4082500000000  0.4895280000000  0.5421180000000 1.0
C      1  0.4089040000000  0.5424860000000  0.4880130000000 1.0
C      1  0.4993390000000  0.4298110000000  0.4080410000000 1.0
C      1  0.5016250000000  0.4575920000000  0.6091730000000 1.0
C      1  0.5031050000000  0.6161460000000  0.4790160000000 1.0
C      1  0.4488030000000  0.5241500000000  0.5866950000000 1.0
C      1  0.4504140000000  0.5620090000000  0.4331260000000 1.0
C      1  0.4419650000000  0.4120460000000  0.4762840000000 1.0
C      1  0.5311690000000  0.4573030000000  0.5726140000000 1.0
C      1  0.5330500000000  0.5841050000000  0.4909080000000 1.0
C      1  0.5316340000000  0.4578470000000  0.4300500000000 1.0
C      1  0.4613490000000  0.5938160000000  0.4715890000000 1.0
C      1  0.4624740000000  0.4296360000000  0.4324020000000 1.0
C      1  0.4640040000000  0.4763520000000  0.5933160000000 1.0
C      1  0.5677380000000  0.4721990000000  0.4013090000000 1.0
C      1  0.5702010000000  0.4318050000000  0.5720390000000 1.0
C      1  0.5719360000000  0.5961680000000  0.5217070000000 1.0
C      1  0.5309360000000  0.5696550000000  0.5521900000000 1.0
C      1  0.5331420000000  0.5070200000000  0.4210770000000 1.0
C      1  0.5345370000000  0.4229790000000  0.5367770000000 1.0
C      1  0.4875580000000  0.4219800000000  0.4453690000000 1.0
C      1  0.4887950000000  0.4925200000000  0.5938680000000 1.0
C      1  0.4865090000000  0.5858100000000  0.4574450000000 1.0
C      1  0.4351040000000  0.5190520000000  0.4198700000000 1.0
C      1  0.4333430000000  0.4219900000000  0.5214800000000 1.0
C      1  0.4370060000000  0.5605380000000  0.5573460000000 1.0
C      1  0.4277120000000  0.5375310000000  0.5730910000000 1.0
C      1  0.4271430000000  0.5448910000000  0.4303690000000 1.0
C      1  0.4220110000000  0.4179540000000  0.4957210000000 1.0
C      1  0.4077340000000  0.4681320000000  0.5231480000000 1.0
C      1  0.4122720000000  0.5361520000000  0.5159500000000 1.0
C      1  0.4111250000000  0.4967540000000  0.4628760000000 1.0
C      1  0.4797020000000  0.5851620000000  0.5528680000000 1.0
C      1  0.4801640000000  0.5001670000000  0.4072940000000 1.0
C      1  0.4823930000000  0.4221430000000  0.5410550000000 1.0
C      1  0.3979290000000  0.5225240000000  0.4677170000000 1.0
C      1  0.3995610000000  0.4603130000000  0.4974400000000 1.0
C      1  0.3987800000000  0.5172200000000  0.5348530000000 1.0
C      1  0.5392510000000  0.4514600000000  0.5440570000000 1.0
C      1  0.5465490000000  0.5541360000000  0.5322350000000 1.0
C      1  0.5424800000000  0.4842660000000  0.4361800000000 1.0
C      1  0.5693300000000  0.4547680000000  0.4541970000000 1.0
C      1  0.5607050000000  0.4881720000000  0.5666640000000 1.0
C      1  0.5671570000000  0.5673000000000  0.4764480000000 1.0
C      1  0.5293010000000  0.5397290000000  0.5992980000000 1.0
C      1  0.5250270000000  0.5588240000000  0.4137630000000 1.0
C      1  0.5305270000000  0.3970300000000  0.4852020000000 1.0
C      1  0.4605770000000  0.5047820000000  0.5271260000000 1.0
C      1  0.4559880000000  0.5254370000000  0.4846110000000 1.0
C      1  0.4591520000000  0.4730170000000  0.4898660000000 1.0
C      1  0.5659910000000  0.5011320000000  0.5128470000000 1.0
C      1  0.5507520000000  0.5256330000000  0.5067010000000 1.0
C      1  0.5751940000000  0.4869370000000  0.4880310000000 1.0
C      1  0.5867780000000  0.4428760000000  0.5235160000000 1.0
C      1  0.5908280000000  0.5450080000000  0.5358800000000 1.0
C      1  0.5834310000000  0.5068990000000  0.4420530000000 1.0
C      1  0.5059130000000  0.4687810000000  0.4772550000000 1.0
C      1  0.5160330000000  0.4928750000000  0.5474270000000 1.0
C      1  0.5067470000000  0.5327100000000  0.4901350000000 1.0
C      1  0.4428960000000  0.5759170000000  0.4578420000000 1.0
C      1  0.4405230000000  0.4274440000000  0.4519590000000 1.0
C      1  0.4435060000000  0.4958490000000  0.5864860000000 1.0
C      1  0.4334620000000  0.4568240000000  0.5625910000000 1.0
C      1  0.4326080000000  0.5768010000000  0.5049500000000 1.0
C      1  0.4347010000000  0.4673970000000  0.4318460000000 1.0
C      1  0.4057780000000  0.4348930000000  0.4940030000000 1.0
C      1  0.4007010000000  0.5259170000000  0.5627780000000 1.0
C      1  0.4006320000000  0.5423180000000  0.4460810000000 1.0
C      1  0.5142640000000  0.4826130000000  0.6051420000000 1.0
C      1  0.5126900000000  0.6009870000000  0.4572340000000 1.0
C      1  0.5127710000000  0.4173320000000  0.4298440000000 1.0
C      1  0.4638000000000  0.4064130000000  0.4944810000000 1.0
C      1  0.4751370000000  0.5434490000000  0.5826660000000 1.0
C      1  0.4733900000000  0.5497170000000  0.4154320000000 1.0
C      1  0.4237860000000  0.4826960000000  0.5668670000000 1.0
C      1  0.4235620000000  0.5669430000000  0.4797650000000 1.0
C      1  0.4234070000000  0.4515880000000  0.4518870000000 1.0
C      1  0.5427580000000  0.4122030000000  0.4621780000000 1.0
C      1  0.5434820000000  0.5140000000000  0.5958640000000 1.0
C      1  0.5368930000000  0.5676450000000  0.4403860000000 1.0
C      1  0.5001980000000  0.4554850000000  0.4217280000000 1.0
C      1  0.5048390000000  0.4514880000000  0.5820960000000 1.0
C      1  0.5057770000000  0.5937580000000  0.4958800000000 1.0
C      1  0.5052160000000  0.5429700000000  0.5850590000000 1.0
C      1  0.5009200000000  0.5433520000000  0.4091380000000 1.0
C      1  0.5119720000000  0.4087660000000  0.5042360000000 1.0
C      1  0.4713570000000  0.4635830000000  0.5371220000000 1.0
C      1  0.4741610000000  0.5580830000000  0.5138800000000 1.0
C      1  0.4812570000000  0.4687860000000  0.4445060000000 1.0
C      1  0.5516740000000  0.4422080000000  0.4936620000000 1.0
C      1  0.5478400000000  0.5298080000000  0.5489510000000 1.0
C      1  0.5496210000000  0.5309410000000  0.4594040000000 1.0
C      1  0.5835730000000  0.5036940000000  0.5586660000000 1.0
C      1  0.5879680000000  0.5505950000000  0.4663930000000 1.0
C      1  0.5888360000000  0.4449140000000  0.4728500000000 1.0
C      1  0.5436970000000  0.4843980000000  0.5913860000000 1.0
C      1  0.5410220000000  0.5880540000000  0.4622230000000 1.0
C      1  0.5386610000000  0.4301300000000  0.4395230000000 1.0
C      1  0.5914990000000  0.4995960000000  0.5295330000000 1.0
C      1  0.5981470000000  0.5310170000000  0.4859690000000 1.0
C      1  0.5982990000000  0.4665040000000  0.4906050000000 1.0
C      1  0.4320650000000  0.5547430000000  0.5279340000000 1.0
C      1  0.4335080000000  0.4981870000000  0.4423450000000 1.0
C      1  0.4299740000000  0.4507820000000  0.5313090000000 1.0
C      1  0.4884570000000  0.4201830000000  0.4930460000000 1.0
C      1  0.4801130000000  0.5313730000000  0.5546510000000 1.0
C      1  0.4791120000000  0.5311520000000  0.4504530000000 1.0
C      1  0.4606460000000  0.5338660000000  0.5320100000000 1.0
C      1  0.4558250000000  0.5152570000000  0.4578380000000 1.0
C      1  0.4519780000000  0.4661030000000  0.5162870000000 1.0
C      1  0.5419550000000  0.4303720000000  0.5808820000000 1.0
C      1  0.5430680000000  0.5986630000000  0.5147570000000 1.0
C      1  0.5404000000000  0.4679020000000  0.3983810000000 1.0
C      1  0.5176880000000  0.4854150000000  0.3890080000000 1.0
C      1  0.5188100000000  0.4124810000000  0.5728520000000 1.0
C      1  0.5201390000000  0.6048640000000  0.5339240000000 1.0
C      1  0.4683700000000  0.4886870000000  0.5500150000000 1.0
C      1  0.4659550000000  0.5523910000000  0.4867920000000 1.0
C      1  0.4675910000000  0.4578240000000  0.4671290000000 1.0
C      1  0.5980930000000  0.4682150000000  0.5193820000000 1.0
C      1  0.5992670000000  0.5274280000000  0.5155540000000 1.0
C      1  0.5903840000000  0.5079970000000  0.4693110000000 1.0
C      1  0.5701920000000  0.4483010000000  0.5464860000000 1.0
C      1  0.5733020000000  0.5660650000000  0.5263390000000 1.0
C      1  0.5720930000000  0.4792340000000  0.4339140000000 1.0
C      1  0.5023970000000  0.5512470000000  0.5124540000000 1.0
C      1  0.4883690000000  0.4939510000000  0.4354560000000 1.0
C      1  0.4930940000000  0.4477310000000  0.5294110000000 1.0
C      1  0.5010650000000  0.5143250000000  0.4501020000000 1.0
C      1  0.5183170000000  0.4586060000000  0.5210050000000 1.0
C      1  0.5035670000000  0.5368880000000  0.5384060000000 1.0
C      1  0.5569470000000  0.5369730000000  0.5886970000000 1.0
C      1  0.5529870000000  0.5532220000000  0.4225740000000 1.0
C      1  0.5590270000000  0.4031140000000  0.4847880000000 1.0
C      1  0.4595390000000  0.4112750000000  0.5222330000000 1.0
C      1  0.4626570000000  0.5683410000000  0.5680040000000 1.0
C      1  0.4609410000000  0.5243600000000  0.4079940000000 1.0
C      1  0.5767070000000  0.4273530000000  0.4950080000000 1.0
C      1  0.5759760000000  0.5321180000000  0.5623970000000 1.0
C      1  0.5730860000000  0.5356180000000  0.4412780000000 1.0
C      1  0.5259870000000  0.5114700000000  0.4996970000000 1.0
C      1  0.5265550000000  0.4780480000000  0.4939700000000 1.0
C      1  0.5084960000000  0.5084020000000  0.5241470000000 1.0
END
