TITL C-2441166-8118-880 0.00472510086814573 125000 -13427.7577954024 0 0 93 (C1) n - 1
REM
REM in /home/bkarasulu/work/CARBON/AIRSS/Generating-Clusters/ReaxFF-fromJPCA2015/Units_Real/with-SteepDescent/Higher-Symm
REM
REM
REM
REM
REM
REM ./C.cell (1df0a924f5614ab8850e4351716899ee)
REM
REM compiler GCC version 9.2.1 20190827 (Red Hat 9.2.1-1)
REM options -cpp -mtune=generic -march=x86-64 -g -O0 -fpre-include=/usr/include/finclude/math-vector-fortran.h
REM seed -20633430 -422030218 -1092942214 -237660162 1312039049 706434971 513864329 -893875576 171702655 -379583475 1957888723 568295716 1236157174 688915720 1492904507 1247750565 -1635793232 1383429840 608062361 -1735842058 776494145 -622365123 1260684734 -1527370276 -1816963266 -2042513363 -815197000 -1883404939 1931053236 -628797420 -1274284739 1531305598 -1433945485
REM
CELL 1.54180   50.00000   50.00000   50.00000   90.00000   90.00000   90.00000
LATT -1
SFAC C  
C      1  0.4637330000000  0.5150220000000  0.5438110000000 1.0
C      1  0.4793290000000  0.4869900000000  0.5418750000000 1.0
C      1  0.4665960000000  0.4658810000000  0.5186280000000 1.0
C      1  0.4772830000000  0.4720000000000  0.4921180000000 1.0
C      1  0.4712130000000  0.4869640000000  0.4677600000000 1.0
C      1  0.4877900000000  0.5091530000000  0.4756420000000 1.0
C      1  0.4807680000000  0.5255760000000  0.5216460000000 1.0
C      1  0.5185750000000  0.4362340000000  0.4898220000000 1.0
C      1  0.5157280000000  0.4666200000000  0.4545940000000 1.0
C      1  0.5206350000000  0.5144500000000  0.4391780000000 1.0
C      1  0.5179550000000  0.5515080000000  0.4784380000000 1.0
C      1  0.5196410000000  0.5547890000000  0.5346610000000 1.0
C      1  0.5208530000000  0.5174440000000  0.5663780000000 1.0
C      1  0.5203150000000  0.4514360000000  0.5437150000000 1.0
C      1  0.5626830000000  0.4417330000000  0.4795350000000 1.0
C      1  0.5673290000000  0.4790300000000  0.4411570000000 1.0
C      1  0.5648270000000  0.5350560000000  0.4473630000000 1.0
C      1  0.5630600000000  0.5633270000000  0.4938600000000 1.0
C      1  0.5721390000000  0.5467410000000  0.5399010000000 1.0
C      1  0.5622890000000  0.4968440000000  0.5618350000000 1.0
C      1  0.5608170000000  0.4485030000000  0.5361890000000 1.0
C      1  0.5466360000000  0.5607640000000  0.5455690000000 1.0
C      1  0.5500220000000  0.5212830000000  0.5709920000000 1.0
C      1  0.5447220000000  0.4537770000000  0.5602010000000 1.0
C      1  0.5448130000000  0.4250740000000  0.4964980000000 1.0
C      1  0.5579210000000  0.4513800000000  0.4340410000000 1.0
C      1  0.5462390000000  0.5239760000000  0.4278590000000 1.0
C      1  0.5438610000000  0.5689740000000  0.4726360000000 1.0
C      1  0.4709600000000  0.5626230000000  0.4742920000000 1.0
C      1  0.4716320000000  0.5657180000000  0.5421000000000 1.0
C      1  0.4800500000000  0.5072070000000  0.5859570000000 1.0
C      1  0.4816800000000  0.4432860000000  0.5572370000000 1.0
C      1  0.4758410000000  0.4266860000000  0.4921600000000 1.0
C      1  0.4766930000000  0.4494870000000  0.4325710000000 1.0
C      1  0.4735570000000  0.5178690000000  0.4314270000000 1.0
C      1  0.5081400000000  0.4982710000000  0.5383870000000 1.0
C      1  0.5180530000000  0.4742220000000  0.5261530000000 1.0
C      1  0.5094640000000  0.4647960000000  0.4980290000000 1.0
C      1  0.5208450000000  0.4804310000000  0.4770840000000 1.0
C      1  0.5171240000000  0.5082580000000  0.4726360000000 1.0
C      1  0.5215350000000  0.5273110000000  0.4931740000000 1.0
C      1  0.5102930000000  0.5259100000000  0.5202140000000 1.0
C      1  0.5608090000000  0.5457140000000  0.5649580000000 1.0
C      1  0.5438260000000  0.4786020000000  0.5752400000000 1.0
C      1  0.5463640000000  0.4252600000000  0.5258110000000 1.0
C      1  0.5473330000000  0.4353430000000  0.4558850000000 1.0
C      1  0.5452720000000  0.4749040000000  0.4226680000000 1.0
C      1  0.5417820000000  0.5514330000000  0.4375460000000 1.0
C      1  0.5391650000000  0.5807500000000  0.4987980000000 1.0
C      1  0.4105200000000  0.5353570000000  0.4796150000000 1.0
C      1  0.4071950000000  0.5496570000000  0.5045510000000 1.0
C      1  0.4195630000000  0.5402610000000  0.5299610000000 1.0
C      1  0.4220630000000  0.4894120000000  0.5345630000000 1.0
C      1  0.4148440000000  0.4601380000000  0.5106260000000 1.0
C      1  0.4240020000000  0.4784050000000  0.4534100000000 1.0
C      1  0.4250240000000  0.5044230000000  0.4518050000000 1.0
C      1  0.4297060000000  0.5328030000000  0.4551650000000 1.0
C      1  0.4385020000000  0.5296120000000  0.4862820000000 1.0
C      1  0.4362720000000  0.5553170000000  0.5104290000000 1.0
C      1  0.4311810000000  0.5151410000000  0.5393630000000 1.0
C      1  0.4354010000000  0.4665020000000  0.5278770000000 1.0
C      1  0.4186200000000  0.4541450000000  0.4850660000000 1.0
C      1  0.4331610000000  0.4532210000000  0.4615050000000 1.0
C      1  0.4777480000000  0.4690040000000  0.5666440000000 1.0
C      1  0.4711890000000  0.4335140000000  0.5184530000000 1.0
C      1  0.4598070000000  0.4379630000000  0.4515470000000 1.0
C      1  0.4701290000000  0.4906920000000  0.4346230000000 1.0
C      1  0.4599780000000  0.5501150000000  0.4529610000000 1.0
C      1  0.4617280000000  0.5733700000000  0.5182300000000 1.0
C      1  0.4687260000000  0.5279750000000  0.5715600000000 1.0
C      1  0.4824890000000  0.5436190000000  0.4351040000000 1.0
C      1  0.4820780000000  0.5753340000000  0.4961900000000 1.0
C      1  0.4825490000000  0.5541680000000  0.5652750000000 1.0
C      1  0.4926910000000  0.4828850000000  0.5900560000000 1.0
C      1  0.4889450000000  0.4226230000000  0.5400790000000 1.0
C      1  0.4820170000000  0.4258680000000  0.4656190000000 1.0
C      1  0.4878510000000  0.4721170000000  0.4206370000000 1.0
C      1  0.5707070000000  0.4965280000000  0.5334210000000 1.0
C      1  0.5692720000000  0.4712880000000  0.5190040000000 1.0
C      1  0.5700080000000  0.4687170000000  0.4895790000000 1.0
C      1  0.5709930000000  0.4893440000000  0.4687260000000 1.0
C      1  0.5710810000000  0.5188930000000  0.4712180000000 1.0
C      1  0.5713830000000  0.5347730000000  0.4958290000000 1.0
C      1  0.5749310000000  0.5235320000000  0.5224840000000 1.0
C      1  0.5195240000000  0.4930290000000  0.5842860000000 1.0
C      1  0.5173220000000  0.4253270000000  0.5301310000000 1.0
C      1  0.5155930000000  0.4371120000000  0.4605870000000 1.0
C      1  0.5165090000000  0.4825750000000  0.4289360000000 1.0
C      1  0.5128390000000  0.5432410000000  0.4447460000000 1.0
C      1  0.5115830000000  0.5702410000000  0.5033610000000 1.0
C      1  0.5105310000000  0.5464220000000  0.5610970000000 1.0
C      1  0.4453650000000  0.4999300000000  0.4953900000000 1.0
C      1  0.4739220000000  0.5127730000000  0.4988020000000 1.0
END
