TITL C-2441169-1362-1480 0.0184084801543269 125000 -11478.6036485597 0 0 81 (C1) n - 1
REM
REM in /home/bkarasulu/work/CARBON/AIRSS/Generating-Clusters/ReaxFF-fromJPCA2015/Units_Real/with-SteepDescent/Higher-Symm
REM
REM
REM
REM
REM
REM ./C.cell (1df0a924f5614ab8850e4351716899ee)
REM
REM compiler GCC version 9.2.1 20190827 (Red Hat 9.2.1-1)
REM options -cpp -mtune=generic -march=x86-64 -g -O0 -fpre-include=/usr/include/finclude/math-vector-fortran.h
REM seed 1698534996 968532626 461970568 -702320750 1525608106 226705757 -818748570 -738060691 -1980103096 -1525850987 1804869228 592471012 1839908867 -2145789795 -814821827 -1923403522 -1991044467 542559722 -238164951 1755681493 -1892916995 -1186655059 -658983216 1046016229 160716635 1455017385 793729575 2070299856 -1530348123 1033621121 -2045518784 2096531100 996400653
REM
CELL 1.54180   50.00000   50.00000   50.00000   90.00000   90.00000   90.00000
LATT -1
SFAC C  
C      1  0.5148760000000  0.5500150000000  0.5490960000000 1.0
C      1  0.5142990000000  0.4689310000000  0.5642060000000 1.0
C      1  0.5131750000000  0.4292400000000  0.4892010000000 1.0
C      1  0.5136400000000  0.4900340000000  0.4316730000000 1.0
C      1  0.5018700000000  0.5605870000000  0.4636230000000 1.0
C      1  0.5458690000000  0.5648990000000  0.5247660000000 1.0
C      1  0.5452280000000  0.4963870000000  0.5670120000000 1.0
C      1  0.5448910000000  0.4329530000000  0.5167240000000 1.0
C      1  0.5462830000000  0.4655410000000  0.4431050000000 1.0
C      1  0.5463380000000  0.5459650000000  0.4452730000000 1.0
C      1  0.5365570000000  0.5092010000000  0.4810330000000 1.0
C      1  0.5234830000000  0.5233900000000  0.5025330000000 1.0
C      1  0.5288050000000  0.5033380000000  0.5230850000000 1.0
C      1  0.5195320000000  0.4777020000000  0.5126300000000 1.0
C      1  0.5240570000000  0.4836230000000  0.4843350000000 1.0
C      1  0.4408290000000  0.4553760000000  0.4750660000000 1.0
C      1  0.4434930000000  0.5100870000000  0.4525430000000 1.0
C      1  0.4370940000000  0.5485140000000  0.4914270000000 1.0
C      1  0.4469050000000  0.5222080000000  0.5467840000000 1.0
C      1  0.4468780000000  0.4602970000000  0.5426380000000 1.0
C      1  0.5593410000000  0.5094240000000  0.5253300000000 1.0
C      1  0.5684870000000  0.4693190000000  0.5167500000000 1.0
C      1  0.5700800000000  0.4786400000000  0.4766490000000 1.0
C      1  0.5629080000000  0.5176910000000  0.4708270000000 1.0
C      1  0.5674290000000  0.5318460000000  0.5147680000000 1.0
C      1  0.4552090000000  0.4648940000000  0.5190360000000 1.0
C      1  0.4617170000000  0.4733910000000  0.4654570000000 1.0
C      1  0.4610310000000  0.5008220000000  0.4715070000000 1.0
C      1  0.4566120000000  0.5436780000000  0.5117920000000 1.0
C      1  0.4580770000000  0.5167700000000  0.5221930000000 1.0
C      1  0.4613480000000  0.5585150000000  0.4490610000000 1.0
C      1  0.4584870000000  0.5613120000000  0.5345090000000 1.0
C      1  0.4642060000000  0.4842720000000  0.5781220000000 1.0
C      1  0.4554770000000  0.4353380000000  0.5115310000000 1.0
C      1  0.4594250000000  0.4698700000000  0.4348460000000 1.0
C      1  0.4871430000000  0.5048390000000  0.5225140000000 1.0
C      1  0.4893940000000  0.4780350000000  0.5111370000000 1.0
C      1  0.4953140000000  0.4838300000000  0.4807300000000 1.0
C      1  0.4855040000000  0.5114920000000  0.4768010000000 1.0
C      1  0.4948420000000  0.5234540000000  0.5018520000000 1.0
C      1  0.4958690000000  0.4292930000000  0.5398840000000 1.0
C      1  0.4961340000000  0.4409370000000  0.4454130000000 1.0
C      1  0.4970820000000  0.5346750000000  0.4237800000000 1.0
C      1  0.4949540000000  0.5813310000000  0.5104060000000 1.0
C      1  0.4978890000000  0.5154320000000  0.5796430000000 1.0
C      1  0.5166410000000  0.5698220000000  0.5271230000000 1.0
C      1  0.5171860000000  0.4956410000000  0.5746530000000 1.0
C      1  0.5168530000000  0.4250680000000  0.5186770000000 1.0
C      1  0.5167260000000  0.4632120000000  0.4427750000000 1.0
C      1  0.5165100000000  0.5494730000000  0.4430900000000 1.0
C      1  0.4850250000000  0.5703940000000  0.4822000000000 1.0
C      1  0.4930060000000  0.5375860000000  0.5624090000000 1.0
C      1  0.4918910000000  0.4533850000000  0.5561460000000 1.0
C      1  0.4888460000000  0.4328490000000  0.4732360000000 1.0
C      1  0.4898270000000  0.5066890000000  0.4271100000000 1.0
C      1  0.4711200000000  0.4166590000000  0.5295110000000 1.0
C      1  0.4750970000000  0.4477640000000  0.4277290000000 1.0
C      1  0.4740980000000  0.5484670000000  0.4307270000000 1.0
C      1  0.4726140000000  0.5880980000000  0.5279200000000 1.0
C      1  0.4728520000000  0.5033180000000  0.5873160000000 1.0
C      1  0.5602630000000  0.5476050000000  0.4711270000000 1.0
C      1  0.5439680000000  0.5452930000000  0.5478700000000 1.0
C      1  0.5428340000000  0.4683100000000  0.5576770000000 1.0
C      1  0.5423210000000  0.4363130000000  0.4874590000000 1.0
C      1  0.5434360000000  0.4937370000000  0.4323440000000 1.0
C      1  0.5575660000000  0.4546890000000  0.4685640000000 1.0
C      1  0.5566490000000  0.5181860000000  0.4415030000000 1.0
C      1  0.5596950000000  0.5538260000000  0.5003800000000 1.0
C      1  0.5573830000000  0.5188470000000  0.5522910000000 1.0
C      1  0.5566770000000  0.4535020000000  0.5358830000000 1.0
C      1  0.4645460000000  0.4614210000000  0.5611870000000 1.0
C      1  0.4608970000000  0.4349070000000  0.4826820000000 1.0
C      1  0.4617550000000  0.4992020000000  0.4320020000000 1.0
C      1  0.4557830000000  0.5650450000000  0.4751250000000 1.0
C      1  0.4644280000000  0.5422790000000  0.5561100000000 1.0
C      1  0.4235850000000  0.5226920000000  0.4938830000000 1.0
C      1  0.4282830000000  0.5092940000000  0.5202520000000 1.0
C      1  0.4298110000000  0.4804390000000  0.5145400000000 1.0
C      1  0.4244030000000  0.4768710000000  0.4864020000000 1.0
C      1  0.4220510000000  0.5031450000000  0.4723270000000 1.0
C      1  0.5763170000000  0.4899540000000  0.5019700000000 1.0
END
