TITL C-2441158-471-607 0.0981542788218023 125000 -5815.87419740424 0 0 63 (C1) n - 1
REM
REM in /home/bkarasulu/work/CARBON/AIRSS/Generating-Clusters/ReaxFF-fromJPCA2015/Units_Real/with-SteepDescent/Higher-Symm
REM
REM
REM
REM
REM
REM ./C.cell (1df0a924f5614ab8850e4351716899ee)
REM
REM compiler GCC version 9.2.1 20190827 (Red Hat 9.2.1-1)
REM options -cpp -mtune=generic -march=x86-64 -g -O0 -fpre-include=/usr/include/finclude/math-vector-fortran.h
REM seed -1264289750 1278594343 57172561 -117547421 810333431 1802947444 -871292341 331906685 1511026432 1897489225 965589065 1659987699 1568319628 2009812001 1730034398 105988114 136763307 -1228643204 -1009100586 836152844 1269026563 6541719 -390472200 -523251449 288236693 469424530 -1393159051 -1510334608 -213088043 -244477096 901679326 1400062617 645980547
REM
CELL 1.54180   50.00000   50.00000   50.00000   90.00000   90.00000   90.00000
LATT -1
SFAC C  
C      1  0.4653680000000  0.5638560000000  0.4873000000000 1.0
C      1  0.4276950000000  0.4892010000000  0.4913200000000 1.0
C      1  0.4906050000000  0.4280250000000  0.4891830000000 1.0
C      1  0.5660440000000  0.4699430000000  0.4876180000000 1.0
C      1  0.5504480000000  0.5532280000000  0.4871920000000 1.0
C      1  0.5327650000000  0.5622130000000  0.5096740000000 1.0
C      1  0.5704870000000  0.4907390000000  0.5087060000000 1.0
C      1  0.5118170000000  0.4279790000000  0.5080800000000 1.0
C      1  0.4324120000000  0.4691640000000  0.5114280000000 1.0
C      1  0.4508070000000  0.5511550000000  0.5110030000000 1.0
C      1  0.5312200000000  0.5194200000000  0.5502690000000 1.0
C      1  0.4910610000000  0.5412100000000  0.5466210000000 1.0
C      1  0.4588680000000  0.5074670000000  0.5479190000000 1.0
C      1  0.4835210000000  0.4635300000000  0.5482310000000 1.0
C      1  0.5294600000000  0.4755300000000  0.5495360000000 1.0
C      1  0.4669030000000  0.5216540000000  0.4529040000000 1.0
C      1  0.5084160000000  0.5380860000000  0.4479650000000 1.0
C      1  0.5364100000000  0.5013930000000  0.4476510000000 1.0
C      1  0.5200630000000  0.4618870000000  0.4508210000000 1.0
C      1  0.4707570000000  0.4749620000000  0.4482990000000 1.0
C      1  0.4444380000000  0.5239720000000  0.5115280000000 1.0
C      1  0.4590830000000  0.4564650000000  0.5116760000000 1.0
C      1  0.5298290000000  0.4507700000000  0.5145600000000 1.0
C      1  0.5582220000000  0.5163310000000  0.5146470000000 1.0
C      1  0.5035440000000  0.5578960000000  0.5106950000000 1.0
C      1  0.5537930000000  0.5223430000000  0.4873360000000 1.0
C      1  0.5399250000000  0.4548680000000  0.4874800000000 1.0
C      1  0.4703450000000  0.4500530000000  0.4861210000000 1.0
C      1  0.4441120000000  0.5129850000000  0.4853900000000 1.0
C      1  0.4937010000000  0.5563890000000  0.4844250000000 1.0
C      1  0.5301750000000  0.4838990000000  0.4828140000000 1.0
C      1  0.5240790000000  0.5248020000000  0.4793030000000 1.0
C      1  0.4812270000000  0.5301250000000  0.4753700000000 1.0
C      1  0.4648570000000  0.4926670000000  0.4821470000000 1.0
C      1  0.4940120000000  0.4661230000000  0.4794600000000 1.0
C      1  0.4680610000000  0.4861730000000  0.5157670000000 1.0
C      1  0.4858660000000  0.5337680000000  0.5204560000000 1.0
C      1  0.5314130000000  0.5241930000000  0.5227700000000 1.0
C      1  0.5319140000000  0.4871260000000  0.5124310000000 1.0
C      1  0.5011560000000  0.4642670000000  0.5194470000000 1.0
C      1  0.4448340000000  0.4859830000000  0.5358960000000 1.0
C      1  0.4955260000000  0.4409300000000  0.5340040000000 1.0
C      1  0.5525840000000  0.4800610000000  0.5323290000000 1.0
C      1  0.5346060000000  0.5499570000000  0.5355300000000 1.0
C      1  0.4645200000000  0.5471960000000  0.5364530000000 1.0
C      1  0.5546690000000  0.4849380000000  0.4636590000000 1.0
C      1  0.5043360000000  0.4426860000000  0.4639430000000 1.0
C      1  0.4473990000000  0.4783880000000  0.4647710000000 1.0
C      1  0.4598190000000  0.5480630000000  0.4629560000000 1.0
C      1  0.5312480000000  0.5488150000000  0.4643870000000 1.0
C      1  0.4739840000000  0.4985320000000  0.4291000000000 1.0
C      1  0.4906290000000  0.4759180000000  0.4277480000000 1.0
C      1  0.5212180000000  0.4817190000000  0.4307240000000 1.0
C      1  0.5214920000000  0.5201960000000  0.4307930000000 1.0
C      1  0.4919080000000  0.5240650000000  0.4279720000000 1.0
C      1  0.5270940000000  0.4972560000000  0.5675880000000 1.0
C      1  0.5087980000000  0.4727750000000  0.5701980000000 1.0
C      1  0.4811280000000  0.4814130000000  0.5712690000000 1.0
C      1  0.4773490000000  0.5101600000000  0.5695360000000 1.0
C      1  0.5028810000000  0.5256800000000  0.5673480000000 1.0
C      1  0.4982910000000  0.4962780000000  0.4727920000000 1.0
C      1  0.4976660000000  0.5003730000000  0.5239580000000 1.0
C      1  0.4989920000000  0.5011610000000  0.4978610000000 1.0
END
