TITL C-2441168-9922-1376 0.00966422108847609 125000 -9713.33819116384 0 0 69 (C1) n - 1
REM
REM in /home/bkarasulu/work/CARBON/AIRSS/Generating-Clusters/ReaxFF-fromJPCA2015/Units_Real/with-SteepDescent/Higher-Symm
REM
REM
REM
REM
REM
REM ./C.cell (1df0a924f5614ab8850e4351716899ee)
REM
REM compiler GCC version 9.2.1 20190827 (Red Hat 9.2.1-1)
REM options -cpp -mtune=generic -march=x86-64 -g -O0 -fpre-include=/usr/include/finclude/math-vector-fortran.h
REM seed 1071603355 -1036387103 -1355004349 -929471629 1732177549 2013155009 -1976233120 -818655200 711674017 -831825091 -618637657 1561062537 254820342 640994821 2060088951 -327251171 2106676966 -1456571354 -224526915 2094685683 -1562281329 -1526305428 -340697651 -594856696 -604215676 377722381 785968804 -461232860 -2122088930 -800489972 -206769591 -723208212 1820952732
REM
CELL 1.54180   50.00000   50.00000   50.00000   90.00000   90.00000   90.00000
LATT -1
SFAC C  
C      1  0.4762260000000  0.5168300000000  0.4809150000000 1.0
C      1  0.4691750000000  0.5210560000000  0.5082170000000 1.0
C      1  0.4942060000000  0.5617880000000  0.4859260000000 1.0
C      1  0.4959030000000  0.5574670000000  0.5143300000000 1.0
C      1  0.4521440000000  0.5175700000000  0.4389860000000 1.0
C      1  0.4481140000000  0.5203590000000  0.5588080000000 1.0
C      1  0.4595590000000  0.4678450000000  0.5524660000000 1.0
C      1  0.4516520000000  0.4657040000000  0.4471830000000 1.0
C      1  0.5245400000000  0.5652820000000  0.5147550000000 1.0
C      1  0.5234890000000  0.5682080000000  0.4851150000000 1.0
C      1  0.4875840000000  0.4516540000000  0.4842790000000 1.0
C      1  0.4869390000000  0.4498090000000  0.5144500000000 1.0
C      1  0.5686190000000  0.5458530000000  0.4861760000000 1.0
C      1  0.5696250000000  0.5462170000000  0.5158030000000 1.0
C      1  0.4226830000000  0.4737550000000  0.4933460000000 1.0
C      1  0.4207230000000  0.4777600000000  0.5161670000000 1.0
C      1  0.4607190000000  0.4937430000000  0.5658620000000 1.0
C      1  0.4628420000000  0.4903210000000  0.4335830000000 1.0
C      1  0.5506770000000  0.4899710000000  0.5560000000000 1.0
C      1  0.5522000000000  0.4929070000000  0.4453510000000 1.0
C      1  0.5337890000000  0.5344830000000  0.5516670000000 1.0
C      1  0.5286780000000  0.5358290000000  0.4527770000000 1.0
C      1  0.4761540000000  0.5416370000000  0.5270250000000 1.0
C      1  0.4674850000000  0.5585770000000  0.4714960000000 1.0
C      1  0.4504160000000  0.5122920000000  0.4684120000000 1.0
C      1  0.4413560000000  0.5211790000000  0.5133130000000 1.0
C      1  0.5338580000000  0.5136320000000  0.4340700000000 1.0
C      1  0.5380090000000  0.5115070000000  0.5718840000000 1.0
C      1  0.5549420000000  0.4668990000000  0.4791090000000 1.0
C      1  0.5521620000000  0.4660110000000  0.5218720000000 1.0
C      1  0.5448860000000  0.5520300000000  0.5309980000000 1.0
C      1  0.5438280000000  0.5527710000000  0.4707440000000 1.0
C      1  0.4858840000000  0.4567560000000  0.5539030000000 1.0
C      1  0.4756410000000  0.4519170000000  0.4443620000000 1.0
C      1  0.5078080000000  0.5143160000000  0.5769200000000 1.0
C      1  0.5050880000000  0.5091480000000  0.4309760000000 1.0
C      1  0.5220830000000  0.4488000000000  0.4558770000000 1.0
C      1  0.5185820000000  0.4461630000000  0.5383450000000 1.0
C      1  0.4301570000000  0.5280960000000  0.5363970000000 1.0
C      1  0.4328800000000  0.5349730000000  0.4701080000000 1.0
C      1  0.4646870000000  0.5451230000000  0.4453210000000 1.0
C      1  0.4678120000000  0.5425690000000  0.5560980000000 1.0
C      1  0.5586530000000  0.5070280000000  0.4699990000000 1.0
C      1  0.5594770000000  0.5057650000000  0.5329920000000 1.0
C      1  0.5423710000000  0.4606150000000  0.5481460000000 1.0
C      1  0.5467390000000  0.4640890000000  0.4514950000000 1.0
C      1  0.5138790000000  0.4373720000000  0.4819980000000 1.0
C      1  0.5145780000000  0.4353780000000  0.5117090000000 1.0
C      1  0.4566670000000  0.4430060000000  0.5124070000000 1.0
C      1  0.4555860000000  0.4430070000000  0.4840960000000 1.0
C      1  0.5384970000000  0.4961920000000  0.4870540000000 1.0
C      1  0.5386220000000  0.4930910000000  0.5168000000000 1.0
C      1  0.5027780000000  0.5198230000000  0.4603300000000 1.0
C      1  0.5068340000000  0.5224680000000  0.5484710000000 1.0
C      1  0.4934400000000  0.4804680000000  0.4889040000000 1.0
C      1  0.4911160000000  0.4807420000000  0.5164820000000 1.0
C      1  0.4351260000000  0.4594370000000  0.4722400000000 1.0
C      1  0.4402450000000  0.4610630000000  0.5287090000000 1.0
C      1  0.4323130000000  0.5477110000000  0.5148210000000 1.0
C      1  0.4397920000000  0.5555780000000  0.4875430000000 1.0
C      1  0.5794550000000  0.5184720000000  0.5161900000000 1.0
C      1  0.5797280000000  0.5186910000000  0.4858030000000 1.0
C      1  0.4904930000000  0.4849760000000  0.4251000000000 1.0
C      1  0.4877770000000  0.4922060000000  0.5778520000000 1.0
C      1  0.5051870000000  0.4756300000000  0.5607440000000 1.0
C      1  0.5011440000000  0.4577450000000  0.4362090000000 1.0
C      1  0.5093640000000  0.4950180000000  0.5344390000000 1.0
C      1  0.5120490000000  0.4979410000000  0.4764470000000 1.0
C      1  0.5684390000000  0.4513610000000  0.5003900000000 1.0
END
