TITL C-2441159-1093-1077 0.0129085840140092 125000 -9822.93657132194 0 0 68 (C1) n - 1
REM
REM in /home/bkarasulu/work/CARBON/AIRSS/Generating-Clusters/ReaxFF-fromJPCA2015/Units_Real/with-SteepDescent/Higher-Symm
REM
REM
REM
REM
REM
REM ./C.cell (1df0a924f5614ab8850e4351716899ee)
REM
REM compiler GCC version 9.2.1 20190827 (Red Hat 9.2.1-1)
REM options -cpp -mtune=generic -march=x86-64 -g -O0 -fpre-include=/usr/include/finclude/math-vector-fortran.h
REM seed 1124328052 940932187 940056231 890014240 -178773848 1600620076 570078322 558858846 1457601379 112455374 1936100487 79446734 1016967017 1071141939 256092790 -335141948 -131342961 -27806566 1370809153 164819716 -2042131931 -949572854 -955451599 -1077342723 -769679837 -981502722 1191895505 385973733 -839919436 1809799496 1854793332 -2009778484 1884229019
REM
CELL 1.54180   50.00000   50.00000   50.00000   90.00000   90.00000   90.00000
LATT -1
SFAC C  
C      1  0.4271920000000  0.5006620000000  0.5201050000000 1.0
C      1  0.5653480000000  0.5017360000000  0.4799950000000 1.0
C      1  0.5274350000000  0.5309120000000  0.4426360000000 1.0
C      1  0.4710230000000  0.4651980000000  0.5569910000000 1.0
C      1  0.4967750000000  0.5105590000000  0.5138080000000 1.0
C      1  0.4966440000000  0.4974180000000  0.4885180000000 1.0
C      1  0.5096460000000  0.4794070000000  0.4362150000000 1.0
C      1  0.4895790000000  0.5203080000000  0.5645530000000 1.0
C      1  0.5266560000000  0.4866010000000  0.5539830000000 1.0
C      1  0.4746280000000  0.5149010000000  0.4455760000000 1.0
C      1  0.5196310000000  0.4817880000000  0.4953940000000 1.0
C      1  0.4699480000000  0.5190030000000  0.5094840000000 1.0
C      1  0.4544100000000  0.5027240000000  0.5313590000000 1.0
C      1  0.5386410000000  0.4919510000000  0.4750460000000 1.0
C      1  0.5790530000000  0.4599990000000  0.5064430000000 1.0
C      1  0.4209670000000  0.5405710000000  0.4908670000000 1.0
C      1  0.4159610000000  0.5255740000000  0.5149250000000 1.0
C      1  0.5809420000000  0.4766340000000  0.4830440000000 1.0
C      1  0.5729870000000  0.4499710000000  0.4812360000000 1.0
C      1  0.4300280000000  0.5485130000000  0.5162020000000 1.0
C      1  0.4899460000000  0.4454560000000  0.4677090000000 1.0
C      1  0.5107670000000  0.5564030000000  0.5339980000000 1.0
C      1  0.5467810000000  0.4392930000000  0.4758480000000 1.0
C      1  0.4593050000000  0.5486450000000  0.5186020000000 1.0
C      1  0.4423080000000  0.5400700000000  0.4706210000000 1.0
C      1  0.5597130000000  0.4598420000000  0.5286820000000 1.0
C      1  0.5044530000000  0.4512910000000  0.4947960000000 1.0
C      1  0.5058850000000  0.5613620000000  0.5056630000000 1.0
C      1  0.5350160000000  0.5532190000000  0.4978570000000 1.0
C      1  0.4783640000000  0.4490990000000  0.5109950000000 1.0
C      1  0.5702580000000  0.5165310000000  0.5060520000000 1.0
C      1  0.4248180000000  0.4851850000000  0.4949840000000 1.0
C      1  0.4407470000000  0.4620520000000  0.4635480000000 1.0
C      1  0.5603780000000  0.5346590000000  0.5421840000000 1.0
C      1  0.4842300000000  0.5396630000000  0.4294670000000 1.0
C      1  0.5163260000000  0.4599960000000  0.5674550000000 1.0
C      1  0.4502840000000  0.4536390000000  0.5153690000000 1.0
C      1  0.5484390000000  0.5481720000000  0.4732730000000 1.0
C      1  0.5062280000000  0.4997490000000  0.5725220000000 1.0
C      1  0.4934100000000  0.4995800000000  0.4263460000000 1.0
C      1  0.4644980000000  0.5476170000000  0.5472930000000 1.0
C      1  0.5337840000000  0.4507170000000  0.4523320000000 1.0
C      1  0.4781460000000  0.5638490000000  0.4979670000000 1.0
C      1  0.5297430000000  0.4351320000000  0.4986630000000 1.0
C      1  0.4453940000000  0.5154620000000  0.4567690000000 1.0
C      1  0.5556330000000  0.4836830000000  0.5437750000000 1.0
C      1  0.4674680000000  0.4567080000000  0.4589640000000 1.0
C      1  0.5310200000000  0.5373590000000  0.5457660000000 1.0
C      1  0.4918270000000  0.4743860000000  0.5753140000000 1.0
C      1  0.5078100000000  0.5243450000000  0.4217050000000 1.0
C      1  0.5588590000000  0.5423440000000  0.5130490000000 1.0
C      1  0.4319770000000  0.4574140000000  0.4924390000000 1.0
C      1  0.4626340000000  0.5199220000000  0.5554100000000 1.0
C      1  0.5354200000000  0.4796470000000  0.4486850000000 1.0
C      1  0.4874590000000  0.5571090000000  0.4525350000000 1.0
C      1  0.5153980000000  0.4425780000000  0.5446820000000 1.0
C      1  0.4923120000000  0.5482690000000  0.5561290000000 1.0
C      1  0.5050560000000  0.4521170000000  0.4432820000000 1.0
C      1  0.5377210000000  0.4396940000000  0.5262810000000 1.0
C      1  0.4659200000000  0.5592960000000  0.4723950000000 1.0
C      1  0.5529460000000  0.5252880000000  0.4567280000000 1.0
C      1  0.4497550000000  0.4717900000000  0.5391060000000 1.0
C      1  0.5694810000000  0.5071260000000  0.5338070000000 1.0
C      1  0.4334370000000  0.4915190000000  0.4674710000000 1.0
C      1  0.5086250000000  0.5403610000000  0.4645780000000 1.0
C      1  0.4919180000000  0.4599990000000  0.5343240000000 1.0
C      1  0.4891480000000  0.5201510000000  0.4730490000000 1.0
C      1  0.5114590000000  0.4877820000000  0.5251480000000 1.0
END
