TITL C-2441158-471-1185 0.0532623155766753 125000 -11609.166444322 0 0 88 (C1) n - 1
REM
REM in /home/bkarasulu/work/CARBON/AIRSS/Generating-Clusters/ReaxFF-fromJPCA2015/Units_Real/with-SteepDescent/Higher-Symm
REM
REM
REM
REM
REM
REM ./C.cell (1df0a924f5614ab8850e4351716899ee)
REM
REM compiler GCC version 9.2.1 20190827 (Red Hat 9.2.1-1)
REM options -cpp -mtune=generic -march=x86-64 -g -O0 -fpre-include=/usr/include/finclude/math-vector-fortran.h
REM seed -1792862460 -277259600 -1252977719 2115887157 1854447391 1795530464 1270559888 -1912104752 -779847937 -825363837 1004382107 33369672 1698668451 -1135690749 1172706608 -1687117032 -851028479 -1516419705 645109781 1155992528 1235721656 -1399065347 1024434526 30634690 -2089416545 -983350329 1961427623 -1348729495 -982615482 -1636471670 -2056641174 -1965131345 764720261
REM
CELL 1.54180   50.00000   50.00000   50.00000   90.00000   90.00000   90.00000
LATT -1
SFAC C  
C      1  0.4376200000000  0.5334210000000  0.4654750000000 1.0
C      1  0.5605170000000  0.4642320000000  0.4664800000000 1.0
C      1  0.4374390000000  0.5331880000000  0.5343400000000 1.0
C      1  0.5580190000000  0.4579220000000  0.5330820000000 1.0
C      1  0.5013380000000  0.4183860000000  0.4706320000000 1.0
C      1  0.4985810000000  0.5821900000000  0.4706690000000 1.0
C      1  0.5014470000000  0.4177420000000  0.5285520000000 1.0
C      1  0.4989910000000  0.5821830000000  0.5289500000000 1.0
C      1  0.5480810000000  0.4794980000000  0.4875800000000 1.0
C      1  0.4529830000000  0.5210540000000  0.4868630000000 1.0
C      1  0.5525510000000  0.4819190000000  0.5175100000000 1.0
C      1  0.4525190000000  0.5204330000000  0.5130700000000 1.0
C      1  0.4724250000000  0.5839060000000  0.4850670000000 1.0
C      1  0.5279110000000  0.4176320000000  0.4848890000000 1.0
C      1  0.4724450000000  0.5836830000000  0.5150670000000 1.0
C      1  0.5274810000000  0.4163850000000  0.5142110000000 1.0
C      1  0.4254510000000  0.5046120000000  0.5370290000000 1.0
C      1  0.5730040000000  0.4972420000000  0.5329090000000 1.0
C      1  0.4260900000000  0.5048500000000  0.4630990000000 1.0
C      1  0.5750240000000  0.4954330000000  0.4629970000000 1.0
C      1  0.4925260000000  0.5164130000000  0.4858080000000 1.0
C      1  0.5086730000000  0.4836170000000  0.4859710000000 1.0
C      1  0.4918910000000  0.5173310000000  0.5148380000000 1.0
C      1  0.5095980000000  0.4823820000000  0.5150480000000 1.0
C      1  0.4634630000000  0.5445490000000  0.5477890000000 1.0
C      1  0.5333920000000  0.4527160000000  0.5482460000000 1.0
C      1  0.4637300000000  0.5439910000000  0.4524450000000 1.0
C      1  0.5344200000000  0.4556880000000  0.4512960000000 1.0
C      1  0.4972310000000  0.4433950000000  0.4855800000000 1.0
C      1  0.5025450000000  0.5572900000000  0.4858920000000 1.0
C      1  0.4975390000000  0.4427390000000  0.5135690000000 1.0
C      1  0.5024000000000  0.5572230000000  0.5140960000000 1.0
C      1  0.4471150000000  0.4558090000000  0.5147890000000 1.0
C      1  0.5535990000000  0.5430730000000  0.5143320000000 1.0
C      1  0.4477730000000  0.4548490000000  0.4851600000000 1.0
C      1  0.5512210000000  0.5467600000000  0.4848100000000 1.0
C      1  0.5583660000000  0.5145140000000  0.4484390000000 1.0
C      1  0.4425760000000  0.4867040000000  0.4477360000000 1.0
C      1  0.5570810000000  0.5126570000000  0.5520450000000 1.0
C      1  0.4420890000000  0.4868120000000  0.5526150000000 1.0
C      1  0.4258580000000  0.4871600000000  0.5141080000000 1.0
C      1  0.5749700000000  0.5184880000000  0.5125610000000 1.0
C      1  0.4257980000000  0.4879200000000  0.4857460000000 1.0
C      1  0.5754910000000  0.5110420000000  0.4857340000000 1.0
C      1  0.4733550000000  0.4219550000000  0.5370110000000 1.0
C      1  0.5272210000000  0.5785440000000  0.5369330000000 1.0
C      1  0.4729750000000  0.4209670000000  0.4635240000000 1.0
C      1  0.5266090000000  0.5792920000000  0.4629480000000 1.0
C      1  0.4591610000000  0.4659350000000  0.5394730000000 1.0
C      1  0.5400420000000  0.5334370000000  0.5391060000000 1.0
C      1  0.4562000000000  0.4632520000000  0.4587000000000 1.0
C      1  0.5435010000000  0.5374330000000  0.4596660000000 1.0
C      1  0.4799610000000  0.5359830000000  0.4304620000000 1.0
C      1  0.5175580000000  0.4598240000000  0.4296820000000 1.0
C      1  0.4793920000000  0.5364380000000  0.5699730000000 1.0
C      1  0.5216270000000  0.4659890000000  0.5703000000000 1.0
C      1  0.4713850000000  0.4439290000000  0.4446760000000 1.0
C      1  0.5273720000000  0.5558160000000  0.4448300000000 1.0
C      1  0.4737790000000  0.4457700000000  0.5545510000000 1.0
C      1  0.5271760000000  0.5544970000000  0.5541870000000 1.0
C      1  0.4510960000000  0.5634070000000  0.4858060000000 1.0
C      1  0.5503120000000  0.4373340000000  0.4859500000000 1.0
C      1  0.4510390000000  0.5631340000000  0.5139600000000 1.0
C      1  0.5519520000000  0.4354210000000  0.5143080000000 1.0
C      1  0.5312610000000  0.4957790000000  0.5584610000000 1.0
C      1  0.4670920000000  0.5031990000000  0.5565610000000 1.0
C      1  0.5332140000000  0.4996920000000  0.4456780000000 1.0
C      1  0.4681080000000  0.5027330000000  0.4440190000000 1.0
C      1  0.5080550000000  0.5395540000000  0.4282980000000 1.0
C      1  0.4901010000000  0.4594080000000  0.4264390000000 1.0
C      1  0.5078420000000  0.5392270000000  0.5714780000000 1.0
C      1  0.4929740000000  0.4619360000000  0.5709260000000 1.0
C      1  0.5117470000000  0.4591720000000  0.5287840000000 1.0
C      1  0.4872420000000  0.5405170000000  0.5285560000000 1.0
C      1  0.5114550000000  0.4607490000000  0.4706940000000 1.0
C      1  0.4882590000000  0.5396560000000  0.4707860000000 1.0
C      1  0.5308220000000  0.4964710000000  0.4744600000000 1.0
C      1  0.4706110000000  0.5036220000000  0.4737780000000 1.0
C      1  0.5287620000000  0.4965990000000  0.5285010000000 1.0
C      1  0.4706130000000  0.5023570000000  0.5263890000000 1.0
C      1  0.5103550000000  0.5098840000000  0.5721070000000 1.0
C      1  0.4887180000000  0.4909290000000  0.5722830000000 1.0
C      1  0.5117430000000  0.5094610000000  0.4282640000000 1.0
C      1  0.4898140000000  0.4895000000000  0.4281490000000 1.0
C      1  0.4543270000000  0.4275590000000  0.5148100000000 1.0
C      1  0.5464760000000  0.5734540000000  0.5151930000000 1.0
C      1  0.4545500000000  0.4271930000000  0.4860400000000 1.0
C      1  0.5448870000000  0.5739600000000  0.4861780000000 1.0
END
