TITL C-2441154-10-174 0.0224775896633951 125000 -12484.3850506225 0 0 85 (C1) n - 1
REM
REM in /home/bkarasulu/work/CARBON/AIRSS/Generating-Clusters/ReaxFF-fromJPCA2015/Units_Real/with-SteepDescent/Higher-Symm
REM
REM
REM
REM
REM
REM ./C.cell (1df0a924f5614ab8850e4351716899ee)
REM
REM compiler GCC version 9.2.1 20190827 (Red Hat 9.2.1-1)
REM options -cpp -mtune=generic -march=x86-64 -g -O0 -fpre-include=/usr/include/finclude/math-vector-fortran.h
REM seed 2090045126 -471520168 563264515 1413030403 461491811 1849399455 -1570799082 -1726104240 1937966130 -1356985410 361047405 1322997299 456655108 1873527344 1597394980 -678868919 -481622139 1372823659 -1474605971 -975428688 1645034190 -189269653 -1508255450 -1799235262 843333190 -71862506 310026442 -1242420952 -73887648 -1631471604 701361082 494453355 1324037939
REM
CELL 1.54180   50.00000   50.00000   50.00000   90.00000   90.00000   90.00000
LATT -1
SFAC C  
C      1  0.4812700000000  0.5168510000000  0.4803310000000 1.0
C      1  0.4835680000000  0.5250650000000  0.5096320000000 1.0
C      1  0.4804140000000  0.5000100000000  0.5257470000000 1.0
C      1  0.4818660000000  0.4761290000000  0.5074990000000 1.0
C      1  0.4822330000000  0.4868270000000  0.4783570000000 1.0
C      1  0.5158290000000  0.5150880000000  0.4793540000000 1.0
C      1  0.5151520000000  0.5234390000000  0.5086030000000 1.0
C      1  0.5167910000000  0.4978280000000  0.5255080000000 1.0
C      1  0.5131960000000  0.4740930000000  0.5073250000000 1.0
C      1  0.5137660000000  0.4853850000000  0.4779970000000 1.0
C      1  0.5390130000000  0.4601660000000  0.5594840000000 1.0
C      1  0.5423020000000  0.4311760000000  0.4772660000000 1.0
C      1  0.5412160000000  0.4988300000000  0.4281740000000 1.0
C      1  0.5394340000000  0.5667510000000  0.4745650000000 1.0
C      1  0.5393700000000  0.5428760000000  0.5571890000000 1.0
C      1  0.4572660000000  0.4604120000000  0.5602020000000 1.0
C      1  0.4568220000000  0.4314640000000  0.4791490000000 1.0
C      1  0.4556850000000  0.4983950000000  0.4282770000000 1.0
C      1  0.4559680000000  0.5683760000000  0.4758640000000 1.0
C      1  0.4548880000000  0.5417500000000  0.5590690000000 1.0
C      1  0.5645250000000  0.4736810000000  0.4991320000000 1.0
C      1  0.5659380000000  0.4931270000000  0.4765890000000 1.0
C      1  0.5663160000000  0.5203740000000  0.4869620000000 1.0
C      1  0.5666000000000  0.5186130000000  0.5162010000000 1.0
C      1  0.5660810000000  0.4901210000000  0.5233470000000 1.0
C      1  0.4302950000000  0.4755390000000  0.4990730000000 1.0
C      1  0.4299080000000  0.4943650000000  0.4763400000000 1.0
C      1  0.4303870000000  0.5216620000000  0.4870900000000 1.0
C      1  0.4321770000000  0.5204520000000  0.5166580000000 1.0
C      1  0.4310430000000  0.4916120000000  0.5234420000000 1.0
C      1  0.5538990000000  0.5408000000000  0.5314540000000 1.0
C      1  0.5533070000000  0.4831660000000  0.5488440000000 1.0
C      1  0.5513300000000  0.4476630000000  0.4990930000000 1.0
C      1  0.5541200000000  0.4852300000000  0.4507420000000 1.0
C      1  0.5527550000000  0.5411470000000  0.4708180000000 1.0
C      1  0.4454180000000  0.5415080000000  0.5318870000000 1.0
C      1  0.4438610000000  0.4835730000000  0.5486510000000 1.0
C      1  0.4430260000000  0.4486740000000  0.4991380000000 1.0
C      1  0.4424140000000  0.4854990000000  0.4510870000000 1.0
C      1  0.4424860000000  0.5428400000000  0.4706260000000 1.0
C      1  0.5192180000000  0.5749120000000  0.4537980000000 1.0
C      1  0.5159610000000  0.5619670000000  0.5588530000000 1.0
C      1  0.5196260000000  0.4657110000000  0.5819420000000 1.0
C      1  0.5217950000000  0.4107070000000  0.4829000000000 1.0
C      1  0.5197610000000  0.4825280000000  0.4143090000000 1.0
C      1  0.4767100000000  0.5748700000000  0.4541360000000 1.0
C      1  0.4746360000000  0.5633050000000  0.5658980000000 1.0
C      1  0.4770870000000  0.4656790000000  0.5822230000000 1.0
C      1  0.4809630000000  0.4158150000000  0.4876900000000 1.0
C      1  0.4775180000000  0.4829280000000  0.4148920000000 1.0
C      1  0.4726580000000  0.5526740000000  0.5218170000000 1.0
C      1  0.4668710000000  0.4989920000000  0.5495960000000 1.0
C      1  0.4671970000000  0.4501770000000  0.5152480000000 1.0
C      1  0.4671020000000  0.4722330000000  0.4587620000000 1.0
C      1  0.4671560000000  0.5318740000000  0.4592430000000 1.0
C      1  0.5299940000000  0.5492080000000  0.5169580000000 1.0
C      1  0.5303180000000  0.4984410000000  0.5496660000000 1.0
C      1  0.5241810000000  0.4442420000000  0.5131310000000 1.0
C      1  0.5292190000000  0.4714000000000  0.4570200000000 1.0
C      1  0.5301270000000  0.5290200000000  0.4607170000000 1.0
C      1  0.4724820000000  0.5726100000000  0.4993130000000 1.0
C      1  0.4707700000000  0.5190420000000  0.5669700000000 1.0
C      1  0.4711480000000  0.4417780000000  0.5431280000000 1.0
C      1  0.4716540000000  0.4442920000000  0.4576820000000 1.0
C      1  0.4715430000000  0.5217640000000  0.4327330000000 1.0
C      1  0.5256580000000  0.5722720000000  0.4992990000000 1.0
C      1  0.5255110000000  0.5191560000000  0.5663600000000 1.0
C      1  0.5239970000000  0.4420600000000  0.5432840000000 1.0
C      1  0.5260480000000  0.4432740000000  0.4569420000000 1.0
C      1  0.5264340000000  0.5227050000000  0.4347630000000 1.0
C      1  0.4983140000000  0.5211310000000  0.5786370000000 1.0
C      1  0.4994480000000  0.5277520000000  0.4228480000000 1.0
C      1  0.4979370000000  0.4343110000000  0.5536630000000 1.0
C      1  0.4985350000000  0.4365580000000  0.4472580000000 1.0
C      1  0.4987310000000  0.5843770000000  0.4952660000000 1.0
C      1  0.4987350000000  0.4117920000000  0.4646380000000 1.0
C      1  0.4980250000000  0.5916620000000  0.4669430000000 1.0
C      1  0.4984080000000  0.4445090000000  0.5810330000000 1.0
C      1  0.4981070000000  0.5519740000000  0.5799650000000 1.0
C      1  0.4985650000000  0.5020550000000  0.4067910000000 1.0
C      1  0.4983740000000  0.4854950000000  0.5837500000000 1.0
C      1  0.4977190000000  0.5593440000000  0.4417320000000 1.0
C      1  0.4917070000000  0.5676300000000  0.5428450000000 1.0
C      1  0.4986500000000  0.4651330000000  0.4243530000000 1.0
C      1  0.5049040000000  0.4200840000000  0.5042380000000 1.0
END
