TITL C-2441161-5029-199 0.0745135566426422 125000 -21942.5543916363 0 0 163 (C1) n - 1
REM
REM in /home/bkarasulu/work/CARBON/AIRSS/Generating-Clusters/ReaxFF-fromJPCA2015/Units_Real/with-SteepDescent/Higher-Symm
REM
REM
REM
REM
REM
REM ./C.cell (1df0a924f5614ab8850e4351716899ee)
REM
REM compiler GCC version 9.2.1 20190827 (Red Hat 9.2.1-1)
REM options -cpp -mtune=generic -march=x86-64 -g -O0 -fpre-include=/usr/include/finclude/math-vector-fortran.h
REM seed 1990108565 -985629074 -1169317761 919821927 148287558 -1576209784 1897134159 42053814 -1218046115 -50783110 -311213354 -444858150 1177084455 -1511850230 376920335 1522524795 -123660878 -810091171 -1556945009 -1762759408 1905076925 -1758100496 1912509523 -1781695032 -2016274125 -1816764532 366321088 1923276680 1123806119 -136471225 -1465030912 811866262 -657128674
REM
CELL 1.54180   50.00000   50.00000   50.00000   90.00000   90.00000   90.00000
LATT -1
SFAC C  
C      1  0.4752340000000  0.4167730000000  0.4802070000000 1.0
C      1  0.4334940000000  0.4411430000000  0.5546150000000 1.0
C      1  0.4220110000000  0.4908660000000  0.5597950000000 1.0
C      1  0.4736840000000  0.4428800000000  0.5763240000000 1.0
C      1  0.5102460000000  0.4309470000000  0.5464430000000 1.0
C      1  0.4264720000000  0.4520820000000  0.5152600000000 1.0
C      1  0.4147000000000  0.5680830000000  0.5046650000000 1.0
C      1  0.5045100000000  0.3919570000000  0.4957640000000 1.0
C      1  0.5842660000000  0.5262170000000  0.4506110000000 1.0
C      1  0.4999920000000  0.5356200000000  0.6000370000000 1.0
C      1  0.5482280000000  0.4910530000000  0.5515860000000 1.0
C      1  0.5521260000000  0.5706590000000  0.4431420000000 1.0
C      1  0.5694810000000  0.5380930000000  0.5651820000000 1.0
C      1  0.3941400000000  0.5238110000000  0.5081720000000 1.0
C      1  0.5818070000000  0.4978860000000  0.5034870000000 1.0
C      1  0.5030730000000  0.4059770000000  0.4399900000000 1.0
C      1  0.3958120000000  0.4846700000000  0.4911960000000 1.0
C      1  0.4334260000000  0.4380820000000  0.4610540000000 1.0
C      1  0.5223550000000  0.5162700000000  0.5175920000000 1.0
C      1  0.5125850000000  0.5562850000000  0.4715400000000 1.0
C      1  0.4441370000000  0.5446940000000  0.4751040000000 1.0
C      1  0.4251020000000  0.4777010000000  0.4460670000000 1.0
C      1  0.5555220000000  0.4835350000000  0.5902400000000 1.0
C      1  0.4839730000000  0.5086030000000  0.5040470000000 1.0
C      1  0.4871110000000  0.5088460000000  0.6042940000000 1.0
C      1  0.5427440000000  0.5109240000000  0.5012070000000 1.0
C      1  0.4434700000000  0.4161210000000  0.4813260000000 1.0
C      1  0.3925380000000  0.4955140000000  0.5186090000000 1.0
C      1  0.5851390000000  0.5686500000000  0.4922140000000 1.0
C      1  0.4495270000000  0.5248900000000  0.5759170000000 1.0
C      1  0.4221890000000  0.5229820000000  0.4640870000000 1.0
C      1  0.5925080000000  0.4981150000000  0.5441500000000 1.0
C      1  0.4701420000000  0.4602360000000  0.4074960000000 1.0
C      1  0.4227640000000  0.5786200000000  0.4785900000000 1.0
C      1  0.5731920000000  0.5724790000000  0.5193420000000 1.0
C      1  0.4752730000000  0.4470690000000  0.4313270000000 1.0
C      1  0.4394530000000  0.4752090000000  0.5762580000000 1.0
C      1  0.5537940000000  0.4133360000000  0.5188920000000 1.0
C      1  0.4429610000000  0.4487440000000  0.5744690000000 1.0
C      1  0.4495490000000  0.5474950000000  0.5577080000000 1.0
C      1  0.4611680000000  0.4853670000000  0.5377830000000 1.0
C      1  0.6032010000000  0.4845610000000  0.5187530000000 1.0
C      1  0.5220320000000  0.4470350000000  0.5247180000000 1.0
C      1  0.4815060000000  0.5219780000000  0.4510900000000 1.0
C      1  0.4867350000000  0.5245720000000  0.5561560000000 1.0
C      1  0.5210480000000  0.4506780000000  0.4637130000000 1.0
C      1  0.5394680000000  0.4599540000000  0.5855140000000 1.0
C      1  0.4224110000000  0.5418100000000  0.5487130000000 1.0
C      1  0.5279470000000  0.4775010000000  0.3977290000000 1.0
C      1  0.5363360000000  0.5337200000000  0.5347570000000 1.0
C      1  0.5895400000000  0.5284510000000  0.5483770000000 1.0
C      1  0.5425310000000  0.5235840000000  0.4126450000000 1.0
C      1  0.4706560000000  0.5346280000000  0.4758570000000 1.0
C      1  0.4415820000000  0.5705910000000  0.4532500000000 1.0
C      1  0.4880890000000  0.5546390000000  0.4860390000000 1.0
C      1  0.4973390000000  0.4939060000000  0.4814670000000 1.0
C      1  0.5856790000000  0.5260970000000  0.4974230000000 1.0
C      1  0.5237990000000  0.4874840000000  0.4391710000000 1.0
C      1  0.4843690000000  0.5829700000000  0.5547460000000 1.0
C      1  0.4928400000000  0.4365020000000  0.4922540000000 1.0
C      1  0.5325400000000  0.5145700000000  0.5562160000000 1.0
C      1  0.4688490000000  0.4227280000000  0.5299110000000 1.0
C      1  0.5642600000000  0.4243940000000  0.4932520000000 1.0
C      1  0.5391510000000  0.5063810000000  0.6008980000000 1.0
C      1  0.4419890000000  0.4614380000000  0.4128740000000 1.0
C      1  0.4190410000000  0.4932800000000  0.5303970000000 1.0
C      1  0.5286650000000  0.5661300000000  0.4938270000000 1.0
C      1  0.4997060000000  0.4324870000000  0.5898050000000 1.0
C      1  0.5492830000000  0.4966720000000  0.4021760000000 1.0
C      1  0.4927150000000  0.5102300000000  0.3974270000000 1.0
C      1  0.4974390000000  0.6093940000000  0.5161060000000 1.0
C      1  0.4396450000000  0.4292920000000  0.5301050000000 1.0
C      1  0.4515810000000  0.4681130000000  0.5158850000000 1.0
C      1  0.4985790000000  0.4754860000000  0.5484870000000 1.0
C      1  0.4856180000000  0.5648520000000  0.4287030000000 1.0
C      1  0.4250190000000  0.4509740000000  0.4357100000000 1.0
C      1  0.5844640000000  0.4973390000000  0.4465710000000 1.0
C      1  0.5589060000000  0.5381610000000  0.4347690000000 1.0
C      1  0.5150030000000  0.5038860000000  0.4599950000000 1.0
C      1  0.5125210000000  0.5975970000000  0.4647260000000 1.0
C      1  0.5257330000000  0.6024750000000  0.5168280000000 1.0
C      1  0.4428620000000  0.5133960000000  0.4141700000000 1.0
C      1  0.4589060000000  0.5222400000000  0.5124270000000 1.0
C      1  0.5886360000000  0.4544550000000  0.5123940000000 1.0
C      1  0.4763490000000  0.4094430000000  0.4528520000000 1.0
C      1  0.4673340000000  0.5238200000000  0.4018210000000 1.0
C      1  0.5002910000000  0.4613300000000  0.5103100000000 1.0
C      1  0.5139340000000  0.4016670000000  0.4675190000000 1.0
C      1  0.4760190000000  0.4789260000000  0.4706000000000 1.0
C      1  0.4729020000000  0.4929230000000  0.4453370000000 1.0
C      1  0.4767130000000  0.6003680000000  0.4968700000000 1.0
C      1  0.4831530000000  0.5963450000000  0.4683880000000 1.0
C      1  0.5862870000000  0.5521640000000  0.5303390000000 1.0
C      1  0.6018470000000  0.4664590000000  0.4891620000000 1.0
C      1  0.5471720000000  0.5500890000000  0.5777420000000 1.0
C      1  0.5275120000000  0.5956960000000  0.4896260000000 1.0
C      1  0.4872740000000  0.4832020000000  0.5230300000000 1.0
C      1  0.5359790000000  0.5724860000000  0.5620270000000 1.0
C      1  0.5731800000000  0.4545840000000  0.5396500000000 1.0
C      1  0.5154030000000  0.4763100000000  0.4931690000000 1.0
C      1  0.5477750000000  0.4692950000000  0.4346630000000 1.0
C      1  0.4816780000000  0.4701960000000  0.5885550000000 1.0
C      1  0.4578520000000  0.4302350000000  0.4461750000000 1.0
C      1  0.5432310000000  0.5820070000000  0.5332480000000 1.0
C      1  0.5209920000000  0.5741760000000  0.4493520000000 1.0
C      1  0.5059720000000  0.5008580000000  0.5631370000000 1.0
C      1  0.5079140000000  0.5720160000000  0.5681050000000 1.0
C      1  0.4448330000000  0.4884140000000  0.4288610000000 1.0
C      1  0.4660130000000  0.4948350000000  0.5884470000000 1.0
C      1  0.4337120000000  0.4755670000000  0.4738160000000 1.0
C      1  0.4846640000000  0.4016330000000  0.5169490000000 1.0
C      1  0.4398140000000  0.5536590000000  0.4278520000000 1.0
C      1  0.5122620000000  0.4967610000000  0.5952980000000 1.0
C      1  0.4279690000000  0.5285900000000  0.4328520000000 1.0
C      1  0.5201230000000  0.4213290000000  0.5716770000000 1.0
C      1  0.4647520000000  0.5144510000000  0.5399460000000 1.0
C      1  0.5435880000000  0.5340280000000  0.4600310000000 1.0
C      1  0.4846540000000  0.4442290000000  0.5480250000000 1.0
C      1  0.4289440000000  0.3992950000000  0.4948120000000 1.0
C      1  0.3967630000000  0.5127160000000  0.4809650000000 1.0
C      1  0.5510900000000  0.5524930000000  0.4821570000000 1.0
C      1  0.5686490000000  0.5759240000000  0.4697990000000 1.0
C      1  0.4218940000000  0.5189830000000  0.5694490000000 1.0
C      1  0.5924820000000  0.5414890000000  0.4739910000000 1.0
C      1  0.5130710000000  0.4266700000000  0.4216400000000 1.0
C      1  0.4402760000000  0.5659930000000  0.4953720000000 1.0
C      1  0.4351250000000  0.5066440000000  0.5089240000000 1.0
C      1  0.5609010000000  0.4529400000000  0.4941670000000 1.0
C      1  0.5570240000000  0.4903630000000  0.5113070000000 1.0
C      1  0.5189880000000  0.4281860000000  0.5030510000000 1.0
C      1  0.5689830000000  0.4862140000000  0.4242590000000 1.0
C      1  0.5037240000000  0.4516570000000  0.4386540000000 1.0
C      1  0.4999670000000  0.5258650000000  0.5140340000000 1.0
C      1  0.5618400000000  0.4268100000000  0.4628650000000 1.0
C      1  0.5599240000000  0.4289840000000  0.5441020000000 1.0
C      1  0.4979960000000  0.4812690000000  0.4292740000000 1.0
C      1  0.4690420000000  0.5647070000000  0.5369980000000 1.0
C      1  0.4986880000000  0.5386800000000  0.4335410000000 1.0
C      1  0.4647640000000  0.5516900000000  0.4118920000000 1.0
C      1  0.5292910000000  0.5337340000000  0.5973450000000 1.0
C      1  0.4915970000000  0.5473600000000  0.5747500000000 1.0
C      1  0.4609880000000  0.4635760000000  0.4887080000000 1.0
C      1  0.5138580000000  0.5261480000000  0.4108570000000 1.0
C      1  0.5251350000000  0.5598880000000  0.5233430000000 1.0
C      1  0.4784090000000  0.6052320000000  0.5377640000000 1.0
C      1  0.4611800000000  0.5890400000000  0.5198750000000 1.0
C      1  0.4698170000000  0.5798870000000  0.4489180000000 1.0
C      1  0.5753990000000  0.4831130000000  0.5623140000000 1.0
C      1  0.5457000000000  0.4352520000000  0.5695820000000 1.0
C      1  0.5325110000000  0.4241980000000  0.4634560000000 1.0
C      1  0.5405000000000  0.5082750000000  0.4714070000000 1.0
C      1  0.4093440000000  0.5450060000000  0.5221550000000 1.0
C      1  0.5879750000000  0.4721350000000  0.4639980000000 1.0
C      1  0.5392470000000  0.4685920000000  0.4789890000000 1.0
C      1  0.4136520000000  0.4605420000000  0.4898370000000 1.0
C      1  0.4928390000000  0.5548350000000  0.5160310000000 1.0
C      1  0.5592420000000  0.5345350000000  0.5028090000000 1.0
C      1  0.4362310000000  0.5028920000000  0.4804650000000 1.0
C      1  0.5475350000000  0.4703060000000  0.5295130000000 1.0
C      1  0.5271890000000  0.4016620000000  0.5125570000000 1.0
C      1  0.4968350000000  0.4806420000000  0.3989800000000 1.0
C      1  0.5099870000000  0.4586050000000  0.5961830000000 1.0
C      1  0.5681370000000  0.4537630000000  0.4516600000000 1.0
END
