TITL C-2441162-9305-48 0.0692358322340442 125000 -21799.29280791 0 0 157 (C1) n - 1
REM
REM in /home/bkarasulu/work/CARBON/AIRSS/Generating-Clusters/ReaxFF-fromJPCA2015/Units_Real/with-SteepDescent/Higher-Symm
REM
REM
REM
REM
REM
REM ./C.cell (1df0a924f5614ab8850e4351716899ee)
REM
REM compiler GCC version 9.2.1 20190827 (Red Hat 9.2.1-1)
REM options -cpp -mtune=generic -march=x86-64 -g -O0 -fpre-include=/usr/include/finclude/math-vector-fortran.h
REM seed -369690084 757691216 2132310230 -1259427797 -924110959 -1782342305 -1878538326 1158947143 99145600 505478885 2103024334 -531415303 955607911 -871196813 -1418086815 -1415547794 -1632516753 408255189 252428777 -1079697412 -1867092268 1204141420 -2039029050 -1644348509 1642426137 1301282549 927845186 438929409 450370515 -1317265227 -89497123 1647009521 1709920410
REM
CELL 1.54180   50.00000   50.00000   50.00000   90.00000   90.00000   90.00000
LATT -1
SFAC C  
C      1  0.4586830000000  0.5507980000000  0.5404010000000 1.0
C      1  0.5433580000000  0.4499540000000  0.5392910000000 1.0
C      1  0.4271470000000  0.5016850000000  0.4990990000000 1.0
C      1  0.5695670000000  0.5001840000000  0.5032190000000 1.0
C      1  0.4180450000000  0.4420510000000  0.4959420000000 1.0
C      1  0.5821740000000  0.5592940000000  0.4956120000000 1.0
C      1  0.5717910000000  0.5037680000000  0.4343120000000 1.0
C      1  0.4212730000000  0.5057440000000  0.4453490000000 1.0
C      1  0.4334600000000  0.4207990000000  0.4837470000000 1.0
C      1  0.5653320000000  0.5796820000000  0.4837090000000 1.0
C      1  0.5643750000000  0.4825020000000  0.5844610000000 1.0
C      1  0.4365610000000  0.5175000000000  0.5826320000000 1.0
C      1  0.5028020000000  0.5537550000000  0.4677300000000 1.0
C      1  0.4930160000000  0.4410140000000  0.4687730000000 1.0
C      1  0.5002590000000  0.5810810000000  0.5492510000000 1.0
C      1  0.4877500000000  0.4319030000000  0.5476400000000 1.0
C      1  0.4731090000000  0.4423100000000  0.5850870000000 1.0
C      1  0.5265020000000  0.5573220000000  0.5843280000000 1.0
C      1  0.5270870000000  0.5652120000000  0.4497520000000 1.0
C      1  0.4735120000000  0.4298110000000  0.4506710000000 1.0
C      1  0.5988840000000  0.5052020000000  0.5043250000000 1.0
C      1  0.3947290000000  0.4979710000000  0.5036020000000 1.0
C      1  0.4208150000000  0.4964620000000  0.5720150000000 1.0
C      1  0.5802590000000  0.5031220000000  0.5731040000000 1.0
C      1  0.5556850000000  0.4133980000000  0.4773670000000 1.0
C      1  0.4439760000000  0.5882820000000  0.4768210000000 1.0
C      1  0.5106010000000  0.4013430000000  0.5146700000000 1.0
C      1  0.4873670000000  0.6035090000000  0.5129890000000 1.0
C      1  0.5556960000000  0.5702530000000  0.5417950000000 1.0
C      1  0.4422270000000  0.4290400000000  0.5431720000000 1.0
C      1  0.5445280000000  0.5950030000000  0.4989900000000 1.0
C      1  0.4519470000000  0.4036000000000  0.4998240000000 1.0
C      1  0.5178900000000  0.5889580000000  0.4884880000000 1.0
C      1  0.4791610000000  0.4100400000000  0.4904850000000 1.0
C      1  0.4895160000000  0.4649680000000  0.5931690000000 1.0
C      1  0.5111780000000  0.5343350000000  0.5929570000000 1.0
C      1  0.5368520000000  0.4240520000000  0.5510780000000 1.0
C      1  0.4687800000000  0.5763490000000  0.5491630000000 1.0
C      1  0.4954830000000  0.4247700000000  0.5753430000000 1.0
C      1  0.5038000000000  0.5759570000000  0.5779620000000 1.0
C      1  0.4160170000000  0.5487580000000  0.4476920000000 1.0
C      1  0.5813800000000  0.4543840000000  0.4508110000000 1.0
C      1  0.5302970000000  0.5578810000000  0.4217680000000 1.0
C      1  0.4712110000000  0.4357870000000  0.4224080000000 1.0
C      1  0.5278570000000  0.4192300000000  0.4348200000000 1.0
C      1  0.4723080000000  0.5843670000000  0.4303030000000 1.0
C      1  0.5356590000000  0.5204210000000  0.4817070000000 1.0
C      1  0.4735190000000  0.4839770000000  0.4890250000000 1.0
C      1  0.4629660000000  0.4756860000000  0.4348230000000 1.0
C      1  0.5307610000000  0.5209400000000  0.4398670000000 1.0
C      1  0.4960170000000  0.5378760000000  0.5343550000000 1.0
C      1  0.5070040000000  0.4683680000000  0.5332440000000 1.0
C      1  0.4737940000000  0.5297210000000  0.5517830000000 1.0
C      1  0.5275270000000  0.4706210000000  0.5557710000000 1.0
C      1  0.4835110000000  0.4927550000000  0.5862410000000 1.0
C      1  0.5167760000000  0.5064720000000  0.5876290000000 1.0
C      1  0.5723450000000  0.5290890000000  0.5366890000000 1.0
C      1  0.4253220000000  0.4697390000000  0.5376370000000 1.0
C      1  0.4578400000000  0.4086890000000  0.5277180000000 1.0
C      1  0.5402770000000  0.5913530000000  0.5274780000000 1.0
C      1  0.5620850000000  0.4346630000000  0.4595520000000 1.0
C      1  0.4336370000000  0.5632450000000  0.4664070000000 1.0
C      1  0.5934860000000  0.4860130000000  0.5516810000000 1.0
C      1  0.4042700000000  0.5149260000000  0.5532420000000 1.0
C      1  0.5078140000000  0.5375960000000  0.4058500000000 1.0
C      1  0.4918220000000  0.4513690000000  0.4079760000000 1.0
C      1  0.4280290000000  0.5549930000000  0.5123480000000 1.0
C      1  0.5764190000000  0.4382530000000  0.5146450000000 1.0
C      1  0.4244130000000  0.4445330000000  0.5247840000000 1.0
C      1  0.5741020000000  0.5544940000000  0.5238480000000 1.0
C      1  0.5777320000000  0.5150990000000  0.4596050000000 1.0
C      1  0.4313400000000  0.4890360000000  0.4676730000000 1.0
C      1  0.5333660000000  0.5187280000000  0.5600750000000 1.0
C      1  0.4674800000000  0.4797220000000  0.5586720000000 1.0
C      1  0.5119530000000  0.5097450000000  0.4875280000000 1.0
C      1  0.5013780000000  0.4848870000000  0.4795170000000 1.0
C      1  0.5200240000000  0.4571920000000  0.4038730000000 1.0
C      1  0.4770390000000  0.5415430000000  0.4021800000000 1.0
C      1  0.4931300000000  0.6027970000000  0.4844320000000 1.0
C      1  0.5053080000000  0.3982720000000  0.4867510000000 1.0
C      1  0.5583660000000  0.5051750000000  0.4790450000000 1.0
C      1  0.4612660000000  0.4940030000000  0.4575680000000 1.0
C      1  0.5424440000000  0.4937790000000  0.5500300000000 1.0
C      1  0.4602540000000  0.5013930000000  0.5397950000000 1.0
C      1  0.4183950000000  0.4594160000000  0.4712300000000 1.0
C      1  0.5854730000000  0.5449500000000  0.4694190000000 1.0
C      1  0.4225020000000  0.4485680000000  0.4443040000000 1.0
C      1  0.5767780000000  0.5538070000000  0.4427350000000 1.0
C      1  0.4873300000000  0.4779790000000  0.4190080000000 1.0
C      1  0.5026800000000  0.5265510000000  0.4334010000000 1.0
C      1  0.5368990000000  0.4846450000000  0.5941800000000 1.0
C      1  0.4641640000000  0.5144820000000  0.5925460000000 1.0
C      1  0.5561550000000  0.5058030000000  0.5270310000000 1.0
C      1  0.4363120000000  0.4928700000000  0.5256200000000 1.0
C      1  0.5531600000000  0.5410060000000  0.4272790000000 1.0
C      1  0.4470670000000  0.4524720000000  0.4270890000000 1.0
C      1  0.4617300000000  0.5605430000000  0.4188650000000 1.0
C      1  0.5379150000000  0.4418970000000  0.4214250000000 1.0
C      1  0.5618240000000  0.4868420000000  0.4147700000000 1.0
C      1  0.4368930000000  0.5155770000000  0.4211190000000 1.0
C      1  0.6090800000000  0.4798210000000  0.4946560000000 1.0
C      1  0.3926270000000  0.5195670000000  0.4861440000000 1.0
C      1  0.5210460000000  0.5094630000000  0.5168420000000 1.0
C      1  0.4756710000000  0.4970610000000  0.5161510000000 1.0
C      1  0.4712140000000  0.5929220000000  0.4648090000000 1.0
C      1  0.5273400000000  0.4080500000000  0.4654340000000 1.0
C      1  0.5128430000000  0.5097370000000  0.3948360000000 1.0
C      1  0.4860560000000  0.5002880000000  0.3985740000000 1.0
C      1  0.5274260000000  0.4560480000000  0.5158180000000 1.0
C      1  0.4839110000000  0.5472120000000  0.5101940000000 1.0
C      1  0.4025570000000  0.5244630000000  0.4595400000000 1.0
C      1  0.5899790000000  0.4688830000000  0.4755960000000 1.0
C      1  0.5257850000000  0.4928590000000  0.4358720000000 1.0
C      1  0.4803910000000  0.5169660000000  0.4495590000000 1.0
C      1  0.4952750000000  0.5266800000000  0.4719180000000 1.0
C      1  0.5155500000000  0.4765110000000  0.4566320000000 1.0
C      1  0.4310190000000  0.5528820000000  0.5413590000000 1.0
C      1  0.5727520000000  0.4443350000000  0.5422400000000 1.0
C      1  0.5120120000000  0.5987300000000  0.5308040000000 1.0
C      1  0.4865350000000  0.4087870000000  0.5305170000000 1.0
C      1  0.4485110000000  0.4419600000000  0.5684420000000 1.0
C      1  0.5508700000000  0.5577650000000  0.5675750000000 1.0
C      1  0.5233360000000  0.4315490000000  0.5751260000000 1.0
C      1  0.4764320000000  0.5677330000000  0.5797240000000 1.0
C      1  0.4807130000000  0.5385100000000  0.5854270000000 1.0
C      1  0.5198220000000  0.4606560000000  0.5870280000000 1.0
C      1  0.5453820000000  0.5610060000000  0.4722590000000 1.0
C      1  0.4525260000000  0.4386760000000  0.4690200000000 1.0
C      1  0.4576640000000  0.5475940000000  0.4703200000000 1.0
C      1  0.5351710000000  0.4566120000000  0.4676150000000 1.0
C      1  0.4353330000000  0.5303500000000  0.4996420000000 1.0
C      1  0.5707650000000  0.4623100000000  0.4974240000000 1.0
C      1  0.5365120000000  0.4103970000000  0.5254690000000 1.0
C      1  0.4629620000000  0.5909510000000  0.5226510000000 1.0
C      1  0.3949230000000  0.5134860000000  0.5261590000000 1.0
C      1  0.6079160000000  0.4876860000000  0.5246500000000 1.0
C      1  0.5582900000000  0.4167740000000  0.5064160000000 1.0
C      1  0.4425570000000  0.5806010000000  0.5048390000000 1.0
C      1  0.4608320000000  0.4568590000000  0.4901480000000 1.0
C      1  0.5361240000000  0.5453050000000  0.4961010000000 1.0
C      1  0.5803310000000  0.4632930000000  0.5621060000000 1.0
C      1  0.4212460000000  0.5366490000000  0.5632590000000 1.0
C      1  0.5418170000000  0.4643500000000  0.4940570000000 1.0
C      1  0.4637180000000  0.5315680000000  0.4936020000000 1.0
C      1  0.4351090000000  0.5430030000000  0.4263530000000 1.0
C      1  0.5640110000000  0.4616450000000  0.4278750000000 1.0
C      1  0.4620180000000  0.5172030000000  0.4038780000000 1.0
C      1  0.5300620000000  0.4871000000000  0.4051930000000 1.0
C      1  0.5646580000000  0.5306580000000  0.5653500000000 1.0
C      1  0.4375110000000  0.4703550000000  0.5645600000000 1.0
C      1  0.5245630000000  0.5328240000000  0.5339590000000 1.0
C      1  0.4811990000000  0.4594000000000  0.5430210000000 1.0
C      1  0.5183680000000  0.4355230000000  0.4694430000000 1.0
C      1  0.4780110000000  0.5648650000000  0.4640210000000 1.0
C      1  0.4822860000000  0.4390710000000  0.4953560000000 1.0
C      1  0.5096160000000  0.5599250000000  0.4971900000000 1.0
C      1  0.5012310000000  0.4942760000000  0.5266910000000 1.0
END
