TITL C-2441161-5029-876 0.100222382306792 125000 -23565.2804632319 0 0 180 (C1) n - 1
REM
REM in /home/bkarasulu/work/CARBON/AIRSS/Generating-Clusters/ReaxFF-fromJPCA2015/Units_Real/with-SteepDescent/Higher-Symm
REM
REM
REM
REM
REM
REM ./C.cell (1df0a924f5614ab8850e4351716899ee)
REM
REM compiler GCC version 9.2.1 20190827 (Red Hat 9.2.1-1)
REM options -cpp -mtune=generic -march=x86-64 -g -O0 -fpre-include=/usr/include/finclude/math-vector-fortran.h
REM seed -757050015 -664756159 1256536933 -2042791877 -658776035 -1649799852 927586633 1946324350 -81145640 -389388921 -1017232269 -1298053208 -1299181561 216176622 -652599513 2087065625 -1593604827 582474847 -1154993103 1461756006 -1187358421 1608624151 917535256 -794252115 1002740625 -121021918 -792385880 -1851556390 1631405463 117035571 115038825 -1256114110 -121021684
REM
CELL 1.54180   50.00000   50.00000   50.00000   90.00000   90.00000   90.00000
LATT -1
SFAC C  
C      1  0.5149970000000  0.5913580000000  0.5739030000000 1.0
C      1  0.5920460000000  0.5744170000000  0.5148040000000 1.0
C      1  0.5738740000000  0.5138270000000  0.5924670000000 1.0
C      1  0.4847800000000  0.4092110000000  0.5741650000000 1.0
C      1  0.5140360000000  0.4089040000000  0.4258460000000 1.0
C      1  0.4853430000000  0.5921930000000  0.4261670000000 1.0
C      1  0.4083210000000  0.4255870000000  0.5139230000000 1.0
C      1  0.5913360000000  0.4256740000000  0.4857840000000 1.0
C      1  0.4088720000000  0.5741700000000  0.4845860000000 1.0
C      1  0.4254970000000  0.4852900000000  0.5914740000000 1.0
C      1  0.5743040000000  0.4856450000000  0.4080210000000 1.0
C      1  0.4259170000000  0.5142640000000  0.4081050000000 1.0
C      1  0.5144660000000  0.5912590000000  0.4260490000000 1.0
C      1  0.5910430000000  0.5742790000000  0.4858760000000 1.0
C      1  0.5740850000000  0.5147920000000  0.4079310000000 1.0
C      1  0.4848530000000  0.4079670000000  0.4252790000000 1.0
C      1  0.5140140000000  0.4077160000000  0.5743870000000 1.0
C      1  0.4862770000000  0.5914190000000  0.5739850000000 1.0
C      1  0.4086940000000  0.4259780000000  0.4848290000000 1.0
C      1  0.5915020000000  0.4252400000000  0.5148100000000 1.0
C      1  0.4085760000000  0.5749070000000  0.5135250000000 1.0
C      1  0.4256270000000  0.4852590000000  0.4082630000000 1.0
C      1  0.5738890000000  0.4852400000000  0.5912160000000 1.0
C      1  0.4256020000000  0.5145260000000  0.5920800000000 1.0
C      1  0.4585080000000  0.5454210000000  0.5102940000000 1.0
C      1  0.5503120000000  0.5146370000000  0.4608320000000 1.0
C      1  0.5185660000000  0.4553140000000  0.5446720000000 1.0
C      1  0.5374540000000  0.4522450000000  0.5189770000000 1.0
C      1  0.4558020000000  0.4553650000000  0.4850750000000 1.0
C      1  0.5350310000000  0.5476360000000  0.4922530000000 1.0
C      1  0.4515260000000  0.4790010000000  0.4693420000000 1.0
C      1  0.5461300000000  0.4951220000000  0.5350150000000 1.0
C      1  0.4533830000000  0.5092960000000  0.5425740000000 1.0
C      1  0.4835560000000  0.5359960000000  0.5456590000000 1.0
C      1  0.5069930000000  0.5341210000000  0.4506060000000 1.0
C      1  0.4880140000000  0.4593860000000  0.4508340000000 1.0
C      1  0.4590200000000  0.5512390000000  0.4878520000000 1.0
C      1  0.5507060000000  0.5225610000000  0.5351730000000 1.0
C      1  0.5148860000000  0.4601540000000  0.4571940000000 1.0
C      1  0.5393370000000  0.4522090000000  0.4888190000000 1.0
C      1  0.4625170000000  0.4581150000000  0.5139610000000 1.0
C      1  0.5424910000000  0.5453160000000  0.5195200000000 1.0
C      1  0.4505930000000  0.4814260000000  0.5353990000000 1.0
C      1  0.5488220000000  0.4879130000000  0.4582970000000 1.0
C      1  0.4573980000000  0.5174230000000  0.4583830000000 1.0
C      1  0.4792100000000  0.5337940000000  0.4491190000000 1.0
C      1  0.5107870000000  0.5421600000000  0.5491600000000 1.0
C      1  0.4929060000000  0.4638990000000  0.5473660000000 1.0
C      1  0.4525650000000  0.5140230000000  0.6043220000000 1.0
C      1  0.5148430000000  0.6039600000000  0.4526070000000 1.0
C      1  0.6038990000000  0.4523100000000  0.5151060000000 1.0
C      1  0.5471960000000  0.4848240000000  0.6039660000000 1.0
C      1  0.4520690000000  0.4848690000000  0.3949050000000 1.0
C      1  0.5468960000000  0.5142980000000  0.3961850000000 1.0
C      1  0.4848920000000  0.3960190000000  0.4524920000000 1.0
C      1  0.5135500000000  0.3952650000000  0.5473600000000 1.0
C      1  0.4860410000000  0.6041700000000  0.5471800000000 1.0
C      1  0.3959050000000  0.5477920000000  0.5144660000000 1.0
C      1  0.6052850000000  0.5483810000000  0.4853100000000 1.0
C      1  0.3956140000000  0.4521560000000  0.4847680000000 1.0
C      1  0.4521590000000  0.5141840000000  0.3945800000000 1.0
C      1  0.5153160000000  0.6036000000000  0.5472580000000 1.0
C      1  0.6041030000000  0.4521380000000  0.4858050000000 1.0
C      1  0.5475000000000  0.4855540000000  0.3966170000000 1.0
C      1  0.4521250000000  0.4851720000000  0.6041070000000 1.0
C      1  0.5472660000000  0.5141220000000  0.6047150000000 1.0
C      1  0.4845150000000  0.3963010000000  0.5475740000000 1.0
C      1  0.5140030000000  0.3962390000000  0.4523750000000 1.0
C      1  0.4859990000000  0.6042800000000  0.4532910000000 1.0
C      1  0.3965880000000  0.5469060000000  0.4845760000000 1.0
C      1  0.6050180000000  0.5478770000000  0.5147050000000 1.0
C      1  0.3945750000000  0.4516390000000  0.5136130000000 1.0
C      1  0.5952610000000  0.5206590000000  0.4852020000000 1.0
C      1  0.5204680000000  0.4854470000000  0.5916100000000 1.0
C      1  0.4858080000000  0.5916860000000  0.5204760000000 1.0
C      1  0.4061540000000  0.4795040000000  0.4857890000000 1.0
C      1  0.5914050000000  0.4790150000000  0.5148290000000 1.0
C      1  0.4099720000000  0.5220710000000  0.5149310000000 1.0
C      1  0.4792430000000  0.5141690000000  0.5926710000000 1.0
C      1  0.5205070000000  0.5144470000000  0.4082980000000 1.0
C      1  0.4793280000000  0.4852310000000  0.4059920000000 1.0
C      1  0.5142110000000  0.4068250000000  0.5206560000000 1.0
C      1  0.4845860000000  0.4087800000000  0.4786570000000 1.0
C      1  0.5155820000000  0.5920220000000  0.4793280000000 1.0
C      1  0.5952400000000  0.5204100000000  0.5142100000000 1.0
C      1  0.5211600000000  0.4850770000000  0.4093230000000 1.0
C      1  0.4863030000000  0.5924450000000  0.4799860000000 1.0
C      1  0.4061300000000  0.4781470000000  0.5146920000000 1.0
C      1  0.5923670000000  0.4788970000000  0.4853450000000 1.0
C      1  0.4101970000000  0.5206050000000  0.4858140000000 1.0
C      1  0.4796290000000  0.5143380000000  0.4046140000000 1.0
C      1  0.5205880000000  0.5145290000000  0.5923900000000 1.0
C      1  0.4790910000000  0.4847910000000  0.5923190000000 1.0
C      1  0.5139970000000  0.4084030000000  0.4791700000000 1.0
C      1  0.4847170000000  0.4089390000000  0.5210080000000 1.0
C      1  0.5150830000000  0.5912180000000  0.5206220000000 1.0
C      1  0.4757490000000  0.4612110000000  0.5738980000000 1.0
C      1  0.4597930000000  0.5744980000000  0.4727780000000 1.0
C      1  0.5746030000000  0.4740170000000  0.4586620000000 1.0
C      1  0.5268980000000  0.5412290000000  0.5743210000000 1.0
C      1  0.4710680000000  0.5424800000000  0.4217740000000 1.0
C      1  0.5254860000000  0.4598190000000  0.4282080000000 1.0
C      1  0.5400450000000  0.4259900000000  0.4745680000000 1.0
C      1  0.4603150000000  0.4272400000000  0.5266200000000 1.0
C      1  0.5429680000000  0.5734880000000  0.5291090000000 1.0
C      1  0.4289650000000  0.5266330000000  0.4585170000000 1.0
C      1  0.5779690000000  0.5291020000000  0.5431680000000 1.0
C      1  0.4231930000000  0.4749700000000  0.5393780000000 1.0
C      1  0.4741640000000  0.4595680000000  0.4250450000000 1.0
C      1  0.4593280000000  0.5736630000000  0.5268530000000 1.0
C      1  0.5717240000000  0.4765360000000  0.5391030000000 1.0
C      1  0.5237480000000  0.5387190000000  0.4266030000000 1.0
C      1  0.4739970000000  0.5397730000000  0.5744670000000 1.0
C      1  0.5278530000000  0.4578490000000  0.5737250000000 1.0
C      1  0.5409750000000  0.4231020000000  0.5255480000000 1.0
C      1  0.4586500000000  0.4266160000000  0.4732880000000 1.0
C      1  0.5391110000000  0.5733600000000  0.4760410000000 1.0
C      1  0.4278020000000  0.5248870000000  0.5417880000000 1.0
C      1  0.5761800000000  0.5264490000000  0.4592050000000 1.0
C      1  0.4243940000000  0.4743810000000  0.4599230000000 1.0
C      1  0.5520150000000  0.5558740000000  0.4262920000000 1.0
C      1  0.5577990000000  0.4238100000000  0.5524250000000 1.0
C      1  0.4254380000000  0.5526640000000  0.5571460000000 1.0
C      1  0.4466510000000  0.4434990000000  0.4241890000000 1.0
C      1  0.5539470000000  0.4414580000000  0.5755360000000 1.0
C      1  0.4471930000000  0.5568270000000  0.5754790000000 1.0
C      1  0.4433580000000  0.5752340000000  0.5531510000000 1.0
C      1  0.5561840000000  0.5739770000000  0.4480560000000 1.0
C      1  0.4431400000000  0.4257450000000  0.4464670000000 1.0
C      1  0.5733600000000  0.4478330000000  0.5549710000000 1.0
C      1  0.4245470000000  0.4472830000000  0.4426080000000 1.0
C      1  0.5757680000000  0.5533210000000  0.4425050000000 1.0
C      1  0.5533180000000  0.5569240000000  0.5758800000000 1.0
C      1  0.5565640000000  0.4253260000000  0.4472120000000 1.0
C      1  0.4254290000000  0.5533170000000  0.4432810000000 1.0
C      1  0.4476510000000  0.4449040000000  0.5747030000000 1.0
C      1  0.5524790000000  0.4435750000000  0.4252250000000 1.0
C      1  0.4461370000000  0.5583660000000  0.4241200000000 1.0
C      1  0.4430090000000  0.5760400000000  0.4465370000000 1.0
C      1  0.5582070000000  0.5752890000000  0.5540130000000 1.0
C      1  0.4435600000000  0.4258480000000  0.5531760000000 1.0
C      1  0.5753560000000  0.4469140000000  0.4427040000000 1.0
C      1  0.4246770000000  0.4473830000000  0.5577580000000 1.0
C      1  0.5766820000000  0.5537730000000  0.5593040000000 1.0
C      1  0.5135260000000  0.4356590000000  0.4147750000000 1.0
C      1  0.4358580000000  0.4148510000000  0.5139590000000 1.0
C      1  0.4149670000000  0.5144370000000  0.4351890000000 1.0
C      1  0.4853360000000  0.5658520000000  0.4134930000000 1.0
C      1  0.5149100000000  0.5651350000000  0.5862270000000 1.0
C      1  0.4863310000000  0.4361680000000  0.5854910000000 1.0
C      1  0.5652240000000  0.5858900000000  0.5152740000000 1.0
C      1  0.4356950000000  0.5859390000000  0.4852730000000 1.0
C      1  0.5649980000000  0.4133650000000  0.4855820000000 1.0
C      1  0.5874470000000  0.4854760000000  0.4340450000000 1.0
C      1  0.4128790000000  0.4859510000000  0.5652410000000 1.0
C      1  0.5869010000000  0.5150330000000  0.5666400000000 1.0
C      1  0.5148550000000  0.4345430000000  0.5865990000000 1.0
C      1  0.4354420000000  0.4142590000000  0.4856680000000 1.0
C      1  0.4133670000000  0.5143200000000  0.5651010000000 1.0
C      1  0.4863450000000  0.5647710000000  0.5865230000000 1.0
C      1  0.5134880000000  0.5643370000000  0.4142760000000 1.0
C      1  0.4851850000000  0.4351390000000  0.4134230000000 1.0
C      1  0.5640820000000  0.5854570000000  0.4867140000000 1.0
C      1  0.4354980000000  0.5863190000000  0.5140270000000 1.0
C      1  0.5650300000000  0.4124290000000  0.5139900000000 1.0
C      1  0.5855810000000  0.4863900000000  0.5642520000000 1.0
C      1  0.4143280000000  0.4860950000000  0.4353420000000 1.0
C      1  0.5875890000000  0.5144160000000  0.4343560000000 1.0
C      1  0.4953970000000  0.4843230000000  0.5247290000000 1.0
C      1  0.5080010000000  0.5178530000000  0.4735640000000 1.0
C      1  0.5039440000000  0.5294200000000  0.5256540000000 1.0
C      1  0.5095460000000  0.5356000000000  0.4973000000000 1.0
C      1  0.5233130000000  0.4903610000000  0.5192780000000 1.0
C      1  0.4947670000000  0.4746940000000  0.4737270000000 1.0
C      1  0.4889580000000  0.4651750000000  0.5014640000000 1.0
C      1  0.5272100000000  0.4730260000000  0.4992250000000 1.0
C      1  0.4688700000000  0.5163870000000  0.5006470000000 1.0
C      1  0.4732250000000  0.5053500000000  0.5237390000000 1.0
C      1  0.5319340000000  0.5009970000000  0.4769860000000 1.0
C      1  0.4656770000000  0.5012180000000  0.4772340000000 1.0
END
