TITL C-2441158-471-646 0.000495162427155699 125000 -9561.70332141527 0 0 65 (C1) n - 1
REM
REM in /home/bkarasulu/work/CARBON/AIRSS/Generating-Clusters/ReaxFF-fromJPCA2015/Units_Real/with-SteepDescent/Higher-Symm
REM
REM
REM
REM
REM
REM ./C.cell (1df0a924f5614ab8850e4351716899ee)
REM
REM compiler GCC version 9.2.1 20190827 (Red Hat 9.2.1-1)
REM options -cpp -mtune=generic -march=x86-64 -g -O0 -fpre-include=/usr/include/finclude/math-vector-fortran.h
REM seed 580806710 2071564453 -1436503969 85685201 -1027759340 -1232448399 1489007188 888874048 -508356925 -329244938 684852093 -1299513349 -1571121842 -1864770960 97541650 1724805226 -1802425049 381243114 -960983025 537103768 -1536007462 117267108 -1987841794 -1375814813 -864603141 -1245232821 -1736416386 1933608063 111854301 1642842951 949204510 2125935486 449014015
REM
CELL 1.54180   50.00000   50.00000   50.00000   90.00000   90.00000   90.00000
LATT -1
SFAC C  
C      1  0.4422100000000  0.4764540000000  0.4890930000000 1.0
C      1  0.4503000000000  0.5292860000000  0.5050210000000 1.0
C      1  0.4465510000000  0.4863070000000  0.5296660000000 1.0
C      1  0.5034460000000  0.4152170000000  0.4990660000000 1.0
C      1  0.5065640000000  0.5449510000000  0.4259690000000 1.0
C      1  0.5064250000000  0.5447460000000  0.5783520000000 1.0
C      1  0.4852280000000  0.4389120000000  0.5396310000000 1.0
C      1  0.4904430000000  0.4946510000000  0.4242350000000 1.0
C      1  0.4892700000000  0.5698110000000  0.5362170000000 1.0
C      1  0.4537940000000  0.4845110000000  0.4425570000000 1.0
C      1  0.4543930000000  0.5333170000000  0.5331630000000 1.0
C      1  0.4448620000000  0.4604000000000  0.5141680000000 1.0
C      1  0.5196170000000  0.4657660000000  0.4487180000000 1.0
C      1  0.5134550000000  0.5624670000000  0.4957990000000 1.0
C      1  0.5124820000000  0.4751300000000  0.5578790000000 1.0
C      1  0.5627500000000  0.5225970000000  0.5242390000000 1.0
C      1  0.5644940000000  0.4690500000000  0.5118000000000 1.0
C      1  0.5658920000000  0.5091070000000  0.4721250000000 1.0
C      1  0.4675780000000  0.5524390000000  0.4923640000000 1.0
C      1  0.4638220000000  0.4815660000000  0.5571850000000 1.0
C      1  0.4513160000000  0.4637700000000  0.4607450000000 1.0
C      1  0.4669520000000  0.5082240000000  0.4358210000000 1.0
C      1  0.4689370000000  0.5528570000000  0.5476300000000 1.0
C      1  0.4684310000000  0.4437730000000  0.5162790000000 1.0
C      1  0.5259090000000  0.4715620000000  0.5339040000000 1.0
C      1  0.5253990000000  0.4895630000000  0.4622630000000 1.0
C      1  0.5241300000000  0.5416670000000  0.5104780000000 1.0
C      1  0.5532130000000  0.5385940000000  0.5049400000000 1.0
C      1  0.5549380000000  0.4776910000000  0.5355280000000 1.0
C      1  0.5540370000000  0.4851790000000  0.4694040000000 1.0
C      1  0.5297630000000  0.4230260000000  0.5070930000000 1.0
C      1  0.5323250000000  0.5324320000000  0.4318690000000 1.0
C      1  0.5318960000000  0.5449480000000  0.5650830000000 1.0
C      1  0.4820440000000  0.5283040000000  0.5382840000000 1.0
C      1  0.4901630000000  0.4545130000000  0.4989150000000 1.0
C      1  0.4812670000000  0.5187890000000  0.4603710000000 1.0
C      1  0.4972650000000  0.5156720000000  0.5816230000000 1.0
C      1  0.4953040000000  0.4365420000000  0.4743420000000 1.0
C      1  0.4968060000000  0.5593900000000  0.4498070000000 1.0
C      1  0.5621690000000  0.5361990000000  0.4749410000000 1.0
C      1  0.5621710000000  0.5062680000000  0.5460750000000 1.0
C      1  0.5623380000000  0.4598510000000  0.4862670000000 1.0
C      1  0.5407210000000  0.5452480000000  0.4568660000000 1.0
C      1  0.5406420000000  0.5168710000000  0.5635360000000 1.0
C      1  0.5413180000000  0.4389360000000  0.4852490000000 1.0
C      1  0.4944930000000  0.4682730000000  0.4372160000000 1.0
C      1  0.4878120000000  0.5668140000000  0.5067980000000 1.0
C      1  0.4866960000000  0.4628920000000  0.5570390000000 1.0
C      1  0.5194030000000  0.4989890000000  0.5716560000000 1.0
C      1  0.5219640000000  0.4431210000000  0.4645460000000 1.0
C      1  0.5192210000000  0.5615200000000  0.4679780000000 1.0
C      1  0.5033150000000  0.5050340000000  0.4732460000000 1.0
C      1  0.5043030000000  0.5229790000000  0.5204930000000 1.0
C      1  0.5087180000000  0.4734150000000  0.5105040000000 1.0
C      1  0.4745630000000  0.5475610000000  0.4651350000000 1.0
C      1  0.4765310000000  0.5008440000000  0.5705800000000 1.0
C      1  0.4771180000000  0.4523150000000  0.4540220000000 1.0
C      1  0.4166450000000  0.4931060000000  0.4935720000000 1.0
C      1  0.4205850000000  0.5201950000000  0.5024910000000 1.0
C      1  0.4188190000000  0.4990700000000  0.5216150000000 1.0
C      1  0.5102420000000  0.5163470000000  0.4198340000000 1.0
C      1  0.5098020000000  0.5637150000000  0.5564620000000 1.0
C      1  0.5059020000000  0.4223550000000  0.5270410000000 1.0
C      1  0.4615300000000  0.4985250000000  0.5050860000000 1.0
C      1  0.4946840000000  0.4998120000000  0.5029550000000 1.0
END
