TITL C-2441168-9922-496 0.0100125998404693 125000 -14021.9431989292 0 0 96 (C1) n - 1
REM
REM in /home/bkarasulu/work/CARBON/AIRSS/Generating-Clusters/ReaxFF-fromJPCA2015/Units_Real/with-SteepDescent/Higher-Symm
REM
REM
REM
REM
REM
REM ./C.cell (1df0a924f5614ab8850e4351716899ee)
REM
REM compiler GCC version 9.2.1 20190827 (Red Hat 9.2.1-1)
REM options -cpp -mtune=generic -march=x86-64 -g -O0 -fpre-include=/usr/include/finclude/math-vector-fortran.h
REM seed -1939091564 -2076001851 -1464485623 8388359 1931741994 -428381442 -2077559332 1287138704 -112456351 -584182245 689476911 1107518990 613591988 1119007054 -596169100 -242161470 1594205882 -447481793 -1619000721 370529056 -689958312 1448240710 -1353467091 -1495400489 419919581 617090183 1126741655 -1364582052 1356391164 -616859177 1754932455 881883811 984589319
REM
CELL 1.54180   50.00000   50.00000   50.00000   90.00000   90.00000   90.00000
LATT -1
SFAC C  
C      1  0.5201050000000  0.5210310000000  0.4166110000000 1.0
C      1  0.5281260000000  0.4926780000000  0.4162610000000 1.0
C      1  0.5084700000000  0.4712930000000  0.4161870000000 1.0
C      1  0.4788290000000  0.4779640000000  0.4151810000000 1.0
C      1  0.4705310000000  0.5069900000000  0.4159260000000 1.0
C      1  0.4910230000000  0.5282340000000  0.4167210000000 1.0
C      1  0.5054780000000  0.5444100000000  0.5232970000000 1.0
C      1  0.5443300000000  0.5190090000000  0.5213910000000 1.0
C      1  0.5362950000000  0.4729030000000  0.5255730000000 1.0
C      1  0.4939050000000  0.4554000000000  0.5244450000000 1.0
C      1  0.4563400000000  0.4809200000000  0.5212700000000 1.0
C      1  0.4627780000000  0.5266070000000  0.5249150000000 1.0
C      1  0.4602630000000  0.4340810000000  0.4702430000000 1.0
C      1  0.4222680000000  0.5013950000000  0.4704100000000 1.0
C      1  0.4628450000000  0.5672810000000  0.4709860000000 1.0
C      1  0.5398770000000  0.5674550000000  0.4700020000000 1.0
C      1  0.5803770000000  0.5006260000000  0.4664250000000 1.0
C      1  0.5373690000000  0.4313230000000  0.4707420000000 1.0
C      1  0.5172630000000  0.4576680000000  0.5386300000000 1.0
C      1  0.4712770000000  0.4657860000000  0.5388780000000 1.0
C      1  0.4561090000000  0.5028060000000  0.5388610000000 1.0
C      1  0.4820390000000  0.5415440000000  0.5380990000000 1.0
C      1  0.5277510000000  0.5336050000000  0.5374000000000 1.0
C      1  0.5431790000000  0.4969630000000  0.5393500000000 1.0
C      1  0.5692860000000  0.4624430000000  0.4943110000000 1.0
C      1  0.5029970000000  0.4198100000000  0.4941010000000 1.0
C      1  0.4308180000000  0.4569440000000  0.4926950000000 1.0
C      1  0.4290650000000  0.5370720000000  0.4940100000000 1.0
C      1  0.4970540000000  0.5805740000000  0.4940500000000 1.0
C      1  0.5693360000000  0.5440380000000  0.4928240000000 1.0
C      1  0.5395490000000  0.4567680000000  0.5729830000000 1.0
C      1  0.4820090000000  0.4443280000000  0.5717950000000 1.0
C      1  0.4419290000000  0.4870340000000  0.5731010000000 1.0
C      1  0.4600210000000  0.5428710000000  0.5726840000000 1.0
C      1  0.5171510000000  0.5550010000000  0.5709890000000 1.0
C      1  0.5570350000000  0.5136030000000  0.5740150000000 1.0
C      1  0.4702060000000  0.4888930000000  0.4693690000000 1.0
C      1  0.4747910000000  0.5183600000000  0.4705390000000 1.0
C      1  0.5063680000000  0.5303630000000  0.4716090000000 1.0
C      1  0.5312020000000  0.5119080000000  0.4694650000000 1.0
C      1  0.5248380000000  0.4793550000000  0.4699770000000 1.0
C      1  0.4965270000000  0.4687280000000  0.4698500000000 1.0
C      1  0.4772450000000  0.5173880000000  0.4997090000000 1.0
C      1  0.5019910000000  0.5286800000000  0.4999220000000 1.0
C      1  0.5412960000000  0.5042510000000  0.4962070000000 1.0
C      1  0.5245110000000  0.4821820000000  0.4998460000000 1.0
C      1  0.4971220000000  0.4736690000000  0.5005510000000 1.0
C      1  0.4740210000000  0.4895870000000  0.4989350000000 1.0
C      1  0.5701360000000  0.5001400000000  0.5500570000000 1.0
C      1  0.5341070000000  0.4372880000000  0.5499160000000 1.0
C      1  0.4624980000000  0.4397750000000  0.5489940000000 1.0
C      1  0.4285560000000  0.5005440000000  0.5492300000000 1.0
C      1  0.4656140000000  0.5620830000000  0.5495820000000 1.0
C      1  0.5366610000000  0.5593430000000  0.5482700000000 1.0
C      1  0.5740920000000  0.4912530000000  0.4973780000000 1.0
C      1  0.5319130000000  0.4214270000000  0.4975860000000 1.0
C      1  0.4478990000000  0.4333350000000  0.4964750000000 1.0
C      1  0.4160310000000  0.5114400000000  0.4971950000000 1.0
C      1  0.4680350000000  0.5780510000000  0.4975070000000 1.0
C      1  0.5522600000000  0.5674080000000  0.4963830000000 1.0
C      1  0.4623060000000  0.4626760000000  0.4308900000000 1.0
C      1  0.4436230000000  0.5142320000000  0.4261430000000 1.0
C      1  0.4840550000000  0.5553320000000  0.4266900000000 1.0
C      1  0.5394590000000  0.5417730000000  0.4251940000000 1.0
C      1  0.5560680000000  0.4844680000000  0.4245100000000 1.0
C      1  0.5159660000000  0.4444780000000  0.4265630000000 1.0
C      1  0.5533820000000  0.5502580000000  0.4497320000000 1.0
C      1  0.5680000000000  0.4765270000000  0.4496990000000 1.0
C      1  0.5152300000000  0.4291680000000  0.4515890000000 1.0
C      1  0.4467450000000  0.4518480000000  0.4505430000000 1.0
C      1  0.4313450000000  0.5222940000000  0.4516300000000 1.0
C      1  0.4852050000000  0.5701540000000  0.4520690000000 1.0
C      1  0.4908070000000  0.4355180000000  0.4699950000000 1.0
C      1  0.4390900000000  0.4759830000000  0.4695710000000 1.0
C      1  0.4495070000000  0.5394130000000  0.4700630000000 1.0
C      1  0.5097520000000  0.5645170000000  0.4702810000000 1.0
C      1  0.5615100000000  0.5274130000000  0.4677920000000 1.0
C      1  0.5517250000000  0.4589650000000  0.4694360000000 1.0
C      1  0.4602560000000  0.4248210000000  0.5226770000000 1.0
C      1  0.4140130000000  0.4959800000000  0.5231990000000 1.0
C      1  0.4537910000000  0.5715490000000  0.5231450000000 1.0
C      1  0.5395580000000  0.5753340000000  0.5225650000000 1.0
C      1  0.5837170000000  0.5046910000000  0.5234510000000 1.0
C      1  0.5458720000000  0.4277480000000  0.5235740000000 1.0
C      1  0.4782060000000  0.5217380000000  0.5812150000000 1.0
C      1  0.5080590000000  0.5289690000000  0.5809860000000 1.0
C      1  0.5294330000000  0.5074160000000  0.5818510000000 1.0
C      1  0.5212400000000  0.4778140000000  0.5811560000000 1.0
C      1  0.4913020000000  0.4705570000000  0.5809720000000 1.0
C      1  0.4701310000000  0.4923200000000  0.5815170000000 1.0
C      1  0.5600400000000  0.4520670000000  0.5193830000000 1.0
C      1  0.4883250000000  0.4243670000000  0.5186520000000 1.0
C      1  0.4259630000000  0.4708600000000  0.5175510000000 1.0
C      1  0.4393630000000  0.5473760000000  0.5191120000000 1.0
C      1  0.5116460000000  0.5766840000000  0.5185430000000 1.0
C      1  0.5743160000000  0.5307830000000  0.5181510000000 1.0
END
