TITL C-2441157-2117-470 0.00118583627210613 125000 -1729.30064019596 0 0 13 (C1) n - 1
REM
REM in /home/bkarasulu/work/CARBON/AIRSS/Generating-Clusters/ReaxFF-fromJPCA2015/Units_Real/with-SteepDescent/Higher-Symm
REM
REM
REM
REM
REM
REM ./C.cell (1df0a924f5614ab8850e4351716899ee)
REM
REM compiler GCC version 9.2.1 20190827 (Red Hat 9.2.1-1)
REM options -cpp -mtune=generic -march=x86-64 -g -O0 -fpre-include=/usr/include/finclude/math-vector-fortran.h
REM seed 864679431 -804571081 1796581408 -1125963432 1537680777 2033808386 -1259625155 131641486 1862524172 1385075239 -184828888 1866408635 -977544353 -211653919 2107317397 612880379 -192624272 -426378375 -1356883975 -2041874713 435837374 -1723872930 753486704 -1282616992 -685890269 573674183 -911809622 -1452725761 1865616100 272848774 2104940196 -2001938236 57107830
REM
CELL 1.54180   50.00000   50.00000   50.00000   90.00000   90.00000   90.00000
LATT -1
SFAC C  
C      1  0.4797080000000  0.4948370000000  0.4752890000000 1.0
C      1  0.4776520000000  0.5021830000000  0.5261200000000 1.0
C      1  0.5229920000000  0.5007860000000  0.4725570000000 1.0
C      1  0.5173800000000  0.4961080000000  0.5183190000000 1.0
C      1  0.4523120000000  0.4960100000000  0.5137410000000 1.0
C      1  0.4512010000000  0.4952880000000  0.4828680000000 1.0
C      1  0.5469220000000  0.4936810000000  0.5118040000000 1.0
C      1  0.5516510000000  0.4984070000000  0.4827550000000 1.0
C      1  0.5132510000000  0.5077370000000  0.5461350000000 1.0
C      1  0.5156800000000  0.4938210000000  0.4437450000000 1.0
C      1  0.4837080000000  0.5114960000000  0.5536390000000 1.0
C      1  0.4862170000000  0.4900330000000  0.4458630000000 1.0
C      1  0.5025480000000  0.5022790000000  0.4928110000000 1.0
END
