TITL C-2441167-4473-118 0.0111288304138851 125000 -9331.76409034229 0 0 65 (C1) n - 1
REM
REM in /home/bkarasulu/work/CARBON/AIRSS/Generating-Clusters/ReaxFF-fromJPCA2015/Units_Real/with-SteepDescent/Higher-Symm
REM
REM
REM
REM
REM
REM ./C.cell (1df0a924f5614ab8850e4351716899ee)
REM
REM compiler GCC version 9.2.1 20190827 (Red Hat 9.2.1-1)
REM options -cpp -mtune=generic -march=x86-64 -g -O0 -fpre-include=/usr/include/finclude/math-vector-fortran.h
REM seed 445260702 -2028786862 -1057065765 -685681903 -636052678 399681762 -1527338910 1842133787 -1325803763 1480479863 1112951077 -916033081 -651976193 642083237 281471765 -1003479056 -1523734537 427374839 1588444043 1801035366 -1543346029 -622726237 520281925 -660844831 460095044 -1925547754 -1395166915 -723110012 -2096390067 -2008616776 1787489014 1869435591 1535843592
REM
CELL 1.54180   50.00000   50.00000   50.00000   90.00000   90.00000   90.00000
LATT -1
SFAC C  
C      1  0.5139840000000  0.5320810000000  0.4383770000000 1.0
C      1  0.5144720000000  0.4682710000000  0.5628750000000 1.0
C      1  0.4846560000000  0.5321610000000  0.4388390000000 1.0
C      1  0.4845660000000  0.4695460000000  0.5621160000000 1.0
C      1  0.5144400000000  0.5322980000000  0.5625140000000 1.0
C      1  0.5137020000000  0.4684390000000  0.4381670000000 1.0
C      1  0.4845730000000  0.5309770000000  0.5617430000000 1.0
C      1  0.4843540000000  0.4681890000000  0.4388730000000 1.0
C      1  0.5584380000000  0.4684810000000  0.5307510000000 1.0
C      1  0.5601170000000  0.5327130000000  0.4677680000000 1.0
C      1  0.4472250000000  0.4731990000000  0.5271990000000 1.0
C      1  0.4404960000000  0.5321060000000  0.4703570000000 1.0
C      1  0.5590410000000  0.4682830000000  0.4683740000000 1.0
C      1  0.5580540000000  0.5318740000000  0.5305220000000 1.0
C      1  0.4405340000000  0.4684340000000  0.4701730000000 1.0
C      1  0.4468350000000  0.5274500000000  0.5275090000000 1.0
C      1  0.4245980000000  0.4864310000000  0.5148920000000 1.0
C      1  0.4227590000000  0.5152040000000  0.4857630000000 1.0
C      1  0.5757390000000  0.4853630000000  0.5150270000000 1.0
C      1  0.5761290000000  0.5151810000000  0.4848190000000 1.0
C      1  0.4228600000000  0.4852240000000  0.4857540000000 1.0
C      1  0.4244330000000  0.5139280000000  0.5150210000000 1.0
C      1  0.5759670000000  0.4854240000000  0.4848350000000 1.0
C      1  0.5757670000000  0.5152730000000  0.5149990000000 1.0
C      1  0.4489020000000  0.4442220000000  0.4843610000000 1.0
C      1  0.4506250000000  0.5555640000000  0.5153890000000 1.0
C      1  0.5501130000000  0.4450910000000  0.4841050000000 1.0
C      1  0.5495050000000  0.5553180000000  0.5156600000000 1.0
C      1  0.4509910000000  0.4449910000000  0.5149670000000 1.0
C      1  0.4491400000000  0.5560840000000  0.4846970000000 1.0
C      1  0.5499840000000  0.4449040000000  0.5159160000000 1.0
C      1  0.5502000000000  0.5553540000000  0.4838490000000 1.0
C      1  0.5301120000000  0.5705220000000  0.4692950000000 1.0
C      1  0.5302360000000  0.4300450000000  0.5311040000000 1.0
C      1  0.4693630000000  0.5713630000000  0.4696610000000 1.0
C      1  0.4695560000000  0.4288760000000  0.5300680000000 1.0
C      1  0.5299400000000  0.5705140000000  0.5308270000000 1.0
C      1  0.5301790000000  0.4300600000000  0.4692120000000 1.0
C      1  0.4692490000000  0.5717510000000  0.5304240000000 1.0
C      1  0.4690210000000  0.4287490000000  0.4693920000000 1.0
C      1  0.4841270000000  0.4394700000000  0.4456620000000 1.0
C      1  0.4844380000000  0.5599060000000  0.5543450000000 1.0
C      1  0.5146090000000  0.4399710000000  0.4450350000000 1.0
C      1  0.5142930000000  0.5605430000000  0.5550110000000 1.0
C      1  0.4845400000000  0.4407670000000  0.5541720000000 1.0
C      1  0.4841360000000  0.5608520000000  0.4456470000000 1.0
C      1  0.5143460000000  0.4400520000000  0.5551420000000 1.0
C      1  0.5146450000000  0.5605980000000  0.4450410000000 1.0
C      1  0.4624210000000  0.4863220000000  0.5527600000000 1.0
C      1  0.4627010000000  0.5179050000000  0.4552020000000 1.0
C      1  0.5355220000000  0.4823830000000  0.5460510000000 1.0
C      1  0.5363610000000  0.5171720000000  0.4531030000000 1.0
C      1  0.4633760000000  0.4823680000000  0.4561220000000 1.0
C      1  0.4622610000000  0.5143450000000  0.5528380000000 1.0
C      1  0.5353390000000  0.4835910000000  0.4540040000000 1.0
C      1  0.5362610000000  0.5177880000000  0.5472090000000 1.0
C      1  0.5242890000000  0.4856150000000  0.4814320000000 1.0
C      1  0.5178260000000  0.5125980000000  0.5254030000000 1.0
C      1  0.4788960000000  0.4859900000000  0.4822280000000 1.0
C      1  0.4706930000000  0.5148850000000  0.5099410000000 1.0
C      1  0.5183830000000  0.4857410000000  0.5219780000000 1.0
C      1  0.5272950000000  0.5136220000000  0.4798740000000 1.0
C      1  0.4713920000000  0.4866120000000  0.5103220000000 1.0
C      1  0.4770050000000  0.5142760000000  0.4817190000000 1.0
C      1  0.5102100000000  0.5053540000000  0.4994340000000 1.0
END
