TITL C-2441157-2117-730 0.044417218553896 125000 -25365.0931930573 0 0 177 (C1) n - 1
REM
REM in /home/bkarasulu/work/CARBON/AIRSS/Generating-Clusters/ReaxFF-fromJPCA2015/Units_Real/with-SteepDescent/Higher-Symm
REM
REM
REM
REM
REM
REM ./C.cell (1df0a924f5614ab8850e4351716899ee)
REM
REM compiler GCC version 9.2.1 20190827 (Red Hat 9.2.1-1)
REM options -cpp -mtune=generic -march=x86-64 -g -O0 -fpre-include=/usr/include/finclude/math-vector-fortran.h
REM seed 2025853516 1827261876 1679944040 1008018429 1449257207 747361201 1857387805 -2144016278 -857245450 -213792084 528988336 1006051330 1252398310 1114818161 1956095123 -1023778105 1458969285 1402149880 2131355768 -1643204590 632437360 -1795603171 -941675840 -765133021 130199150 -800207060 514383962 -572384776 1904972789 -2079863798 1204899814 1695773031 -1029048824
REM
CELL 1.54180   50.00000   50.00000   50.00000   90.00000   90.00000   90.00000
LATT -1
SFAC C  
C      1  0.4616720000000  0.5440220000000  0.4988700000000 1.0
C      1  0.5398030000000  0.5455250000000  0.5004820000000 1.0
C      1  0.5843710000000  0.4625770000000  0.4532600000000 1.0
C      1  0.4139630000000  0.4667150000000  0.4450890000000 1.0
C      1  0.5576370000000  0.4534590000000  0.5483330000000 1.0
C      1  0.4374150000000  0.4520850000000  0.5561200000000 1.0
C      1  0.5460210000000  0.4295020000000  0.4614220000000 1.0
C      1  0.4533440000000  0.4333420000000  0.4545030000000 1.0
C      1  0.4875010000000  0.5577060000000  0.4871040000000 1.0
C      1  0.5124200000000  0.5524510000000  0.5030200000000 1.0
C      1  0.5262740000000  0.5577970000000  0.5951070000000 1.0
C      1  0.4726720000000  0.5572430000000  0.5974050000000 1.0
C      1  0.5141240000000  0.5427330000000  0.4020960000000 1.0
C      1  0.4866780000000  0.5389750000000  0.4066040000000 1.0
C      1  0.5201790000000  0.4919420000000  0.3967760000000 1.0
C      1  0.4803480000000  0.4818890000000  0.3957400000000 1.0
C      1  0.4819130000000  0.5049200000000  0.5073350000000 1.0
C      1  0.5136770000000  0.5060240000000  0.5077630000000 1.0
C      1  0.5285780000000  0.5201250000000  0.3925160000000 1.0
C      1  0.4742670000000  0.5139170000000  0.4004850000000 1.0
C      1  0.4817200000000  0.4813470000000  0.5514590000000 1.0
C      1  0.5144760000000  0.4733740000000  0.5444680000000 1.0
C      1  0.5814620000000  0.5438610000000  0.4398030000000 1.0
C      1  0.4196500000000  0.5422490000000  0.4444200000000 1.0
C      1  0.5161260000000  0.6065410000000  0.5295560000000 1.0
C      1  0.4909840000000  0.6022080000000  0.5306570000000 1.0
C      1  0.4684950000000  0.5865880000000  0.5309210000000 1.0
C      1  0.5301350000000  0.5841120000000  0.5330820000000 1.0
C      1  0.4022570000000  0.4661530000000  0.4722240000000 1.0
C      1  0.5969620000000  0.4630920000000  0.4806110000000 1.0
C      1  0.5497520000000  0.5713510000000  0.5855620000000 1.0
C      1  0.4532110000000  0.5713320000000  0.5827840000000 1.0
C      1  0.5386730000000  0.4726630000000  0.5615040000000 1.0
C      1  0.4572040000000  0.4708540000000  0.5670700000000 1.0
C      1  0.4852860000000  0.5371850000000  0.6131490000000 1.0
C      1  0.5138280000000  0.5396380000000  0.6140360000000 1.0
C      1  0.5568700000000  0.5214010000000  0.4025860000000 1.0
C      1  0.4498420000000  0.5205090000000  0.4122620000000 1.0
C      1  0.5859720000000  0.4235230000000  0.5200240000000 1.0
C      1  0.4134600000000  0.4180990000000  0.5173090000000 1.0
C      1  0.4401870000000  0.4915690000000  0.4880510000000 1.0
C      1  0.5504410000000  0.4836490000000  0.4799460000000 1.0
C      1  0.4825670000000  0.4828350000000  0.6028990000000 1.0
C      1  0.5289340000000  0.4936350000000  0.5979020000000 1.0
C      1  0.5119150000000  0.3948420000000  0.4717740000000 1.0
C      1  0.4837800000000  0.3924190000000  0.4611690000000 1.0
C      1  0.5343500000000  0.5598500000000  0.4224120000000 1.0
C      1  0.4699870000000  0.5571660000000  0.4305550000000 1.0
C      1  0.4609030000000  0.5839810000000  0.4386660000000 1.0
C      1  0.5382350000000  0.5868420000000  0.4384760000000 1.0
C      1  0.5573820000000  0.5862200000000  0.4603730000000 1.0
C      1  0.4411890000000  0.5867110000000  0.4594480000000 1.0
C      1  0.5227920000000  0.5046920000000  0.5373660000000 1.0
C      1  0.4743740000000  0.5061940000000  0.5353220000000 1.0
C      1  0.4896900000000  0.4064510000000  0.4389200000000 1.0
C      1  0.5139460000000  0.4167500000000  0.4299940000000 1.0
C      1  0.4900300000000  0.4926100000000  0.5770480000000 1.0
C      1  0.5132730000000  0.5082020000000  0.5774830000000 1.0
C      1  0.5881590000000  0.4608410000000  0.5461940000000 1.0
C      1  0.4113960000000  0.4640420000000  0.5518420000000 1.0
C      1  0.5640720000000  0.5041190000000  0.5649390000000 1.0
C      1  0.4364610000000  0.5051980000000  0.5623540000000 1.0
C      1  0.4166460000000  0.5680880000000  0.4568820000000 1.0
C      1  0.5801370000000  0.5678650000000  0.4582640000000 1.0
C      1  0.3989110000000  0.4865310000000  0.5383630000000 1.0
C      1  0.5997100000000  0.4858190000000  0.5378490000000 1.0
C      1  0.5117330000000  0.5266400000000  0.5556430000000 1.0
C      1  0.4838940000000  0.5352830000000  0.5514410000000 1.0
C      1  0.4457990000000  0.5891440000000  0.5102030000000 1.0
C      1  0.5510850000000  0.5915560000000  0.5135170000000 1.0
C      1  0.5207050000000  0.5256290000000  0.4565720000000 1.0
C      1  0.4911790000000  0.5101450000000  0.4607900000000 1.0
C      1  0.5150750000000  0.6022250000000  0.4783620000000 1.0
C      1  0.4859190000000  0.5887400000000  0.4838170000000 1.0
C      1  0.5212240000000  0.4006240000000  0.5011300000000 1.0
C      1  0.4741640000000  0.4059960000000  0.5125870000000 1.0
C      1  0.4036260000000  0.5268710000000  0.5003900000000 1.0
C      1  0.5895270000000  0.5275970000000  0.4990700000000 1.0
C      1  0.5399710000000  0.4087730000000  0.5450960000000 1.0
C      1  0.4752690000000  0.4205410000000  0.5600040000000 1.0
C      1  0.4552280000000  0.4039320000000  0.4611820000000 1.0
C      1  0.5305220000000  0.4067060000000  0.4534500000000 1.0
C      1  0.5185140000000  0.4401790000000  0.5815660000000 1.0
C      1  0.4885900000000  0.4375530000000  0.5793350000000 1.0
C      1  0.5706910000000  0.4356540000000  0.4988820000000 1.0
C      1  0.4146560000000  0.4212800000000  0.4895880000000 1.0
C      1  0.5628360000000  0.4802770000000  0.5054960000000 1.0
C      1  0.4396320000000  0.4664800000000  0.5034090000000 1.0
C      1  0.5110350000000  0.4910540000000  0.4246520000000 1.0
C      1  0.4852540000000  0.4959830000000  0.4367710000000 1.0
C      1  0.6041960000000  0.4898060000000  0.4885400000000 1.0
C      1  0.3906160000000  0.4893120000000  0.4861800000000 1.0
C      1  0.5945290000000  0.4484370000000  0.5070910000000 1.0
C      1  0.4162040000000  0.4511520000000  0.4933960000000 1.0
C      1  0.4323520000000  0.4071230000000  0.5349400000000 1.0
C      1  0.5633580000000  0.4061700000000  0.5260940000000 1.0
C      1  0.5513390000000  0.4575340000000  0.5190000000000 1.0
C      1  0.4654870000000  0.4567430000000  0.5099070000000 1.0
C      1  0.5942730000000  0.5520350000000  0.5142290000000 1.0
C      1  0.4013960000000  0.5542200000000  0.5120750000000 1.0
C      1  0.5115850000000  0.4324680000000  0.4997130000000 1.0
C      1  0.4796410000000  0.4331220000000  0.4986500000000 1.0
C      1  0.5612710000000  0.4145030000000  0.4794870000000 1.0
C      1  0.4369450000000  0.4018780000000  0.4837810000000 1.0
C      1  0.6031930000000  0.5429970000000  0.5411550000000 1.0
C      1  0.4049290000000  0.5452540000000  0.5390660000000 1.0
C      1  0.4869360000000  0.5080250000000  0.6181800000000 1.0
C      1  0.5162020000000  0.5103210000000  0.6185570000000 1.0
C      1  0.4870750000000  0.5891850000000  0.4523320000000 1.0
C      1  0.5164340000000  0.6015800000000  0.4498020000000 1.0
C      1  0.5137480000000  0.4443120000000  0.4186060000000 1.0
C      1  0.4881800000000  0.4574390000000  0.4107320000000 1.0
C      1  0.5459040000000  0.4776020000000  0.4029030000000 1.0
C      1  0.4522150000000  0.4739170000000  0.3968700000000 1.0
C      1  0.4335440000000  0.5294830000000  0.5770680000000 1.0
C      1  0.5681470000000  0.5299620000000  0.5782810000000 1.0
C      1  0.5432640000000  0.5449170000000  0.5783530000000 1.0
C      1  0.4607760000000  0.5421960000000  0.5765900000000 1.0
C      1  0.4741700000000  0.4452160000000  0.4695250000000 1.0
C      1  0.5228200000000  0.4423420000000  0.4753390000000 1.0
C      1  0.5932000000000  0.5184190000000  0.4479440000000 1.0
C      1  0.4038160000000  0.5172290000000  0.4469960000000 1.0
C      1  0.5536180000000  0.5392410000000  0.5270940000000 1.0
C      1  0.4491170000000  0.5397920000000  0.5242680000000 1.0
C      1  0.4118010000000  0.5467560000000  0.5677840000000 1.0
C      1  0.5907240000000  0.5458840000000  0.5679110000000 1.0
C      1  0.4113920000000  0.4926110000000  0.4331230000000 1.0
C      1  0.5812890000000  0.4924410000000  0.4372670000000 1.0
C      1  0.5117710000000  0.4759310000000  0.4999410000000 1.0
C      1  0.4824290000000  0.4769700000000  0.4991670000000 1.0
C      1  0.4884320000000  0.4045090000000  0.5380680000000 1.0
C      1  0.5158480000000  0.3994750000000  0.5314400000000 1.0
C      1  0.4711880000000  0.4590400000000  0.5900680000000 1.0
C      1  0.5327670000000  0.4654240000000  0.5894510000000 1.0
C      1  0.5393590000000  0.4310400000000  0.5636640000000 1.0
C      1  0.4470000000000  0.4247700000000  0.5539050000000 1.0
C      1  0.5126050000000  0.5595000000000  0.5315920000000 1.0
C      1  0.4839810000000  0.5617130000000  0.5374200000000 1.0
C      1  0.4289170000000  0.5699120000000  0.5682410000000 1.0
C      1  0.5732310000000  0.5699060000000  0.5679080000000 1.0
C      1  0.4611010000000  0.5177120000000  0.4894620000000 1.0
C      1  0.5354110000000  0.5065470000000  0.4885860000000 1.0
C      1  0.5670900000000  0.4954070000000  0.4102240000000 1.0
C      1  0.4354930000000  0.4946300000000  0.4143910000000 1.0
C      1  0.3998110000000  0.5000040000000  0.5125430000000 1.0
C      1  0.5858560000000  0.4977020000000  0.5125080000000 1.0
C      1  0.5515540000000  0.5134410000000  0.5396590000000 1.0
C      1  0.4466660000000  0.5138800000000  0.5363890000000 1.0
C      1  0.6023310000000  0.5162370000000  0.4752940000000 1.0
C      1  0.3930820000000  0.5160270000000  0.4742070000000 1.0
C      1  0.4474320000000  0.4893760000000  0.4634740000000 1.0
C      1  0.5555570000000  0.4920470000000  0.4525280000000 1.0
C      1  0.4475250000000  0.3954130000000  0.5109080000000 1.0
C      1  0.5512390000000  0.3993790000000  0.5011690000000 1.0
C      1  0.5412720000000  0.5306380000000  0.4768160000000 1.0
C      1  0.4670890000000  0.5256320000000  0.4631980000000 1.0
C      1  0.4565620000000  0.4515390000000  0.4140150000000 1.0
C      1  0.5419700000000  0.4547390000000  0.4204720000000 1.0
C      1  0.5168540000000  0.5502830000000  0.4442930000000 1.0
C      1  0.4916870000000  0.5598620000000  0.4527040000000 1.0
C      1  0.4502870000000  0.5353880000000  0.4390630000000 1.0
C      1  0.5606130000000  0.5442580000000  0.4193240000000 1.0
C      1  0.5417460000000  0.5955080000000  0.4858080000000 1.0
C      1  0.4558980000000  0.5936920000000  0.4841820000000 1.0
C      1  0.5767670000000  0.5772360000000  0.5176000000000 1.0
C      1  0.4192880000000  0.5777150000000  0.5146750000000 1.0
C      1  0.4852690000000  0.4716900000000  0.4694140000000 1.0
C      1  0.5142660000000  0.4689510000000  0.4707130000000 1.0
C      1  0.5872950000000  0.4848480000000  0.5634760000000 1.0
C      1  0.4128600000000  0.4904230000000  0.5618350000000 1.0
C      1  0.4322340000000  0.5616940000000  0.5366940000000 1.0
C      1  0.5648120000000  0.5635890000000  0.5400240000000 1.0
C      1  0.5322990000000  0.5031850000000  0.4401880000000 1.0
C      1  0.4565150000000  0.4882930000000  0.4388250000000 1.0
C      1  0.4366780000000  0.4487980000000  0.4354810000000 1.0
C      1  0.5620390000000  0.4490990000000  0.4414010000000 1.0
C      1  0.5218310000000  0.4568850000000  0.5192490000000 1.0
END
