TITL C-2441156-4686-1461 0.0122507532937126 125000 -13080.4468450528 0 0 92 (C1) n - 1
REM
REM in /home/bkarasulu/work/CARBON/AIRSS/Generating-Clusters/ReaxFF-fromJPCA2015/Units_Real/with-SteepDescent/Higher-Symm
REM
REM
REM
REM
REM
REM ./C.cell (1df0a924f5614ab8850e4351716899ee)
REM
REM compiler GCC version 9.2.1 20190827 (Red Hat 9.2.1-1)
REM options -cpp -mtune=generic -march=x86-64 -g -O0 -fpre-include=/usr/include/finclude/math-vector-fortran.h
REM seed 2004793807 -1485526466 1541665095 1563392013 -98090424 776411797 -1559723721 1851585634 351858962 115835629 1881683958 -879572900 1809616957 -1009950229 -1520136798 -258660063 472833454 -595755370 1112873435 1404710139 -1505574765 534922893 512519881 5533486 -2140662381 935088516 431350156 -54555733 784865488 -1508582778 1792212436 -1889369553 -583630291
REM
CELL 1.54180   50.00000   50.00000   50.00000   90.00000   90.00000   90.00000
LATT -1
SFAC C  
C      1  0.5303760000000  0.5736160000000  0.4997150000000 1.0
C      1  0.5151720000000  0.5746720000000  0.4740250000000 1.0
C      1  0.4855860000000  0.5738400000000  0.4744170000000 1.0
C      1  0.4750160000000  0.5675810000000  0.5013800000000 1.0
C      1  0.4873260000000  0.5739260000000  0.5274580000000 1.0
C      1  0.5170930000000  0.5742970000000  0.5262310000000 1.0
C      1  0.5271920000000  0.4302660000000  0.5000710000000 1.0
C      1  0.5141330000000  0.4248370000000  0.5274320000000 1.0
C      1  0.4848920000000  0.4269740000000  0.5253480000000 1.0
C      1  0.4714150000000  0.4264180000000  0.4988020000000 1.0
C      1  0.4871290000000  0.4262890000000  0.4732380000000 1.0
C      1  0.5164810000000  0.4248360000000  0.4728150000000 1.0
C      1  0.4921800000000  0.5148130000000  0.4710740000000 1.0
C      1  0.4755860000000  0.5253820000000  0.4932340000000 1.0
C      1  0.4802900000000  0.5146880000000  0.5215840000000 1.0
C      1  0.5057420000000  0.5285060000000  0.5243200000000 1.0
C      1  0.5284610000000  0.5169620000000  0.5061390000000 1.0
C      1  0.5162340000000  0.5286260000000  0.4815630000000 1.0
C      1  0.4895740000000  0.4875160000000  0.5255830000000 1.0
C      1  0.4722930000000  0.4774190000000  0.5060420000000 1.0
C      1  0.4806220000000  0.4836650000000  0.4791930000000 1.0
C      1  0.5090430000000  0.4732250000000  0.4783120000000 1.0
C      1  0.5292170000000  0.4886330000000  0.4963900000000 1.0
C      1  0.5160440000000  0.4747100000000  0.5193180000000 1.0
C      1  0.5551330000000  0.5469790000000  0.5493470000000 1.0
C      1  0.5694520000000  0.5486910000000  0.4768640000000 1.0
C      1  0.5133470000000  0.5489330000000  0.4289360000000 1.0
C      1  0.4457310000000  0.5500000000000  0.4521370000000 1.0
C      1  0.4330370000000  0.5476340000000  0.5271540000000 1.0
C      1  0.4843340000000  0.5475650000000  0.5727730000000 1.0
C      1  0.5553450000000  0.4514240000000  0.4540190000000 1.0
C      1  0.5668760000000  0.4509500000000  0.5261280000000 1.0
C      1  0.5168020000000  0.4519700000000  0.5732030000000 1.0
C      1  0.4469790000000  0.4544850000000  0.5492980000000 1.0
C      1  0.4309770000000  0.4547290000000  0.4791780000000 1.0
C      1  0.4874960000000  0.4498680000000  0.4287830000000 1.0
C      1  0.5317530000000  0.5333470000000  0.4155280000000 1.0
C      1  0.4430260000000  0.5329680000000  0.4307300000000 1.0
C      1  0.4171090000000  0.5334950000000  0.5087100000000 1.0
C      1  0.4674380000000  0.5285420000000  0.5850700000000 1.0
C      1  0.5578980000000  0.5309890000000  0.5721280000000 1.0
C      1  0.5884580000000  0.5303740000000  0.4851290000000 1.0
C      1  0.5318410000000  0.4743880000000  0.5841050000000 1.0
C      1  0.4420650000000  0.4732390000000  0.5699400000000 1.0
C      1  0.4122580000000  0.4753200000000  0.4846810000000 1.0
C      1  0.4706040000000  0.4710840000000  0.4219330000000 1.0
C      1  0.5516180000000  0.4720020000000  0.4357590000000 1.0
C      1  0.5838020000000  0.4664760000000  0.5095590000000 1.0
C      1  0.5639140000000  0.4469160000000  0.4993860000000 1.0
C      1  0.5295440000000  0.4401530000000  0.4513010000000 1.0
C      1  0.4727630000000  0.4411120000000  0.4522540000000 1.0
C      1  0.4456750000000  0.4397130000000  0.4996420000000 1.0
C      1  0.4738590000000  0.4426520000000  0.5476280000000 1.0
C      1  0.5273900000000  0.4392110000000  0.5489040000000 1.0
C      1  0.5552210000000  0.5585150000000  0.5008640000000 1.0
C      1  0.5285510000000  0.5597060000000  0.5485970000000 1.0
C      1  0.4734090000000  0.5590110000000  0.5482590000000 1.0
C      1  0.4372480000000  0.5534700000000  0.5010730000000 1.0
C      1  0.4737050000000  0.5589220000000  0.4522030000000 1.0
C      1  0.5279370000000  0.5608870000000  0.4517490000000 1.0
C      1  0.5127700000000  0.4901880000000  0.4312780000000 1.0
C      1  0.4455530000000  0.4913130000000  0.4537630000000 1.0
C      1  0.4338770000000  0.4913390000000  0.5256160000000 1.0
C      1  0.4901960000000  0.4904250000000  0.5678070000000 1.0
C      1  0.5541250000000  0.4906280000000  0.5438580000000 1.0
C      1  0.5663900000000  0.4922750000000  0.4748310000000 1.0
C      1  0.5124750000000  0.5086240000000  0.5680750000000 1.0
C      1  0.4450250000000  0.5080150000000  0.5459830000000 1.0
C      1  0.4350960000000  0.5084170000000  0.4744160000000 1.0
C      1  0.4893650000000  0.5074660000000  0.4283530000000 1.0
C      1  0.5543950000000  0.5096860000000  0.4549570000000 1.0
C      1  0.5670790000000  0.5072670000000  0.5244100000000 1.0
C      1  0.5443210000000  0.4624750000000  0.5389540000000 1.0
C      1  0.5560600000000  0.4648250000000  0.4786480000000 1.0
C      1  0.5111940000000  0.4630910000000  0.4442570000000 1.0
C      1  0.4569110000000  0.4652830000000  0.4629210000000 1.0
C      1  0.4468650000000  0.4643250000000  0.5180500000000 1.0
C      1  0.4906770000000  0.4617120000000  0.5626610000000 1.0
C      1  0.5430030000000  0.5368650000000  0.4622520000000 1.0
C      1  0.5557820000000  0.5346300000000  0.5194170000000 1.0
C      1  0.5105100000000  0.5368210000000  0.5570310000000 1.0
C      1  0.4562790000000  0.5355120000000  0.5388780000000 1.0
C      1  0.4477680000000  0.5349460000000  0.4812420000000 1.0
C      1  0.4885700000000  0.5335440000000  0.4435470000000 1.0
C      1  0.5808830000000  0.4949450000000  0.5009800000000 1.0
C      1  0.4606850000000  0.5005190000000  0.5713900000000 1.0
C      1  0.4603860000000  0.4972180000000  0.4271690000000 1.0
C      1  0.5421930000000  0.5002740000000  0.5696820000000 1.0
C      1  0.5419650000000  0.4983540000000  0.4297120000000 1.0
C      1  0.4199240000000  0.5030450000000  0.5017330000000 1.0
C      1  0.4958590000000  0.5450860000000  0.5012140000000 1.0
C      1  0.5097740000000  0.4538010000000  0.5000350000000 1.0
END
