TITL C-2441167-4473-1355 0.0208244325795641 125000 -12299.9948810898 0 0 88 (C1) n - 1
REM
REM in /home/bkarasulu/work/CARBON/AIRSS/Generating-Clusters/ReaxFF-fromJPCA2015/Units_Real/with-SteepDescent/Higher-Symm
REM
REM
REM
REM
REM
REM ./C.cell (1df0a924f5614ab8850e4351716899ee)
REM
REM compiler GCC version 9.2.1 20190827 (Red Hat 9.2.1-1)
REM options -cpp -mtune=generic -march=x86-64 -g -O0 -fpre-include=/usr/include/finclude/math-vector-fortran.h
REM seed -1665581640 -946707896 -188682478 1680460167 -2107583813 1096402850 1556667458 -644933419 2074808305 -469720787 899401551 -1667988215 -58195341 1174174533 -1327541227 128778347 1182103409 359788999 -1747102978 1638695613 752750656 529846750 632279273 313994341 -109394175 862576458 -1787510580 -665843331 -1178153145 990612305 -1544222170 -823063142 2052396544
REM
CELL 1.54180   50.00000   50.00000   50.00000   90.00000   90.00000   90.00000
LATT -1
SFAC C  
C      1  0.5340030000000  0.4302440000000  0.5347900000000 1.0
C      1  0.4795880000000  0.4313840000000  0.5439490000000 1.0
C      1  0.4531220000000  0.4316500000000  0.4935230000000 1.0
C      1  0.4901300000000  0.4308270000000  0.4530410000000 1.0
C      1  0.5421740000000  0.4253480000000  0.4769870000000 1.0
C      1  0.4638390000000  0.5670510000000  0.5331280000000 1.0
C      1  0.5201400000000  0.5684230000000  0.5445590000000 1.0
C      1  0.5476890000000  0.5691010000000  0.4939410000000 1.0
C      1  0.5122480000000  0.5709700000000  0.4543000000000 1.0
C      1  0.4628400000000  0.5666410000000  0.4765360000000 1.0
C      1  0.4465550000000  0.4877510000000  0.5597180000000 1.0
C      1  0.4279110000000  0.4878840000000  0.4675860000000 1.0
C      1  0.5096560000000  0.4867330000000  0.4206960000000 1.0
C      1  0.5767130000000  0.4895620000000  0.4847900000000 1.0
C      1  0.5384890000000  0.4883770000000  0.5682790000000 1.0
C      1  0.5518100000000  0.5118470000000  0.5581780000000 1.0
C      1  0.5690540000000  0.5117580000000  0.4680330000000 1.0
C      1  0.4900100000000  0.5091720000000  0.4203910000000 1.0
C      1  0.4209030000000  0.5097750000000  0.4851530000000 1.0
C      1  0.4595740000000  0.5111320000000  0.5699360000000 1.0
C      1  0.5092360000000  0.5853210000000  0.5262120000000 1.0
C      1  0.4790450000000  0.5847420000000  0.5182860000000 1.0
C      1  0.4795830000000  0.5865680000000  0.4884550000000 1.0
C      1  0.5065480000000  0.5871790000000  0.4772760000000 1.0
C      1  0.5264180000000  0.5854440000000  0.5000280000000 1.0
C      1  0.4903090000000  0.4143190000000  0.5249870000000 1.0
C      1  0.5199350000000  0.4134300000000  0.5178860000000 1.0
C      1  0.5203970000000  0.4125760000000  0.4873360000000 1.0
C      1  0.4918630000000  0.4145770000000  0.4752550000000 1.0
C      1  0.4734110000000  0.4139780000000  0.4994090000000 1.0
C      1  0.5689750000000  0.5353330000000  0.4862310000000 1.0
C      1  0.5348480000000  0.5355480000000  0.5632270000000 1.0
C      1  0.4498470000000  0.5341340000000  0.5539170000000 1.0
C      1  0.4323360000000  0.5329450000000  0.4723840000000 1.0
C      1  0.5049800000000  0.5328940000000  0.4269130000000 1.0
C      1  0.4284430000000  0.4646310000000  0.4862750000000 1.0
C      1  0.4646960000000  0.4648550000000  0.5625330000000 1.0
C      1  0.5494450000000  0.4636530000000  0.5541140000000 1.0
C      1  0.5690210000000  0.4667990000000  0.4684060000000 1.0
C      1  0.4921280000000  0.4643440000000  0.4293270000000 1.0
C      1  0.5099000000000  0.4891940000000  0.5766950000000 1.0
C      1  0.4288140000000  0.4876830000000  0.5340630000000 1.0
C      1  0.4480400000000  0.4879520000000  0.4444250000000 1.0
C      1  0.5390960000000  0.4876630000000  0.4298900000000 1.0
C      1  0.5757500000000  0.4889410000000  0.5154030000000 1.0
C      1  0.4899580000000  0.5105960000000  0.5793950000000 1.0
C      1  0.5684550000000  0.5111140000000  0.5330410000000 1.0
C      1  0.5516090000000  0.5097970000000  0.4440190000000 1.0
C      1  0.4625980000000  0.5100070000000  0.4324800000000 1.0
C      1  0.4205570000000  0.5096480000000  0.5165590000000 1.0
C      1  0.4925480000000  0.5550940000000  0.4408010000000 1.0
C      1  0.5548680000000  0.5542010000000  0.4732580000000 1.0
C      1  0.5359610000000  0.5481470000000  0.5388960000000 1.0
C      1  0.4739750000000  0.5493010000000  0.5502470000000 1.0
C      1  0.4448610000000  0.5498470000000  0.4919550000000 1.0
C      1  0.5101640000000  0.4464710000000  0.4433270000000 1.0
C      1  0.4531280000000  0.4524070000000  0.4784210000000 1.0
C      1  0.4618660000000  0.4503650000000  0.5386980000000 1.0
C      1  0.5241060000000  0.4513680000000  0.5480240000000 1.0
C      1  0.5572130000000  0.4464460000000  0.4860660000000 1.0
C      1  0.4697980000000  0.4751720000000  0.5194290000000 1.0
C      1  0.4753450000000  0.4769530000000  0.4790620000000 1.0
C      1  0.5189380000000  0.4675960000000  0.4638510000000 1.0
C      1  0.5394090000000  0.4630130000000  0.5051220000000 1.0
C      1  0.5097010000000  0.4734960000000  0.5302060000000 1.0
C      1  0.5274780000000  0.5282700000000  0.5160800000000 1.0
C      1  0.5264390000000  0.5461550000000  0.4659100000000 1.0
C      1  0.4814990000000  0.5455420000000  0.4670350000000 1.0
C      1  0.4590460000000  0.5256570000000  0.5034020000000 1.0
C      1  0.4907940000000  0.5245510000000  0.5398410000000 1.0
C      1  0.5455870000000  0.4681540000000  0.4505830000000 1.0
C      1  0.5599230000000  0.4671550000000  0.5264010000000 1.0
C      1  0.4910110000000  0.4783170000000  0.5551300000000 1.0
C      1  0.4410250000000  0.4741910000000  0.5118610000000 1.0
C      1  0.4732790000000  0.4741200000000  0.4494480000000 1.0
C      1  0.4611760000000  0.5232440000000  0.4609940000000 1.0
C      1  0.4411610000000  0.5271540000000  0.5266910000000 1.0
C      1  0.5069330000000  0.5285530000000  0.5641940000000 1.0
C      1  0.5573660000000  0.5271820000000  0.5116340000000 1.0
C      1  0.5239860000000  0.5213350000000  0.4477040000000 1.0
C      1  0.4789330000000  0.4984240000000  0.5353920000000 1.0
C      1  0.5089550000000  0.4949780000000  0.4610070000000 1.0
C      1  0.5305130000000  0.4905990000000  0.5007420000000 1.0
C      1  0.5238290000000  0.4999090000000  0.5264250000000 1.0
C      1  0.4663110000000  0.5049610000000  0.4843820000000 1.0
C      1  0.4983840000000  0.4655550000000  0.5011910000000 1.0
C      1  0.5091270000000  0.5352480000000  0.4889860000000 1.0
C      1  0.5099460000000  0.5065260000000  0.4864160000000 1.0
END
