TITL C-2441166-8118-379 0.005087348859133 125000 -7850.70536655884 0 0 58 (C4) n - 1
REM
REM in /home/bkarasulu/work/CARBON/AIRSS/Generating-Clusters/ReaxFF-fromJPCA2015/Units_Real/with-SteepDescent/Higher-Symm
REM
REM
REM
REM
REM
REM ./C.cell (1df0a924f5614ab8850e4351716899ee)
REM
REM compiler GCC version 9.2.1 20190827 (Red Hat 9.2.1-1)
REM options -cpp -mtune=generic -march=x86-64 -g -O0 -fpre-include=/usr/include/finclude/math-vector-fortran.h
REM seed 1914556155 -666842513 1699538929 1226845836 169950625 835250697 -2035071063 1230070848 -1944818346 1452298287 1665375287 -1473489520 -560057296 1479872167 188903549 1354368445 379596980 435609169 532652259 1877005995 -1613870119 688627480 1360718560 981859432 -989234602 -183890608 1829264881 -1821169274 -773178011 -24457809 1021395870 -1848712064 -1495355769
REM
CELL 1.54180   50.00000   50.00000   50.00000   90.00000   90.00000   90.00000
LATT -1
SFAC C  
C      1  0.4866140000000  0.4367530000000  0.5197900000000 1.0
C      1  0.4796730000000  0.4365760000000  0.4865720000000 1.0
C      1  0.5130090000000  0.4366380000000  0.4793800000000 1.0
C      1  0.5200170000000  0.4366990000000  0.5128460000000 1.0
C      1  0.5129550000000  0.5642510000000  0.5198620000000 1.0
C      1  0.5199440000000  0.5643030000000  0.4863960000000 1.0
C      1  0.4865730000000  0.5641530000000  0.4795210000000 1.0
C      1  0.4796160000000  0.5641480000000  0.5127790000000 1.0
C      1  0.5113940000000  0.5334280000000  0.4460650000000 1.0
C      1  0.5534970000000  0.5335540000000  0.5110350000000 1.0
C      1  0.4886020000000  0.5336340000000  0.5533440000000 1.0
C      1  0.4461930000000  0.5335550000000  0.4881320000000 1.0
C      1  0.4885940000000  0.4674610000000  0.4459760000000 1.0
C      1  0.4461800000000  0.4674190000000  0.5109290000000 1.0
C      1  0.5113880000000  0.4675430000000  0.5531440000000 1.0
C      1  0.5535210000000  0.4674300000000  0.4882410000000 1.0
C      1  0.5431440000000  0.4865400000000  0.5272940000000 1.0
C      1  0.4721400000000  0.4865260000000  0.5428230000000 1.0
C      1  0.4564630000000  0.4866810000000  0.4719370000000 1.0
C      1  0.5274420000000  0.4865900000000  0.4564070000000 1.0
C      1  0.4567170000000  0.5143790000000  0.5273100000000 1.0
C      1  0.5274490000000  0.5143670000000  0.5428620000000 1.0
C      1  0.5431050000000  0.5144450000000  0.4719660000000 1.0
C      1  0.4720930000000  0.5144520000000  0.4564320000000 1.0
C      1  0.4591500000000  0.5356210000000  0.5487290000000 1.0
C      1  0.4507710000000  0.5357350000000  0.4586880000000 1.0
C      1  0.5407600000000  0.5355430000000  0.4506350000000 1.0
C      1  0.5488470000000  0.5354760000000  0.5403850000000 1.0
C      1  0.5407670000000  0.4654020000000  0.5485980000000 1.0
C      1  0.5488700000000  0.4654980000000  0.4589040000000 1.0
C      1  0.4591760000000  0.4654750000000  0.4506390000000 1.0
C      1  0.4507050000000  0.4653810000000  0.5404020000000 1.0
C      1  0.4647800000000  0.5596070000000  0.4622050000000 1.0
C      1  0.5376600000000  0.5598790000000  0.4646250000000 1.0
C      1  0.5348590000000  0.5598230000000  0.5374370000000 1.0
C      1  0.4624800000000  0.5594960000000  0.5347020000000 1.0
C      1  0.5348830000000  0.4411550000000  0.4618110000000 1.0
C      1  0.4621820000000  0.4413530000000  0.4647870000000 1.0
C      1  0.4647170000000  0.4414650000000  0.5369780000000 1.0
C      1  0.5376840000000  0.4410570000000  0.5346670000000 1.0
C      1  0.4935760000000  0.5319660000000  0.4703530000000 1.0
C      1  0.5288950000000  0.5326540000000  0.4932350000000 1.0
C      1  0.5062680000000  0.5326850000000  0.5284990000000 1.0
C      1  0.4706570000000  0.5319480000000  0.5058640000000 1.0
C      1  0.5062550000000  0.4682470000000  0.4706880000000 1.0
C      1  0.4710010000000  0.4685980000000  0.4932230000000 1.0
C      1  0.4935650000000  0.4690140000000  0.5288800000000 1.0
C      1  0.5288950000000  0.4682450000000  0.5060450000000 1.0
C      1  0.5648040000000  0.5134270000000  0.4933440000000 1.0
C      1  0.5061200000000  0.5133190000000  0.5644340000000 1.0
C      1  0.4346880000000  0.5135280000000  0.5060060000000 1.0
C      1  0.4934440000000  0.5135580000000  0.4343480000000 1.0
C      1  0.4349810000000  0.4876270000000  0.4933150000000 1.0
C      1  0.4934820000000  0.4874100000000  0.5648500000000 1.0
C      1  0.5647850000000  0.4875820000000  0.5059200000000 1.0
C      1  0.5061700000000  0.4876920000000  0.4347990000000 1.0
C      1  0.4992880000000  0.5173750000000  0.4994250000000 1.0
C      1  0.4993780000000  0.4835740000000  0.4999410000000 1.0
END
