TITL C-2441164-471-347 0.00222530345539066 125000 -8525.78326819145 0 0 58 (C1) n - 1
REM
REM in /home/bkarasulu/work/CARBON/AIRSS/Generating-Clusters/ReaxFF-fromJPCA2015/Units_Real/with-SteepDescent/Higher-Symm
REM
REM
REM
REM
REM
REM ./C.cell (1df0a924f5614ab8850e4351716899ee)
REM
REM compiler GCC version 9.2.1 20190827 (Red Hat 9.2.1-1)
REM options -cpp -mtune=generic -march=x86-64 -g -O0 -fpre-include=/usr/include/finclude/math-vector-fortran.h
REM seed -2147012405 1779938416 731692760 1625975089 681870315 2028173934 2043390347 891265432 -2048836911 970958018 1626578596 -137239274 1475647103 -837987488 -1317177330 1808714358 576375237 1950736790 -1854833597 1427796370 888498559 1262807395 -1477793647 -1640860855 -731570667 -1320020844 -86872352 -454179724 1106992256 1482540274 1992180877 -1866146664 1212248054
REM
CELL 1.54180   50.00000   50.00000   50.00000   90.00000   90.00000   90.00000
LATT -1
SFAC C  
C      1  0.4562900000000  0.5579310000000  0.4559770000000 1.0
C      1  0.4575610000000  0.5584590000000  0.5390720000000 1.0
C      1  0.5404520000000  0.5550510000000  0.5427000000000 1.0
C      1  0.5346170000000  0.5574500000000  0.4745430000000 1.0
C      1  0.4580820000000  0.4424880000000  0.4583320000000 1.0
C      1  0.4570360000000  0.4437070000000  0.5407280000000 1.0
C      1  0.5398170000000  0.4407520000000  0.5440600000000 1.0
C      1  0.5431720000000  0.4390500000000  0.4541040000000 1.0
C      1  0.4623640000000  0.4372330000000  0.4990330000000 1.0
C      1  0.4980360000000  0.4362960000000  0.5385020000000 1.0
C      1  0.5380720000000  0.4365820000000  0.5028830000000 1.0
C      1  0.5032740000000  0.4370370000000  0.4638540000000 1.0
C      1  0.4620770000000  0.5610820000000  0.4972200000000 1.0
C      1  0.4991620000000  0.5602800000000  0.5349530000000 1.0
C      1  0.5422480000000  0.5584840000000  0.5012900000000 1.0
C      1  0.4961320000000  0.5629750000000  0.4571690000000 1.0
C      1  0.5292730000000  0.4272080000000  0.4755990000000 1.0
C      1  0.4763630000000  0.4279880000000  0.4739380000000 1.0
C      1  0.4726250000000  0.4266930000000  0.5249300000000 1.0
C      1  0.5237280000000  0.4256050000000  0.5272200000000 1.0
C      1  0.5132830000000  0.5706980000000  0.4749560000000 1.0
C      1  0.4738330000000  0.5736410000000  0.4717950000000 1.0
C      1  0.4745680000000  0.5721680000000  0.5219630000000 1.0
C      1  0.5253460000000  0.5694990000000  0.5242850000000 1.0
C      1  0.5302460000000  0.5331620000000  0.4604200000000 1.0
C      1  0.4456300000000  0.5325970000000  0.4621220000000 1.0
C      1  0.4615320000000  0.5339600000000  0.5521170000000 1.0
C      1  0.5520130000000  0.5298100000000  0.5385930000000 1.0
C      1  0.5388860000000  0.4652860000000  0.4447830000000 1.0
C      1  0.4481460000000  0.4677560000000  0.4646900000000 1.0
C      1  0.4649180000000  0.4688780000000  0.5503550000000 1.0
C      1  0.5537160000000  0.4645500000000  0.5388080000000 1.0
C      1  0.4372890000000  0.5152180000000  0.5092850000000 1.0
C      1  0.5066500000000  0.5122920000000  0.5525980000000 1.0
C      1  0.5601190000000  0.5117310000000  0.4941290000000 1.0
C      1  0.4886380000000  0.5133020000000  0.4407760000000 1.0
C      1  0.4414190000000  0.4855670000000  0.5079520000000 1.0
C      1  0.5101330000000  0.4840440000000  0.5604880000000 1.0
C      1  0.5623020000000  0.4821470000000  0.4907590000000 1.0
C      1  0.4928710000000  0.4851950000000  0.4485890000000 1.0
C      1  0.4457220000000  0.5372420000000  0.4914500000000 1.0
C      1  0.4910680000000  0.5362700000000  0.5508060000000 1.0
C      1  0.5595130000000  0.5354960000000  0.5109860000000 1.0
C      1  0.5052620000000  0.5361520000000  0.4477350000000 1.0
C      1  0.4437740000000  0.4607180000000  0.4927870000000 1.0
C      1  0.4928060000000  0.4608140000000  0.5546430000000 1.0
C      1  0.5539700000000  0.4601640000000  0.5092740000000 1.0
C      1  0.5088160000000  0.4612150000000  0.4474060000000 1.0
C      1  0.5494540000000  0.4844130000000  0.4645570000000 1.0
C      1  0.4703470000000  0.4895450000000  0.4686450000000 1.0
C      1  0.4639530000000  0.4902880000000  0.5278790000000 1.0
C      1  0.5363370000000  0.4846040000000  0.5484880000000 1.0
C      1  0.5355570000000  0.5096490000000  0.4760930000000 1.0
C      1  0.4633590000000  0.5126990000000  0.4538260000000 1.0
C      1  0.4509730000000  0.5146460000000  0.5350500000000 1.0
C      1  0.5297930000000  0.5083690000000  0.5346270000000 1.0
C      1  0.4861330000000  0.4935050000000  0.5002150000000 1.0
C      1  0.5136920000000  0.5039720000000  0.5030690000000 1.0
END
