TITL C-2441160-1326-1341 0.137811137775734 125000 -20802.8906400968 0 0 162 (C1) n - 1
REM
REM in /home/bkarasulu/work/CARBON/AIRSS/Generating-Clusters/ReaxFF-fromJPCA2015/Units_Real/with-SteepDescent/Higher-Symm
REM
REM
REM
REM
REM
REM ./C.cell (1df0a924f5614ab8850e4351716899ee)
REM
REM compiler GCC version 9.2.1 20190827 (Red Hat 9.2.1-1)
REM options -cpp -mtune=generic -march=x86-64 -g -O0 -fpre-include=/usr/include/finclude/math-vector-fortran.h
REM seed -1850841809 -363268273 -1413084198 999822109 1389575422 1142941336 -519724218 1866714226 -328061144 -1943427688 -2097353624 -445408054 25982553 -365270217 -1333163222 -1544740114 -230964083 664214283 -1363679305 874681479 115402605 -363521806 497379861 -228464439 741288138 936290793 -1599766873 2035873184 777646108 -629632646 -774037520 480504395 -398500530
REM
CELL 1.54180   50.00000   50.00000   50.00000   90.00000   90.00000   90.00000
LATT -1
SFAC C  
C      1  0.4397330000000  0.4852240000000  0.4091720000000 1.0
C      1  0.5402610000000  0.4546980000000  0.4084600000000 1.0
C      1  0.5181120000000  0.5642170000000  0.4105020000000 1.0
C      1  0.4386570000000  0.4864790000000  0.5928800000000 1.0
C      1  0.5409480000000  0.4556120000000  0.5923150000000 1.0
C      1  0.5179960000000  0.5638710000000  0.5903340000000 1.0
C      1  0.4401860000000  0.5141630000000  0.4069590000000 1.0
C      1  0.5418020000000  0.5451390000000  0.4080630000000 1.0
C      1  0.5173170000000  0.4369090000000  0.4102760000000 1.0
C      1  0.4385050000000  0.5153550000000  0.5906920000000 1.0
C      1  0.5413740000000  0.5440250000000  0.5928110000000 1.0
C      1  0.5174890000000  0.4356050000000  0.5897450000000 1.0
C      1  0.5249680000000  0.5142030000000  0.4708870000000 1.0
C      1  0.4755560000000  0.5142380000000  0.4735250000000 1.0
C      1  0.5007600000000  0.4746350000000  0.4836480000000 1.0
C      1  0.5245460000000  0.5142300000000  0.5285320000000 1.0
C      1  0.4760590000000  0.5145800000000  0.5273070000000 1.0
C      1  0.5010160000000  0.4746190000000  0.5140780000000 1.0
C      1  0.5251300000000  0.4859260000000  0.4705620000000 1.0
C      1  0.4756030000000  0.4850090000000  0.4732240000000 1.0
C      1  0.5002790000000  0.5250990000000  0.4851840000000 1.0
C      1  0.5246810000000  0.4859870000000  0.5283490000000 1.0
C      1  0.4775420000000  0.4873460000000  0.5208470000000 1.0
C      1  0.5004060000000  0.5257400000000  0.5157280000000 1.0
C      1  0.4847060000000  0.4102000000000  0.5519090000000 1.0
C      1  0.5867730000000  0.5319850000000  0.5501780000000 1.0
C      1  0.4293590000000  0.5587620000000  0.5508400000000 1.0
C      1  0.4820230000000  0.4093490000000  0.4469210000000 1.0
C      1  0.5866540000000  0.5316910000000  0.4493120000000 1.0
C      1  0.4291560000000  0.5592180000000  0.4500990000000 1.0
C      1  0.4848300000000  0.5903740000000  0.5512270000000 1.0
C      1  0.5867690000000  0.4679740000000  0.5505980000000 1.0
C      1  0.4293290000000  0.4418600000000  0.5500060000000 1.0
C      1  0.4843590000000  0.5897510000000  0.4476820000000 1.0
C      1  0.5872090000000  0.4684380000000  0.4491790000000 1.0
C      1  0.4288040000000  0.4409770000000  0.4484920000000 1.0
C      1  0.5133660000000  0.5892100000000  0.4417730000000 1.0
C      1  0.4127450000000  0.4658810000000  0.4453470000000 1.0
C      1  0.5749470000000  0.4418640000000  0.4458730000000 1.0
C      1  0.5138450000000  0.5881840000000  0.5585830000000 1.0
C      1  0.4113030000000  0.4652620000000  0.5537640000000 1.0
C      1  0.5755670000000  0.4404880000000  0.5543860000000 1.0
C      1  0.5082820000000  0.4091050000000  0.4377400000000 1.0
C      1  0.4118080000000  0.5352970000000  0.4464590000000 1.0
C      1  0.5744530000000  0.5585970000000  0.4459990000000 1.0
C      1  0.5141030000000  0.4109540000000  0.5581050000000 1.0
C      1  0.4121310000000  0.5346450000000  0.5541070000000 1.0
C      1  0.5750490000000  0.5594070000000  0.5540720000000 1.0
C      1  0.5137200000000  0.5635460000000  0.4854040000000 1.0
C      1  0.4386720000000  0.4801370000000  0.4864110000000 1.0
C      1  0.5476850000000  0.4569930000000  0.4859580000000 1.0
C      1  0.5148460000000  0.5628500000000  0.5146180000000 1.0
C      1  0.4383300000000  0.4813040000000  0.5149640000000 1.0
C      1  0.5464000000000  0.4567100000000  0.5142230000000 1.0
C      1  0.5135860000000  0.4361980000000  0.4860700000000 1.0
C      1  0.4384100000000  0.5197660000000  0.4863020000000 1.0
C      1  0.5477960000000  0.5433440000000  0.4859780000000 1.0
C      1  0.5141980000000  0.4372780000000  0.5153980000000 1.0
C      1  0.4390750000000  0.5185330000000  0.5144070000000 1.0
C      1  0.5461560000000  0.5435560000000  0.5140730000000 1.0
C      1  0.5957270000000  0.4845380000000  0.5271410000000 1.0
C      1  0.4666600000000  0.5887590000000  0.5272710000000 1.0
C      1  0.4396650000000  0.4269910000000  0.5265690000000 1.0
C      1  0.5960640000000  0.4847280000000  0.4727430000000 1.0
C      1  0.4667190000000  0.5888210000000  0.4726360000000 1.0
C      1  0.4382880000000  0.4251030000000  0.4714390000000 1.0
C      1  0.5951010000000  0.5158660000000  0.5269470000000 1.0
C      1  0.4670280000000  0.4110690000000  0.5277620000000 1.0
C      1  0.4388750000000  0.5738770000000  0.5275640000000 1.0
C      1  0.5950750000000  0.5159530000000  0.4728830000000 1.0
C      1  0.4659620000000  0.4112360000000  0.4726970000000 1.0
C      1  0.4388280000000  0.5746030000000  0.4733620000000 1.0
C      1  0.5681810000000  0.5636670000000  0.5141270000000 1.0
C      1  0.4106610000000  0.5265350000000  0.5143610000000 1.0
C      1  0.5222990000000  0.4076270000000  0.5142750000000 1.0
C      1  0.5689870000000  0.5636310000000  0.4860710000000 1.0
C      1  0.4099640000000  0.5273590000000  0.4863700000000 1.0
C      1  0.5231410000000  0.4079940000000  0.4849090000000 1.0
C      1  0.5684270000000  0.4367180000000  0.5143070000000 1.0
C      1  0.4098230000000  0.4726530000000  0.5137250000000 1.0
C      1  0.5219160000000  0.5923930000000  0.5144370000000 1.0
C      1  0.5697140000000  0.4374440000000  0.4860650000000 1.0
C      1  0.4100430000000  0.4730120000000  0.4855180000000 1.0
C      1  0.5224160000000  0.5926190000000  0.4850780000000 1.0
C      1  0.4753230000000  0.4852520000000  0.5655530000000 1.0
C      1  0.5233230000000  0.4849300000000  0.5578240000000 1.0
C      1  0.4986860000000  0.5276530000000  0.5662040000000 1.0
C      1  0.4749000000000  0.4838480000000  0.4404120000000 1.0
C      1  0.5243190000000  0.4848750000000  0.4406410000000 1.0
C      1  0.4990910000000  0.5279830000000  0.4335130000000 1.0
C      1  0.4739540000000  0.5143650000000  0.5601790000000 1.0
C      1  0.5232800000000  0.5150050000000  0.5587760000000 1.0
C      1  0.4983650000000  0.4716970000000  0.5650950000000 1.0
C      1  0.4747900000000  0.5152580000000  0.4405130000000 1.0
C      1  0.5238250000000  0.5152280000000  0.4407290000000 1.0
C      1  0.4997010000000  0.4713100000000  0.4335720000000 1.0
C      1  0.5377020000000  0.5939950000000  0.4607430000000 1.0
C      1  0.3986360000000  0.4853340000000  0.4624020000000 1.0
C      1  0.5668860000000  0.4201700000000  0.4635760000000 1.0
C      1  0.5365120000000  0.5939350000000  0.5392020000000 1.0
C      1  0.3982580000000  0.4850730000000  0.5367460000000 1.0
C      1  0.5635960000000  0.4192680000000  0.5370090000000 1.0
C      1  0.5402750000000  0.4085440000000  0.4612670000000 1.0
C      1  0.3988790000000  0.5148810000000  0.4631120000000 1.0
C      1  0.5638630000000  0.5800320000000  0.4629700000000 1.0
C      1  0.5372010000000  0.4057990000000  0.5388570000000 1.0
C      1  0.3979790000000  0.5148590000000  0.5372380000000 1.0
C      1  0.5631910000000  0.5807370000000  0.5370410000000 1.0
C      1  0.5470980000000  0.5195960000000  0.4192570000000 1.0
C      1  0.4584470000000  0.5307660000000  0.4203790000000 1.0
C      1  0.4942570000000  0.4488020000000  0.4184110000000 1.0
C      1  0.5472890000000  0.5185800000000  0.5813620000000 1.0
C      1  0.4586120000000  0.5318730000000  0.5799590000000 1.0
C      1  0.4935840000000  0.4488760000000  0.5817480000000 1.0
C      1  0.5466130000000  0.4803120000000  0.4198370000000 1.0
C      1  0.4594530000000  0.4683450000000  0.4198470000000 1.0
C      1  0.4939230000000  0.5500840000000  0.4167280000000 1.0
C      1  0.5461030000000  0.4808730000000  0.5799510000000 1.0
C      1  0.4587310000000  0.4690920000000  0.5825610000000 1.0
C      1  0.4942760000000  0.5503680000000  0.5821290000000 1.0
C      1  0.4866680000000  0.4473350000000  0.4773070000000 1.0
C      1  0.5536700000000  0.5155960000000  0.4783700000000 1.0
C      1  0.4597200000000  0.5387010000000  0.4786580000000 1.0
C      1  0.4862880000000  0.4472720000000  0.5212430000000 1.0
C      1  0.5533970000000  0.5153800000000  0.5212160000000 1.0
C      1  0.4599240000000  0.5386000000000  0.5210960000000 1.0
C      1  0.4866470000000  0.5526250000000  0.4781870000000 1.0
C      1  0.5545430000000  0.4851120000000  0.4784180000000 1.0
C      1  0.4600340000000  0.4605980000000  0.4806760000000 1.0
C      1  0.4864540000000  0.5524520000000  0.5222050000000 1.0
C      1  0.5542710000000  0.4854040000000  0.5211900000000 1.0
C      1  0.4622550000000  0.4644930000000  0.5252400000000 1.0
C      1  0.4493610000000  0.4430310000000  0.5706280000000 1.0
C      1  0.5746140000000  0.4855290000000  0.5697450000000 1.0
C      1  0.4764350000000  0.5717400000000  0.5707770000000 1.0
C      1  0.4492850000000  0.4427140000000  0.4286920000000 1.0
C      1  0.5746000000000  0.4852370000000  0.4294930000000 1.0
C      1  0.4749970000000  0.5709320000000  0.4283910000000 1.0
C      1  0.4505800000000  0.5585890000000  0.5708800000000 1.0
C      1  0.5751030000000  0.5144210000000  0.5700090000000 1.0
C      1  0.4743400000000  0.4283950000000  0.5714040000000 1.0
C      1  0.4493010000000  0.5577200000000  0.4292830000000 1.0
C      1  0.5748560000000  0.5141610000000  0.4294900000000 1.0
C      1  0.4748480000000  0.4299230000000  0.4273080000000 1.0
C      1  0.4277970000000  0.4875360000000  0.4351010000000 1.0
C      1  0.5492670000000  0.4424990000000  0.4335930000000 1.0
C      1  0.5243590000000  0.5672180000000  0.4364090000000 1.0
C      1  0.4257810000000  0.4861400000000  0.5669320000000 1.0
C      1  0.5497540000000  0.4428130000000  0.5673510000000 1.0
C      1  0.5249350000000  0.5668140000000  0.5652630000000 1.0
C      1  0.4234890000000  0.5142720000000  0.4309860000000 1.0
C      1  0.5484450000000  0.5562900000000  0.4346060000000 1.0
C      1  0.5261220000000  0.4282530000000  0.4408070000000 1.0
C      1  0.4274540000000  0.5130640000000  0.5641210000000 1.0
C      1  0.5493760000000  0.5560730000000  0.5669630000000 1.0
C      1  0.5245370000000  0.4327680000000  0.5647760000000 1.0
C      1  0.5891580000000  0.4782400000000  0.4999200000000 1.0
C      1  0.5875790000000  0.5224080000000  0.4999580000000 1.0
C      1  0.4758100000000  0.5856170000000  0.4999310000000 1.0
C      1  0.4365860000000  0.5645920000000  0.5003350000000 1.0
C      1  0.4752920000000  0.4143560000000  0.5000550000000 1.0
C      1  0.4362080000000  0.4316990000000  0.4988530000000 1.0
END
