TITL C-2441159-1093-1490 0.225699909004715 125000 -20200.0925427846 0 0 171 (C1) n - 1
REM
REM in /home/bkarasulu/work/CARBON/AIRSS/Generating-Clusters/ReaxFF-fromJPCA2015/Units_Real/with-SteepDescent/Higher-Symm
REM
REM
REM
REM
REM
REM ./C.cell (1df0a924f5614ab8850e4351716899ee)
REM
REM compiler GCC version 9.2.1 20190827 (Red Hat 9.2.1-1)
REM options -cpp -mtune=generic -march=x86-64 -g -O0 -fpre-include=/usr/include/finclude/math-vector-fortran.h
REM seed -1578158589 1229115524 -1992443691 -1173104587 929362629 -495465857 1472547658 1059411867 879105510 -1918496526 527766746 826727543 -1106626317 -1452250130 441499641 559557821 1190500981 -1847475046 -808522830 -1310491062 -1530279049 355292023 374777706 -299324721 -1103285697 -1377597095 -541187920 -176740118 329896380 327820090 1804533455 1229204001 -700055179
REM
CELL 1.54180   50.00000   50.00000   50.00000   90.00000   90.00000   90.00000
LATT -1
SFAC C  
C      1  0.5004720000000  0.5505540000000  0.4776510000000 1.0
C      1  0.5580430000000  0.5740860000000  0.5315820000000 1.0
C      1  0.4841870000000  0.5484100000000  0.5418370000000 1.0
C      1  0.4863320000000  0.5694820000000  0.4228780000000 1.0
C      1  0.4708400000000  0.4923750000000  0.4821000000000 1.0
C      1  0.4378840000000  0.5195070000000  0.4112100000000 1.0
C      1  0.4945280000000  0.5025530000000  0.4632100000000 1.0
C      1  0.5735830000000  0.5572800000000  0.5553370000000 1.0
C      1  0.5040290000000  0.4922810000000  0.5972090000000 1.0
C      1  0.5096390000000  0.3991880000000  0.5231730000000 1.0
C      1  0.4535860000000  0.4704510000000  0.5139810000000 1.0
C      1  0.5641250000000  0.4251900000000  0.4610250000000 1.0
C      1  0.5023930000000  0.4594180000000  0.5208840000000 1.0
C      1  0.4683170000000  0.5485990000000  0.4157840000000 1.0
C      1  0.5773670000000  0.4504650000000  0.5675700000000 1.0
C      1  0.4876000000000  0.4589730000000  0.4001760000000 1.0
C      1  0.5786010000000  0.4754670000000  0.4457560000000 1.0
C      1  0.5453090000000  0.4690110000000  0.5927440000000 1.0
C      1  0.4676730000000  0.4844650000000  0.4397280000000 1.0
C      1  0.5500660000000  0.4843530000000  0.4844290000000 1.0
C      1  0.4294220000000  0.5040460000000  0.4750120000000 1.0
C      1  0.4080520000000  0.5234470000000  0.5324330000000 1.0
C      1  0.5034900000000  0.5209920000000  0.6019570000000 1.0
C      1  0.3942640000000  0.4634330000000  0.4774740000000 1.0
C      1  0.4110740000000  0.4786520000000  0.5575320000000 1.0
C      1  0.5322500000000  0.4509460000000  0.5543650000000 1.0
C      1  0.5178620000000  0.4634560000000  0.5949490000000 1.0
C      1  0.5727790000000  0.4434400000000  0.4803260000000 1.0
C      1  0.5150210000000  0.4637980000000  0.4016440000000 1.0
C      1  0.4711300000000  0.4479470000000  0.5522810000000 1.0
C      1  0.5783590000000  0.5292150000000  0.5584410000000 1.0
C      1  0.4927970000000  0.4032490000000  0.5465190000000 1.0
C      1  0.5376590000000  0.5910040000000  0.4653420000000 1.0
C      1  0.4984660000000  0.5365740000000  0.5607010000000 1.0
C      1  0.5154130000000  0.5940140000000  0.5496670000000 1.0
C      1  0.4742100000000  0.5159010000000  0.4481200000000 1.0
C      1  0.5685220000000  0.5030130000000  0.4402550000000 1.0
C      1  0.5092310000000  0.5639280000000  0.5163650000000 1.0
C      1  0.4904290000000  0.5863610000000  0.5167800000000 1.0
C      1  0.5618370000000  0.4979370000000  0.5357230000000 1.0
C      1  0.4784270000000  0.5643290000000  0.4748180000000 1.0
C      1  0.5502820000000  0.4445800000000  0.5777120000000 1.0
C      1  0.5399920000000  0.5220500000000  0.5366600000000 1.0
C      1  0.4613240000000  0.5104070000000  0.5734150000000 1.0
C      1  0.5542660000000  0.5151000000000  0.4171540000000 1.0
C      1  0.4219930000000  0.5854050000000  0.4979570000000 1.0
C      1  0.4245820000000  0.4932620000000  0.5797710000000 1.0
C      1  0.5474190000000  0.4925310000000  0.5754600000000 1.0
C      1  0.4500150000000  0.4839860000000  0.5702760000000 1.0
C      1  0.5036110000000  0.5312700000000  0.4363400000000 1.0
C      1  0.5077480000000  0.5056880000000  0.4033760000000 1.0
C      1  0.4516190000000  0.4050180000000  0.4940430000000 1.0
C      1  0.4820360000000  0.4262830000000  0.5105510000000 1.0
C      1  0.4622150000000  0.5070350000000  0.3990900000000 1.0
C      1  0.4939560000000  0.6046530000000  0.4925710000000 1.0
C      1  0.4685450000000  0.5694920000000  0.5541140000000 1.0
C      1  0.5064470000000  0.4196690000000  0.4961840000000 1.0
C      1  0.4824470000000  0.4356840000000  0.4177360000000 1.0
C      1  0.5915260000000  0.4668230000000  0.4714250000000 1.0
C      1  0.5230690000000  0.4797010000000  0.5189780000000 1.0
C      1  0.4357470000000  0.4304940000000  0.5401070000000 1.0
C      1  0.5377170000000  0.4047380000000  0.5251520000000 1.0
C      1  0.5260520000000  0.5780820000000  0.5717630000000 1.0
C      1  0.5153810000000  0.5596690000000  0.5921330000000 1.0
C      1  0.4810810000000  0.4860210000000  0.6010980000000 1.0
C      1  0.4015610000000  0.4853460000000  0.5126810000000 1.0
C      1  0.4232160000000  0.4644600000000  0.5133690000000 1.0
C      1  0.5999030000000  0.5276870000000  0.4864830000000 1.0
C      1  0.5709760000000  0.5524020000000  0.4501620000000 1.0
C      1  0.5489030000000  0.5006670000000  0.4617760000000 1.0
C      1  0.5430100000000  0.4571870000000  0.4890910000000 1.0
C      1  0.5347480000000  0.5658330000000  0.4230210000000 1.0
C      1  0.4684390000000  0.4682490000000  0.4657930000000 1.0
C      1  0.4797010000000  0.5331860000000  0.5178670000000 1.0
C      1  0.4424680000000  0.4547470000000  0.4679630000000 1.0
C      1  0.5860320000000  0.5031910000000  0.4856600000000 1.0
C      1  0.5468760000000  0.5278430000000  0.5063680000000 1.0
C      1  0.5535570000000  0.5751520000000  0.5625450000000 1.0
C      1  0.4528140000000  0.5932280000000  0.4560120000000 1.0
C      1  0.3886660000000  0.4904760000000  0.4874060000000 1.0
C      1  0.5748580000000  0.5634920000000  0.5090160000000 1.0
C      1  0.4434620000000  0.4725640000000  0.4261650000000 1.0
C      1  0.4351760000000  0.5132740000000  0.5352070000000 1.0
C      1  0.5296720000000  0.5779540000000  0.5054030000000 1.0
C      1  0.5390520000000  0.4326000000000  0.5331550000000 1.0
C      1  0.5232040000000  0.4036670000000  0.4581930000000 1.0
C      1  0.4535380000000  0.5288060000000  0.5505520000000 1.0
C      1  0.5258490000000  0.5845520000000  0.4420860000000 1.0
C      1  0.5478020000000  0.4061680000000  0.4734680000000 1.0
C      1  0.4991850000000  0.4212910000000  0.5665390000000 1.0
C      1  0.4206050000000  0.4551190000000  0.5432950000000 1.0
C      1  0.3974060000000  0.4967040000000  0.5381890000000 1.0
C      1  0.4558500000000  0.4561720000000  0.5747030000000 1.0
C      1  0.4386300000000  0.5483260000000  0.5153630000000 1.0
C      1  0.5005350000000  0.4418270000000  0.5865060000000 1.0
C      1  0.4399160000000  0.5406800000000  0.4333230000000 1.0
C      1  0.4623010000000  0.5810060000000  0.4925590000000 1.0
C      1  0.5950200000000  0.5206570000000  0.5325650000000 1.0
C      1  0.5631110000000  0.5017690000000  0.5040950000000 1.0
C      1  0.5615870000000  0.4447520000000  0.5219940000000 1.0
C      1  0.4983920000000  0.4037550000000  0.4735890000000 1.0
C      1  0.5521050000000  0.5576990000000  0.4943290000000 1.0
C      1  0.4581800000000  0.4291910000000  0.4308640000000 1.0
C      1  0.4603760000000  0.4217310000000  0.5528620000000 1.0
C      1  0.5933580000000  0.5409920000000  0.5121380000000 1.0
C      1  0.4443230000000  0.5679300000000  0.5378440000000 1.0
C      1  0.4949210000000  0.4928240000000  0.5491040000000 1.0
C      1  0.4376660000000  0.4257220000000  0.5092740000000 1.0
C      1  0.5314290000000  0.5339880000000  0.5893150000000 1.0
C      1  0.5096630000000  0.5534790000000  0.4146210000000 1.0
C      1  0.5584210000000  0.5191030000000  0.5778750000000 1.0
C      1  0.4269300000000  0.4450490000000  0.4918900000000 1.0
C      1  0.5861820000000  0.5386570000000  0.4665550000000 1.0
C      1  0.5275450000000  0.5174610000000  0.4681780000000 1.0
C      1  0.5537390000000  0.4335120000000  0.4373070000000 1.0
C      1  0.5116180000000  0.4850540000000  0.4490040000000 1.0
C      1  0.4293760000000  0.5795220000000  0.4683990000000 1.0
C      1  0.5114250000000  0.4563050000000  0.4562720000000 1.0
C      1  0.4091440000000  0.5399030000000  0.4795490000000 1.0
C      1  0.4968570000000  0.4629550000000  0.5492500000000 1.0
C      1  0.5182010000000  0.5018010000000  0.5364500000000 1.0
C      1  0.4516590000000  0.4961910000000  0.5216600000000 1.0
C      1  0.4809690000000  0.5282300000000  0.3996340000000 1.0
C      1  0.4711880000000  0.4089400000000  0.4717250000000 1.0
C      1  0.4808630000000  0.4865060000000  0.4114090000000 1.0
C      1  0.4576600000000  0.5368020000000  0.4988610000000 1.0
C      1  0.5111040000000  0.4936090000000  0.4990590000000 1.0
C      1  0.4206790000000  0.4853280000000  0.4370250000000 1.0
C      1  0.4882210000000  0.4946630000000  0.5013110000000 1.0
C      1  0.5466170000000  0.4780540000000  0.5505380000000 1.0
C      1  0.5370790000000  0.4988830000000  0.3990270000000 1.0
C      1  0.4766160000000  0.4591810000000  0.5950110000000 1.0
C      1  0.4867340000000  0.5912840000000  0.5458550000000 1.0
C      1  0.5285950000000  0.4192010000000  0.4345470000000 1.0
C      1  0.5067910000000  0.4377460000000  0.4341560000000 1.0
C      1  0.5356090000000  0.5942240000000  0.5277320000000 1.0
C      1  0.4541070000000  0.5201110000000  0.4742930000000 1.0
C      1  0.4728360000000  0.5737360000000  0.4489750000000 1.0
C      1  0.4111410000000  0.5413320000000  0.5091990000000 1.0
C      1  0.4231270000000  0.4774600000000  0.4660650000000 1.0
C      1  0.5031810000000  0.5394690000000  0.5036950000000 1.0
C      1  0.5216440000000  0.5176760000000  0.4949540000000 1.0
C      1  0.4026750000000  0.5128220000000  0.4710790000000 1.0
C      1  0.5256030000000  0.5343280000000  0.5598430000000 1.0
C      1  0.4675630000000  0.4128690000000  0.4487790000000 1.0
C      1  0.5551530000000  0.4056660000000  0.5014350000000 1.0
C      1  0.4789830000000  0.5046180000000  0.5249370000000 1.0
C      1  0.5604280000000  0.5709770000000  0.4710460000000 1.0
C      1  0.4363540000000  0.5213740000000  0.5855490000000 1.0
C      1  0.4688340000000  0.6054500000000  0.4771960000000 1.0
C      1  0.5412360000000  0.4704940000000  0.4074750000000 1.0
C      1  0.5200190000000  0.5433120000000  0.4580680000000 1.0
C      1  0.4231660000000  0.5145430000000  0.4349880000000 1.0
C      1  0.5156830000000  0.5065570000000  0.4309780000000 1.0
C      1  0.5505250000000  0.5406410000000  0.4310140000000 1.0
C      1  0.4374250000000  0.4474140000000  0.4382790000000 1.0
C      1  0.6048190000000  0.4945320000000  0.5210860000000 1.0
C      1  0.5580970000000  0.4610710000000  0.4314980000000 1.0
C      1  0.5222100000000  0.6006700000000  0.4894410000000 1.0
C      1  0.5179390000000  0.4456940000000  0.4825840000000 1.0
C      1  0.4441000000000  0.5883930000000  0.5163570000000 1.0
C      1  0.5836310000000  0.4470260000000  0.5387410000000 1.0
C      1  0.6040810000000  0.4824940000000  0.4933360000000 1.0
C      1  0.4770560000000  0.4555620000000  0.5043890000000 1.0
C      1  0.4910860000000  0.5433590000000  0.5881210000000 1.0
C      1  0.5988420000000  0.4728890000000  0.5388250000000 1.0
C      1  0.5862570000000  0.4794200000000  0.5659740000000 1.0
C      1  0.4700620000000  0.4004200000000  0.5147040000000 1.0
C      1  0.5740820000000  0.4275230000000  0.5046600000000 1.0
C      1  0.4258960000000  0.5529490000000  0.4592370000000 1.0
C      1  0.4399570000000  0.5452140000000  0.5703700000000 1.0
END
