TITL C-2441154-10-468 0.0322640593505453 125000 -12981.1993901289 0 0 95 (C1) n - 1
REM
REM in /home/bkarasulu/work/CARBON/AIRSS/Generating-Clusters/ReaxFF-fromJPCA2015/Units_Real/with-SteepDescent/Higher-Symm
REM
REM
REM
REM
REM
REM ./C.cell (1df0a924f5614ab8850e4351716899ee)
REM
REM compiler GCC version 9.2.1 20190827 (Red Hat 9.2.1-1)
REM options -cpp -mtune=generic -march=x86-64 -g -O0 -fpre-include=/usr/include/finclude/math-vector-fortran.h
REM seed -2074632985 -397444900 -628710706 1609204301 -2065400263 -1455472998 610052857 25407347 -1289036742 -247958407 -1381873436 539357195 -158422693 -1274426677 454104901 -541893853 -499486634 986108903 1422737474 573322639 1745474899 -96457998 1320426302 -685740297 -1228209551 927612876 905263839 -325772802 2117024285 20078815 -487422446 708537530 851721768
REM
CELL 1.54180   50.00000   50.00000   50.00000   90.00000   90.00000   90.00000
LATT -1
SFAC C  
C      1  0.4762200000000  0.4162560000000  0.4672230000000 1.0
C      1  0.4979830000000  0.5154430000000  0.5191490000000 1.0
C      1  0.5156250000000  0.5755680000000  0.5461100000000 1.0
C      1  0.5432160000000  0.4760450000000  0.4670080000000 1.0
C      1  0.4875660000000  0.4805860000000  0.4550620000000 1.0
C      1  0.4823960000000  0.4762500000000  0.4145670000000 1.0
C      1  0.5800390000000  0.5096160000000  0.5330700000000 1.0
C      1  0.5069890000000  0.5548920000000  0.4360900000000 1.0
C      1  0.5774850000000  0.5160850000000  0.4741730000000 1.0
C      1  0.5229950000000  0.4374180000000  0.4644030000000 1.0
C      1  0.4494600000000  0.5121480000000  0.4268550000000 1.0
C      1  0.5148220000000  0.4158050000000  0.4982420000000 1.0
C      1  0.5204460000000  0.5542470000000  0.5093920000000 1.0
C      1  0.5458070000000  0.4188450000000  0.4939980000000 1.0
C      1  0.5153180000000  0.5492590000000  0.5587770000000 1.0
C      1  0.5339170000000  0.4844660000000  0.5195450000000 1.0
C      1  0.4822040000000  0.5859840000000  0.5190460000000 1.0
C      1  0.4916540000000  0.4712540000000  0.5308030000000 1.0
C      1  0.5129670000000  0.4593270000000  0.5164850000000 1.0
C      1  0.5100660000000  0.5326170000000  0.4964940000000 1.0
C      1  0.5768720000000  0.4662580000000  0.5003160000000 1.0
C      1  0.4436570000000  0.4683650000000  0.4444910000000 1.0
C      1  0.4131510000000  0.5492640000000  0.5130340000000 1.0
C      1  0.4598500000000  0.5469060000000  0.4461320000000 1.0
C      1  0.5403180000000  0.5619900000000  0.4702540000000 1.0
C      1  0.4690200000000  0.4331000000000  0.5092390000000 1.0
C      1  0.5303950000000  0.4959070000000  0.4246800000000 1.0
C      1  0.4866940000000  0.5819220000000  0.5463270000000 1.0
C      1  0.4217630000000  0.4365900000000  0.5075730000000 1.0
C      1  0.4277840000000  0.5329000000000  0.5315400000000 1.0
C      1  0.5289160000000  0.4881080000000  0.4897010000000 1.0
C      1  0.4663110000000  0.4347410000000  0.4472050000000 1.0
C      1  0.5538200000000  0.4472130000000  0.5009490000000 1.0
C      1  0.5395010000000  0.5342360000000  0.5517590000000 1.0
C      1  0.4287750000000  0.5044360000000  0.5254080000000 1.0
C      1  0.4218710000000  0.5159620000000  0.4743420000000 1.0
C      1  0.4669900000000  0.5251900000000  0.4836500000000 1.0
C      1  0.4863830000000  0.4891570000000  0.5830530000000 1.0
C      1  0.5726830000000  0.5112730000000  0.5601220000000 1.0
C      1  0.5472000000000  0.5146440000000  0.5718230000000 1.0
C      1  0.4695110000000  0.5751320000000  0.4823110000000 1.0
C      1  0.5440730000000  0.4689830000000  0.5640910000000 1.0
C      1  0.5119190000000  0.4920000000000  0.5388160000000 1.0
C      1  0.4550120000000  0.5413910000000  0.5433150000000 1.0
C      1  0.5267380000000  0.4918080000000  0.5672280000000 1.0
C      1  0.5799000000000  0.4812600000000  0.5242770000000 1.0
C      1  0.4754270000000  0.4471490000000  0.5348850000000 1.0
C      1  0.5632630000000  0.5435740000000  0.5043660000000 1.0
C      1  0.5019700000000  0.4978810000000  0.4179950000000 1.0
C      1  0.4565280000000  0.5507570000000  0.4925090000000 1.0
C      1  0.5212540000000  0.4514340000000  0.5664600000000 1.0
C      1  0.4385000000000  0.4787900000000  0.5561430000000 1.0
C      1  0.5846310000000  0.4884970000000  0.4831800000000 1.0
C      1  0.4389280000000  0.5254020000000  0.4512200000000 1.0
C      1  0.4791210000000  0.4789970000000  0.4821620000000 1.0
C      1  0.5239300000000  0.5772180000000  0.4918950000000 1.0
C      1  0.4591910000000  0.4989570000000  0.4900750000000 1.0
C      1  0.5470790000000  0.4405900000000  0.5292710000000 1.0
C      1  0.4879070000000  0.4574450000000  0.4362450000000 1.0
C      1  0.4286750000000  0.4414060000000  0.5307450000000 1.0
C      1  0.4847640000000  0.5563980000000  0.4601510000000 1.0
C      1  0.4926200000000  0.5314130000000  0.4734170000000 1.0
C      1  0.5008160000000  0.4929560000000  0.4930300000000 1.0
C      1  0.5438610000000  0.5181420000000  0.4368190000000 1.0
C      1  0.4545840000000  0.4828660000000  0.4232970000000 1.0
C      1  0.5304510000000  0.5771450000000  0.5211920000000 1.0
C      1  0.5125440000000  0.4433540000000  0.4897920000000 1.0
C      1  0.4717160000000  0.5600940000000  0.5611730000000 1.0
C      1  0.4448930000000  0.4416970000000  0.4932860000000 1.0
C      1  0.5814680000000  0.5405960000000  0.4690610000000 1.0
C      1  0.4435820000000  0.4472270000000  0.4614680000000 1.0
C      1  0.4901480000000  0.5412100000000  0.5724360000000 1.0
C      1  0.5579730000000  0.5305690000000  0.5268560000000 1.0
C      1  0.4308090000000  0.4984210000000  0.4960190000000 1.0
C      1  0.4853130000000  0.4124830000000  0.4955590000000 1.0
C      1  0.5688800000000  0.5088290000000  0.4487020000000 1.0
C      1  0.4290870000000  0.5604790000000  0.4904180000000 1.0
C      1  0.4764230000000  0.5293490000000  0.5323330000000 1.0
C      1  0.5566800000000  0.4674930000000  0.5380500000000 1.0
C      1  0.5170620000000  0.4464780000000  0.4385940000000 1.0
C      1  0.4501720000000  0.5018760000000  0.5713970000000 1.0
C      1  0.5318660000000  0.5455490000000  0.4465420000000 1.0
C      1  0.4496550000000  0.4982590000000  0.5430330000000 1.0
C      1  0.5175870000000  0.4407090000000  0.5397550000000 1.0
C      1  0.5656600000000  0.5568650000000  0.4807780000000 1.0
C      1  0.4748730000000  0.5278730000000  0.4294770000000 1.0
C      1  0.5594970000000  0.4103270000000  0.5182670000000 1.0
C      1  0.4763760000000  0.5135740000000  0.5795500000000 1.0
C      1  0.5084500000000  0.4723370000000  0.5842550000000 1.0
C      1  0.5354570000000  0.4693200000000  0.4391990000000 1.0
C      1  0.4486910000000  0.4519550000000  0.5474940000000 1.0
C      1  0.4923650000000  0.5877580000000  0.4942820000000 1.0
C      1  0.5707310000000  0.4799520000000  0.4584750000000 1.0
C      1  0.4087460000000  0.5395920000000  0.4854250000000 1.0
C      1  0.4935110000000  0.5079120000000  0.4451410000000 1.0
END
