TITL C-2441166-8118-560 0.0480777028545679 125000 -13362.8890661745 0 0 99 (C1) n - 1
REM
REM in /home/bkarasulu/work/CARBON/AIRSS/Generating-Clusters/ReaxFF-fromJPCA2015/Units_Real/with-SteepDescent/Higher-Symm
REM
REM
REM
REM
REM
REM ./C.cell (1df0a924f5614ab8850e4351716899ee)
REM
REM compiler GCC version 9.2.1 20190827 (Red Hat 9.2.1-1)
REM options -cpp -mtune=generic -march=x86-64 -g -O0 -fpre-include=/usr/include/finclude/math-vector-fortran.h
REM seed -697392461 1957987082 981515719 1437313212 16887300 1624416911 -2111739276 1865254847 -742644601 -239657232 -421621694 1638345098 -1279770912 348766182 1793640333 1106328680 -913343284 -785838528 852211741 -386816995 -329867407 -1129854188 1054086194 -514864260 -273834441 1999373832 1317197785 1835871266 -878874873 -209739752 616447628 293322651 -1155249976
REM
CELL 1.54180   50.00000   50.00000   50.00000   90.00000   90.00000   90.00000
LATT -1
SFAC C  
C      1  0.5125240000000  0.5572270000000  0.4299330000000 1.0
C      1  0.5126420000000  0.4507190000000  0.4252390000000 1.0
C      1  0.5121060000000  0.4132050000000  0.5231970000000 1.0
C      1  0.5125620000000  0.4980180000000  0.5875130000000 1.0
C      1  0.5126800000000  0.5809110000000  0.5279260000000 1.0
C      1  0.4870200000000  0.5535960000000  0.5714150000000 1.0
C      1  0.4865350000000  0.4485930000000  0.5717700000000 1.0
C      1  0.4876060000000  0.4162600000000  0.4730180000000 1.0
C      1  0.4858880000000  0.5006110000000  0.4092960000000 1.0
C      1  0.4874810000000  0.5834780000000  0.4722980000000 1.0
C      1  0.5406570000000  0.4556090000000  0.4243310000000 1.0
C      1  0.5375730000000  0.4136250000000  0.5136260000000 1.0
C      1  0.5404380000000  0.4918990000000  0.5867300000000 1.0
C      1  0.5405810000000  0.5783990000000  0.5343650000000 1.0
C      1  0.5382050000000  0.5622530000000  0.4367890000000 1.0
C      1  0.4585080000000  0.4564650000000  0.5744490000000 1.0
C      1  0.4598570000000  0.4154470000000  0.4819170000000 1.0
C      1  0.4616220000000  0.4865040000000  0.4130800000000 1.0
C      1  0.4590920000000  0.5793590000000  0.4667120000000 1.0
C      1  0.4587820000000  0.5580050000000  0.5648490000000 1.0
C      1  0.4891640000000  0.5466390000000  0.4373370000000 1.0
C      1  0.4880520000000  0.4565460000000  0.4368570000000 1.0
C      1  0.4881840000000  0.4264450000000  0.5241120000000 1.0
C      1  0.4860690000000  0.4964550000000  0.5778620000000 1.0
C      1  0.4867920000000  0.5726850000000  0.5264110000000 1.0
C      1  0.5139950000000  0.5499570000000  0.5622110000000 1.0
C      1  0.5134380000000  0.4558550000000  0.5671330000000 1.0
C      1  0.5151440000000  0.4226690000000  0.4781680000000 1.0
C      1  0.5138630000000  0.4970220000000  0.4185260000000 1.0
C      1  0.5149140000000  0.5740920000000  0.4724700000000 1.0
C      1  0.4486900000000  0.5301560000000  0.5634820000000 1.0
C      1  0.4483930000000  0.5697710000000  0.4922010000000 1.0
C      1  0.4473930000000  0.5176890000000  0.4364230000000 1.0
C      1  0.4484300000000  0.4378990000000  0.4661850000000 1.0
C      1  0.4476400000000  0.4487830000000  0.5481400000000 1.0
C      1  0.5531460000000  0.5238110000000  0.4376760000000 1.0
C      1  0.5528660000000  0.5704510000000  0.5088330000000 1.0
C      1  0.5507290000000  0.5132280000000  0.5684720000000 1.0
C      1  0.5536040000000  0.4446510000000  0.5359610000000 1.0
C      1  0.5528520000000  0.4480660000000  0.4508020000000 1.0
C      1  0.5528280000000  0.5555770000000  0.5462580000000 1.0
C      1  0.5551630000000  0.5649850000000  0.4594850000000 1.0
C      1  0.5552620000000  0.4829130000000  0.4273900000000 1.0
C      1  0.5552980000000  0.4232360000000  0.4937850000000 1.0
C      1  0.5541300000000  0.4713440000000  0.5683080000000 1.0
C      1  0.4456690000000  0.5563000000000  0.4525290000000 1.0
C      1  0.4476010000000  0.5619240000000  0.5384330000000 1.0
C      1  0.4468960000000  0.4826280000000  0.5703460000000 1.0
C      1  0.4485500000000  0.4278030000000  0.5055070000000 1.0
C      1  0.4451690000000  0.4703850000000  0.4295410000000 1.0
C      1  0.4512900000000  0.5192000000000  0.4890380000000 1.0
C      1  0.4622390000000  0.4938960000000  0.4752980000000 1.0
C      1  0.4595790000000  0.4748250000000  0.4985140000000 1.0
C      1  0.4491540000000  0.4909670000000  0.5200900000000 1.0
C      1  0.4635070000000  0.5192350000000  0.5160950000000 1.0
C      1  0.5488630000000  0.5198670000000  0.5103430000000 1.0
C      1  0.5375680000000  0.4928570000000  0.5235410000000 1.0
C      1  0.5450450000000  0.4751550000000  0.5018530000000 1.0
C      1  0.5454630000000  0.4889640000000  0.4782950000000 1.0
C      1  0.5380790000000  0.5170730000000  0.4821010000000 1.0
C      1  0.5023480000000  0.5061050000000  0.5574580000000 1.0
C      1  0.5041410000000  0.5556880000000  0.5126860000000 1.0
C      1  0.5004570000000  0.5264330000000  0.4531750000000 1.0
C      1  0.5028180000000  0.4653820000000  0.4614870000000 1.0
C      1  0.5007940000000  0.4519380000000  0.5217070000000 1.0
C      1  0.4971090000000  0.5053720000000  0.4367950000000 1.0
C      1  0.4972080000000  0.5612100000000  0.4861970000000 1.0
C      1  0.4961080000000  0.5328150000000  0.5546870000000 1.0
C      1  0.4965200000000  0.4603170000000  0.5476120000000 1.0
C      1  0.4974970000000  0.4424410000000  0.4762090000000 1.0
C      1  0.5422900000000  0.4271270000000  0.4681830000000 1.0
C      1  0.5411060000000  0.4456970000000  0.5611810000000 1.0
C      1  0.5407310000000  0.5406300000000  0.5659520000000 1.0
C      1  0.5422330000000  0.5771120000000  0.4825540000000 1.0
C      1  0.5416970000000  0.5073400000000  0.4177750000000 1.0
C      1  0.4594700000000  0.4284420000000  0.5308840000000 1.0
C      1  0.4591170000000  0.4473990000000  0.4409750000000 1.0
C      1  0.4596390000000  0.5423860000000  0.4307490000000 1.0
C      1  0.4600570000000  0.5760320000000  0.5182100000000 1.0
C      1  0.4590520000000  0.5066510000000  0.5774970000000 1.0
C      1  0.5591940000000  0.4495050000000  0.5086000000000 1.0
C      1  0.5552750000000  0.4925660000000  0.5482020000000 1.0
C      1  0.5613500000000  0.5452630000000  0.5215450000000 1.0
C      1  0.5564720000000  0.5352550000000  0.4627560000000 1.0
C      1  0.5595010000000  0.4765460000000  0.4557410000000 1.0
C      1  0.4429100000000  0.4516690000000  0.4917540000000 1.0
C      1  0.4438570000000  0.4933900000000  0.4499690000000 1.0
C      1  0.4403100000000  0.5448360000000  0.4791700000000 1.0
C      1  0.4447140000000  0.5339870000000  0.5347020000000 1.0
C      1  0.4393770000000  0.4765690000000  0.5438670000000 1.0
C      1  0.4942020000000  0.4879120000000  0.4778070000000 1.0
C      1  0.4928990000000  0.4758590000000  0.5064230000000 1.0
C      1  0.5061710000000  0.5166970000000  0.4809710000000 1.0
C      1  0.5057790000000  0.4980390000000  0.5240180000000 1.0
C      1  0.4945700000000  0.5218300000000  0.5105960000000 1.0
C      1  0.4030040000000  0.4980230000000  0.4968240000000 1.0
C      1  0.5950590000000  0.4977560000000  0.4986010000000 1.0
C      1  0.5764690000000  0.5107960000000  0.5059090000000 1.0
C      1  0.4252480000000  0.5045280000000  0.5036780000000 1.0
END
