TITL C-2441160-1326-7 0.0698434877861967 125000 -17661.7938951762 0 0 131 (C1) n - 1
REM
REM in /home/bkarasulu/work/CARBON/AIRSS/Generating-Clusters/ReaxFF-fromJPCA2015/Units_Real/with-SteepDescent/Higher-Symm
REM
REM
REM
REM
REM
REM ./C.cell (1df0a924f5614ab8850e4351716899ee)
REM
REM compiler GCC version 9.2.1 20190827 (Red Hat 9.2.1-1)
REM options -cpp -mtune=generic -march=x86-64 -g -O0 -fpre-include=/usr/include/finclude/math-vector-fortran.h
REM seed -37063565 2073548624 -318710884 46412489 -1246408315 234623068 1655104922 705361669 125088619 602418436 -105474777 -260112337 701942063 -1194282257 109417560 2038391344 44177618 1804688823 1998365758 1218348523 534195456 -387263685 1362601360 -654706252 -1901128159 1513270830 -1270232547 1646251919 1973052564 264952914 462011714 -1858491727 -1730805536
REM
CELL 1.54180   50.00000   50.00000   50.00000   90.00000   90.00000   90.00000
LATT -1
SFAC C  
C      1  0.4668060000000  0.5375900000000  0.5458500000000 1.0
C      1  0.5399330000000  0.5428220000000  0.5330110000000 1.0
C      1  0.5463840000000  0.4771840000000  0.5464770000000 1.0
C      1  0.4233070000000  0.4537960000000  0.5065640000000 1.0
C      1  0.4936170000000  0.4800470000000  0.4997400000000 1.0
C      1  0.5098020000000  0.4111610000000  0.4631280000000 1.0
C      1  0.4977960000000  0.4403630000000  0.5742840000000 1.0
C      1  0.5632220000000  0.4587950000000  0.4669430000000 1.0
C      1  0.5371610000000  0.5827050000000  0.5288690000000 1.0
C      1  0.5366390000000  0.4434650000000  0.4724380000000 1.0
C      1  0.4249030000000  0.5271510000000  0.4673980000000 1.0
C      1  0.4289850000000  0.5171680000000  0.4398720000000 1.0
C      1  0.5381250000000  0.4466930000000  0.4309600000000 1.0
C      1  0.5647460000000  0.4546680000000  0.4370860000000 1.0
C      1  0.4716620000000  0.4570370000000  0.4212610000000 1.0
C      1  0.4965900000000  0.5356730000000  0.3925850000000 1.0
C      1  0.5758590000000  0.4472060000000  0.5152440000000 1.0
C      1  0.5462870000000  0.5150410000000  0.5330510000000 1.0
C      1  0.4297770000000  0.5546160000000  0.5022380000000 1.0
C      1  0.4909460000000  0.4536030000000  0.4862070000000 1.0
C      1  0.5008240000000  0.4800390000000  0.4094040000000 1.0
C      1  0.4684260000000  0.4390740000000  0.4419200000000 1.0
C      1  0.4045630000000  0.5228630000000  0.4920230000000 1.0
C      1  0.4359590000000  0.4704860000000  0.5637340000000 1.0
C      1  0.5424600000000  0.5313610000000  0.4821770000000 1.0
C      1  0.4199090000000  0.4735100000000  0.4611450000000 1.0
C      1  0.4999190000000  0.4006220000000  0.4886090000000 1.0
C      1  0.4347600000000  0.5367540000000  0.5698670000000 1.0
C      1  0.5203460000000  0.5550240000000  0.4413390000000 1.0
C      1  0.4716680000000  0.5964750000000  0.4821540000000 1.0
C      1  0.4594290000000  0.5936220000000  0.5095100000000 1.0
C      1  0.4655850000000  0.4873150000000  0.4690670000000 1.0
C      1  0.4511100000000  0.4572370000000  0.5094580000000 1.0
C      1  0.5209300000000  0.5081860000000  0.5850030000000 1.0
C      1  0.4684710000000  0.4463800000000  0.5762720000000 1.0
C      1  0.5409500000000  0.4290780000000  0.5469190000000 1.0
C      1  0.4918170000000  0.4796360000000  0.5428880000000 1.0
C      1  0.5007220000000  0.4881080000000  0.5919060000000 1.0
C      1  0.5090920000000  0.5089660000000  0.4590580000000 1.0
C      1  0.5447770000000  0.4946010000000  0.4128810000000 1.0
C      1  0.4802550000000  0.5767040000000  0.4448460000000 1.0
C      1  0.5570700000000  0.5542810000000  0.4662790000000 1.0
C      1  0.4786380000000  0.5270580000000  0.5026180000000 1.0
C      1  0.5373020000000  0.5063700000000  0.4593850000000 1.0
C      1  0.5029440000000  0.4078390000000  0.5366740000000 1.0
C      1  0.5108230000000  0.5277450000000  0.4118010000000 1.0
C      1  0.4105440000000  0.4759400000000  0.5220800000000 1.0
C      1  0.5051930000000  0.4681330000000  0.5715220000000 1.0
C      1  0.5843440000000  0.4588110000000  0.4901800000000 1.0
C      1  0.4710330000000  0.5839210000000  0.5554450000000 1.0
C      1  0.4755340000000  0.5243470000000  0.4330870000000 1.0
C      1  0.4454610000000  0.5523220000000  0.4733770000000 1.0
C      1  0.5189850000000  0.4497020000000  0.4950400000000 1.0
C      1  0.5155710000000  0.4551010000000  0.4488720000000 1.0
C      1  0.5435420000000  0.5648580000000  0.5519690000000 1.0
C      1  0.4741150000000  0.4101620000000  0.4988670000000 1.0
C      1  0.5176490000000  0.4001960000000  0.5123400000000 1.0
C      1  0.4634710000000  0.4610070000000  0.4811510000000 1.0
C      1  0.4012240000000  0.4947570000000  0.5010280000000 1.0
C      1  0.5787800000000  0.5019490000000  0.4423850000000 1.0
C      1  0.5532020000000  0.5799700000000  0.4788990000000 1.0
C      1  0.5498610000000  0.4841070000000  0.4715180000000 1.0
C      1  0.5169240000000  0.5727370000000  0.4998210000000 1.0
C      1  0.4498470000000  0.5669280000000  0.5194670000000 1.0
C      1  0.5678560000000  0.5069810000000  0.5712390000000 1.0
C      1  0.5243340000000  0.4670280000000  0.4198320000000 1.0
C      1  0.5925980000000  0.4859130000000  0.4937340000000 1.0
C      1  0.4494600000000  0.4461820000000  0.5542930000000 1.0
C      1  0.5569170000000  0.4793570000000  0.5749970000000 1.0
C      1  0.4581260000000  0.5072650000000  0.5127070000000 1.0
C      1  0.4530650000000  0.4366330000000  0.5283380000000 1.0
C      1  0.4226160000000  0.5187440000000  0.5452110000000 1.0
C      1  0.4731710000000  0.5473440000000  0.4821310000000 1.0
C      1  0.5179900000000  0.5427790000000  0.4958040000000 1.0
C      1  0.5576450000000  0.5810160000000  0.5088070000000 1.0
C      1  0.5477050000000  0.5134260000000  0.5052400000000 1.0
C      1  0.4503930000000  0.5365540000000  0.4328380000000 1.0
C      1  0.5441140000000  0.4875560000000  0.4984020000000 1.0
C      1  0.5253250000000  0.5871950000000  0.4749620000000 1.0
C      1  0.4708970000000  0.4816350000000  0.5186100000000 1.0
C      1  0.5433590000000  0.4090700000000  0.5021750000000 1.0
C      1  0.5371460000000  0.4138010000000  0.4733540000000 1.0
C      1  0.5365500000000  0.5495890000000  0.5757990000000 1.0
C      1  0.5092140000000  0.5177630000000  0.5600670000000 1.0
C      1  0.5275580000000  0.4542250000000  0.5399890000000 1.0
C      1  0.5000470000000  0.4529230000000  0.5337650000000 1.0
C      1  0.4160330000000  0.5336510000000  0.5153810000000 1.0
C      1  0.5746400000000  0.5115760000000  0.5423560000000 1.0
C      1  0.4798530000000  0.5479400000000  0.5240220000000 1.0
C      1  0.5095090000000  0.5805240000000  0.4501260000000 1.0
C      1  0.4196020000000  0.4876970000000  0.5468240000000 1.0
C      1  0.5202370000000  0.4754740000000  0.5057030000000 1.0
C      1  0.5533250000000  0.5171650000000  0.4356060000000 1.0
C      1  0.5053560000000  0.5063550000000  0.5347870000000 1.0
C      1  0.4562120000000  0.4718590000000  0.5859340000000 1.0
C      1  0.4576680000000  0.4204100000000  0.4804990000000 1.0
C      1  0.4718270000000  0.4959700000000  0.5903700000000 1.0
C      1  0.4766380000000  0.6004100000000  0.5324400000000 1.0
C      1  0.4907180000000  0.4873030000000  0.4546540000000 1.0
C      1  0.5154630000000  0.4202720000000  0.5593020000000 1.0
C      1  0.5568850000000  0.4255130000000  0.5220590000000 1.0
C      1  0.4884830000000  0.5709560000000  0.4867250000000 1.0
C      1  0.4959200000000  0.4315340000000  0.4463690000000 1.0
C      1  0.5735250000000  0.4700900000000  0.5338270000000 1.0
C      1  0.4830980000000  0.5377260000000  0.5900050000000 1.0
C      1  0.4999430000000  0.5321460000000  0.4456510000000 1.0
C      1  0.5039410000000  0.5559980000000  0.5389610000000 1.0
C      1  0.4466640000000  0.5077980000000  0.4803460000000 1.0
C      1  0.4810050000000  0.4262520000000  0.5262200000000 1.0
C      1  0.4511700000000  0.5156220000000  0.5393180000000 1.0
C      1  0.5068020000000  0.5464950000000  0.5688990000000 1.0
C      1  0.5929040000000  0.5263110000000  0.4859350000000 1.0
C      1  0.5922140000000  0.5035220000000  0.4687020000000 1.0
C      1  0.5688890000000  0.4805520000000  0.4250840000000 1.0
C      1  0.4543750000000  0.4797120000000  0.4213590000000 1.0
C      1  0.4218400000000  0.4493870000000  0.4770480000000 1.0
C      1  0.4312950000000  0.4881580000000  0.4372460000000 1.0
C      1  0.4422850000000  0.4328690000000  0.4621460000000 1.0
C      1  0.5483100000000  0.5471070000000  0.4402340000000 1.0
C      1  0.5462370000000  0.5235710000000  0.5842910000000 1.0
C      1  0.5640200000000  0.5535950000000  0.5175270000000 1.0
C      1  0.4508670000000  0.5622190000000  0.5529530000000 1.0
C      1  0.4797170000000  0.4968850000000  0.4269130000000 1.0
C      1  0.4596650000000  0.5235870000000  0.5862800000000 1.0
C      1  0.5053210000000  0.5207790000000  0.5097690000000 1.0
C      1  0.4989250000000  0.5844100000000  0.5443360000000 1.0
C      1  0.5867280000000  0.4930160000000  0.5232930000000 1.0
C      1  0.4545550000000  0.5633100000000  0.4458260000000 1.0
C      1  0.5185460000000  0.5013140000000  0.3995740000000 1.0
C      1  0.4250890000000  0.4891840000000  0.4850620000000 1.0
C      1  0.5810410000000  0.5397280000000  0.5005520000000 1.0
END
