TITL C-2441167-4473-323 0.0466460922308709 125000 -20096.3651519062 0 0 142 (C1) n - 1
REM
REM in /home/bkarasulu/work/CARBON/AIRSS/Generating-Clusters/ReaxFF-fromJPCA2015/Units_Real/with-SteepDescent/Higher-Symm
REM
REM
REM
REM
REM
REM ./C.cell (1df0a924f5614ab8850e4351716899ee)
REM
REM compiler GCC version 9.2.1 20190827 (Red Hat 9.2.1-1)
REM options -cpp -mtune=generic -march=x86-64 -g -O0 -fpre-include=/usr/include/finclude/math-vector-fortran.h
REM seed -474630519 1631227478 1260606993 1226236912 626452301 -382563340 -1614515993 -1443962053 -1705849014 691059476 1085644371 -1297850199 812394552 1944357754 1880681387 -1939573017 75512265 1272361706 1362897583 -583546108 -664083495 1515887137 -346094744 2111397616 -1314493620 462178330 900166602 576722976 -1864654422 2000482231 -33422154 428754408 -961381379
REM
CELL 1.54180   50.00000   50.00000   50.00000   90.00000   90.00000   90.00000
LATT -1
SFAC C  
C      1  0.4805630000000  0.6051270000000  0.4717020000000 1.0
C      1  0.4919770000000  0.5215890000000  0.6064680000000 1.0
C      1  0.4919850000000  0.3930960000000  0.5211810000000 1.0
C      1  0.4922690000000  0.4789730000000  0.3937360000000 1.0
C      1  0.5078500000000  0.6058120000000  0.4790020000000 1.0
C      1  0.5191810000000  0.5287600000000  0.6054720000000 1.0
C      1  0.5191170000000  0.3948100000000  0.5286380000000 1.0
C      1  0.5195450000000  0.4716400000000  0.3948660000000 1.0
C      1  0.5963500000000  0.4753570000000  0.4808190000000 1.0
C      1  0.5982200000000  0.5271490000000  0.4768990000000 1.0
C      1  0.5982670000000  0.5250350000000  0.5192750000000 1.0
C      1  0.5975500000000  0.4753350000000  0.5200680000000 1.0
C      1  0.3999240000000  0.4791700000000  0.4758370000000 1.0
C      1  0.4028220000000  0.5192710000000  0.4792500000000 1.0
C      1  0.4022470000000  0.5235370000000  0.5214150000000 1.0
C      1  0.4039090000000  0.4741650000000  0.5270660000000 1.0
C      1  0.5147180000000  0.5448360000000  0.4220420000000 1.0
C      1  0.5147720000000  0.5786830000000  0.5468240000000 1.0
C      1  0.5145580000000  0.4547870000000  0.5793540000000 1.0
C      1  0.5151420000000  0.4215840000000  0.4550670000000 1.0
C      1  0.4845720000000  0.5462030000000  0.4221920000000 1.0
C      1  0.4845200000000  0.5783020000000  0.5450030000000 1.0
C      1  0.4846420000000  0.4531790000000  0.5789840000000 1.0
C      1  0.4841620000000  0.4214940000000  0.4535820000000 1.0
C      1  0.5543620000000  0.5182950000000  0.4770190000000 1.0
C      1  0.5559200000000  0.5248250000000  0.5190770000000 1.0
C      1  0.5544520000000  0.4768570000000  0.5243870000000 1.0
C      1  0.5531550000000  0.4765300000000  0.4802340000000 1.0
C      1  0.4472430000000  0.5155110000000  0.4774060000000 1.0
C      1  0.4476180000000  0.5285500000000  0.5199850000000 1.0
C      1  0.4486480000000  0.4822000000000  0.5193030000000 1.0
C      1  0.4463620000000  0.4618430000000  0.4790840000000 1.0
C      1  0.4777260000000  0.5880490000000  0.5191020000000 1.0
C      1  0.4760790000000  0.4786330000000  0.5893590000000 1.0
C      1  0.4750300000000  0.4111440000000  0.4790680000000 1.0
C      1  0.4759860000000  0.5213150000000  0.4120470000000 1.0
C      1  0.5241920000000  0.5888650000000  0.5218500000000 1.0
C      1  0.5216330000000  0.4803210000000  0.5894000000000 1.0
C      1  0.5217190000000  0.4115580000000  0.4808690000000 1.0
C      1  0.5220630000000  0.5195290000000  0.4116050000000 1.0
C      1  0.5903200000000  0.4491060000000  0.5107010000000 1.0
C      1  0.5938600000000  0.4926780000000  0.4576080000000 1.0
C      1  0.5907680000000  0.5511380000000  0.4903400000000 1.0
C      1  0.5936680000000  0.5089380000000  0.5429270000000 1.0
C      1  0.4045280000000  0.4545550000000  0.5073600000000 1.0
C      1  0.4088990000000  0.4912660000000  0.4515780000000 1.0
C      1  0.4109970000000  0.5452410000000  0.4897390000000 1.0
C      1  0.4086240000000  0.5094720000000  0.5458580000000 1.0
C      1  0.4592610000000  0.4468090000000  0.5653310000000 1.0
C      1  0.4596470000000  0.4348830000000  0.4465860000000 1.0
C      1  0.4580670000000  0.5519960000000  0.4352590000000 1.0
C      1  0.4587770000000  0.5658840000000  0.5524440000000 1.0
C      1  0.5414410000000  0.4480510000000  0.5671540000000 1.0
C      1  0.5408250000000  0.4337600000000  0.4477490000000 1.0
C      1  0.5410890000000  0.5516940000000  0.4346320000000 1.0
C      1  0.5409950000000  0.5663530000000  0.5524620000000 1.0
C      1  0.4396650000000  0.4690440000000  0.5658940000000 1.0
C      1  0.4368730000000  0.4360980000000  0.4695060000000 1.0
C      1  0.4370580000000  0.5309430000000  0.4356690000000 1.0
C      1  0.4377940000000  0.5660500000000  0.5305440000000 1.0
C      1  0.5618700000000  0.4698610000000  0.5659280000000 1.0
C      1  0.5607390000000  0.4337550000000  0.4706050000000 1.0
C      1  0.5620570000000  0.5302960000000  0.4342200000000 1.0
C      1  0.5624750000000  0.5662580000000  0.5306430000000 1.0
C      1  0.5641090000000  0.4851300000000  0.4554910000000 1.0
C      1  0.5627790000000  0.5444240000000  0.4852470000000 1.0
C      1  0.5666090000000  0.5220740000000  0.5462320000000 1.0
C      1  0.5647850000000  0.4514370000000  0.5216560000000 1.0
C      1  0.4386380000000  0.4863010000000  0.4586480000000 1.0
C      1  0.4382550000000  0.5415950000000  0.4838920000000 1.0
C      1  0.4349470000000  0.5236250000000  0.5470270000000 1.0
C      1  0.4381140000000  0.4572760000000  0.5091100000000 1.0
C      1  0.4119650000000  0.5210380000000  0.4522850000000 1.0
C      1  0.4133120000000  0.5496050000000  0.5200880000000 1.0
C      1  0.4149070000000  0.4797250000000  0.5504990000000 1.0
C      1  0.4077900000000  0.4526130000000  0.4786790000000 1.0
C      1  0.5882450000000  0.5218950000000  0.4514590000000 1.0
C      1  0.5876490000000  0.5513770000000  0.5205570000000 1.0
C      1  0.5879550000000  0.4792350000000  0.5466130000000 1.0
C      1  0.5853520000000  0.4492730000000  0.4801830000000 1.0
C      1  0.5299440000000  0.5227560000000  0.4641140000000 1.0
C      1  0.5305380000000  0.5350910000000  0.5232100000000 1.0
C      1  0.5289640000000  0.4754780000000  0.5363010000000 1.0
C      1  0.5297890000000  0.4623060000000  0.4770220000000 1.0
C      1  0.4721970000000  0.5216150000000  0.4655930000000 1.0
C      1  0.4735460000000  0.5383280000000  0.5252810000000 1.0
C      1  0.4700590000000  0.4779770000000  0.5368480000000 1.0
C      1  0.4730560000000  0.4621280000000  0.4773060000000 1.0
C      1  0.4860760000000  0.5455450000000  0.4733170000000 1.0
C      1  0.4871570000000  0.5278990000000  0.5484520000000 1.0
C      1  0.4845370000000  0.4536400000000  0.5282850000000 1.0
C      1  0.4862160000000  0.4724780000000  0.4555690000000 1.0
C      1  0.5159970000000  0.5456270000000  0.4738500000000 1.0
C      1  0.5180510000000  0.5250400000000  0.5472680000000 1.0
C      1  0.5149840000000  0.4520990000000  0.5275450000000 1.0
C      1  0.5155210000000  0.4718560000000  0.4533250000000 1.0
C      1  0.5402870000000  0.4519660000000  0.4244270000000 1.0
C      1  0.5380730000000  0.5736360000000  0.4543510000000 1.0
C      1  0.5395710000000  0.5489500000000  0.5761540000000 1.0
C      1  0.5388000000000  0.4248450000000  0.5486980000000 1.0
C      1  0.4619280000000  0.4552100000000  0.4260870000000 1.0
C      1  0.4596170000000  0.5745760000000  0.4537700000000 1.0
C      1  0.4615200000000  0.5477050000000  0.5758000000000 1.0
C      1  0.4604040000000  0.4245310000000  0.5454790000000 1.0
C      1  0.5469120000000  0.4209110000000  0.4920950000000 1.0
C      1  0.5480650000000  0.5090310000000  0.4206880000000 1.0
C      1  0.5490830000000  0.5792070000000  0.5091910000000 1.0
C      1  0.5471220000000  0.4900810000000  0.5787570000000 1.0
C      1  0.4500640000000  0.4199160000000  0.4909770000000 1.0
C      1  0.4502740000000  0.5097140000000  0.4214000000000 1.0
C      1  0.4521020000000  0.5782240000000  0.5087690000000 1.0
C      1  0.4516740000000  0.4909630000000  0.5796330000000 1.0
C      1  0.5484340000000  0.4803680000000  0.4309340000000 1.0
C      1  0.5482620000000  0.5678280000000  0.4815310000000 1.0
C      1  0.5463970000000  0.5202860000000  0.5680290000000 1.0
C      1  0.5483250000000  0.4303490000000  0.5207600000000 1.0
C      1  0.4496590000000  0.4821710000000  0.4321600000000 1.0
C      1  0.4518330000000  0.5660440000000  0.4814280000000 1.0
C      1  0.4527850000000  0.5197030000000  0.5693800000000 1.0
C      1  0.4508400000000  0.4312750000000  0.5176800000000 1.0
C      1  0.5144230000000  0.4566020000000  0.4990930000000 1.0
C      1  0.5143890000000  0.5012440000000  0.4573070000000 1.0
C      1  0.5152880000000  0.5416460000000  0.5020900000000 1.0
C      1  0.5141480000000  0.4973690000000  0.5411660000000 1.0
C      1  0.4875290000000  0.4579800000000  0.4987040000000 1.0
C      1  0.4868690000000  0.5007180000000  0.4583200000000 1.0
C      1  0.4882760000000  0.5430310000000  0.5028480000000 1.0
C      1  0.4871320000000  0.4990360000000  0.5440020000000 1.0
C      1  0.5153050000000  0.5535370000000  0.5930210000000 1.0
C      1  0.5145880000000  0.4080690000000  0.5528910000000 1.0
C      1  0.5153720000000  0.4473460000000  0.4080600000000 1.0
C      1  0.5151780000000  0.5911470000000  0.4543170000000 1.0
C      1  0.4844700000000  0.5470950000000  0.5932380000000 1.0
C      1  0.4840010000000  0.4072370000000  0.5457970000000 1.0
C      1  0.4848080000000  0.4541830000000  0.4078200000000 1.0
C      1  0.4842490000000  0.5908930000000  0.4479830000000 1.0
C      1  0.4977490000000  0.4955760000000  0.5950770000000 1.0
C      1  0.4980150000000  0.5046340000000  0.4059010000000 1.0
C      1  0.5019170000000  0.5943180000000  0.5048830000000 1.0
C      1  0.4974780000000  0.4049840000000  0.4953440000000 1.0
C      1  0.5510870000000  0.4976830000000  0.5018100000000 1.0
C      1  0.4486120000000  0.5054310000000  0.5041830000000 1.0
END
