TITL C-2441168-9922-408 0.0711594431570604 125000 -18592.2527647438 0 0 136 (C1) n - 1
REM
REM in /home/bkarasulu/work/CARBON/AIRSS/Generating-Clusters/ReaxFF-fromJPCA2015/Units_Real/with-SteepDescent/Higher-Symm
REM
REM
REM
REM
REM
REM ./C.cell (1df0a924f5614ab8850e4351716899ee)
REM
REM compiler GCC version 9.2.1 20190827 (Red Hat 9.2.1-1)
REM options -cpp -mtune=generic -march=x86-64 -g -O0 -fpre-include=/usr/include/finclude/math-vector-fortran.h
REM seed -1998592942 784207555 -1753740136 -1417101363 -1597739768 -1956600533 -755015999 -681354627 -665275156 -1762781366 -271169765 85869868 -1063787746 244046803 1257512258 2021751508 -907658512 603536388 -404164883 279468782 -508752544 -935210722 2136305053 1356915336 87850155 1394981916 -2062090096 396261192 1006375397 1676039070 -1580994082 1668295396 588535224
REM
CELL 1.54180   50.00000   50.00000   50.00000   90.00000   90.00000   90.00000
LATT -1
SFAC C  
C      1  0.5259680000000  0.4199960000000  0.5508340000000 1.0
C      1  0.5316420000000  0.5121240000000  0.5980340000000 1.0
C      1  0.5272100000000  0.5932060000000  0.5036150000000 1.0
C      1  0.5275800000000  0.5311470000000  0.4103640000000 1.0
C      1  0.5273890000000  0.4256730000000  0.4417850000000 1.0
C      1  0.4722710000000  0.5197180000000  0.5458090000000 1.0
C      1  0.4721760000000  0.5524520000000  0.4963680000000 1.0
C      1  0.4748190000000  0.5154180000000  0.4483760000000 1.0
C      1  0.4756870000000  0.4537640000000  0.4683210000000 1.0
C      1  0.4736690000000  0.4578140000000  0.5360000000000 1.0
C      1  0.5353820000000  0.5881510000000  0.4756310000000 1.0
C      1  0.5421880000000  0.5052420000000  0.4074630000000 1.0
C      1  0.5408230000000  0.4129730000000  0.4657070000000 1.0
C      1  0.5380080000000  0.4371250000000  0.5726930000000 1.0
C      1  0.5342630000000  0.5471560000000  0.5777350000000 1.0
C      1  0.4714510000000  0.5016580000000  0.4729190000000 1.0
C      1  0.4825050000000  0.4767800000000  0.4826670000000 1.0
C      1  0.4788390000000  0.4784300000000  0.5161450000000 1.0
C      1  0.4790690000000  0.5092660000000  0.5211080000000 1.0
C      1  0.4779390000000  0.5242290000000  0.4952460000000 1.0
C      1  0.5105390000000  0.5616320000000  0.4415040000000 1.0
C      1  0.5031040000000  0.4694110000000  0.4149800000000 1.0
C      1  0.5038730000000  0.4136390000000  0.5043970000000 1.0
C      1  0.4999450000000  0.5037230000000  0.5687890000000 1.0
C      1  0.5028540000000  0.5731480000000  0.5519930000000 1.0
C      1  0.4538410000000  0.4831260000000  0.4197470000000 1.0
C      1  0.4553790000000  0.4173590000000  0.4922550000000 1.0
C      1  0.4620390000000  0.4679600000000  0.5760840000000 1.0
C      1  0.4542630000000  0.5607860000000  0.5571620000000 1.0
C      1  0.4573680000000  0.5736720000000  0.4601020000000 1.0
C      1  0.4608370000000  0.5812990000000  0.5371800000000 1.0
C      1  0.4619640000000  0.5614200000000  0.4345560000000 1.0
C      1  0.4599980000000  0.4544380000000  0.4215770000000 1.0
C      1  0.4602230000000  0.4111070000000  0.5199420000000 1.0
C      1  0.4650140000000  0.4932500000000  0.5895390000000 1.0
C      1  0.5444270000000  0.4776630000000  0.5714370000000 1.0
C      1  0.5495780000000  0.5710730000000  0.5314410000000 1.0
C      1  0.5576040000000  0.5538270000000  0.4549780000000 1.0
C      1  0.5502970000000  0.4691540000000  0.4335740000000 1.0
C      1  0.5502890000000  0.4270030000000  0.5084700000000 1.0
C      1  0.5227850000000  0.5474990000000  0.4909420000000 1.0
C      1  0.5248460000000  0.5114960000000  0.4492360000000 1.0
C      1  0.5276840000000  0.4574610000000  0.4769360000000 1.0
C      1  0.5286340000000  0.4653230000000  0.5319590000000 1.0
C      1  0.5213810000000  0.5265680000000  0.5397210000000 1.0
C      1  0.5166110000000  0.5040360000000  0.4748580000000 1.0
C      1  0.5105040000000  0.4787530000000  0.4852400000000 1.0
C      1  0.5098060000000  0.4819150000000  0.5170340000000 1.0
C      1  0.5087650000000  0.5110090000000  0.5197770000000 1.0
C      1  0.5100050000000  0.5232330000000  0.4931880000000 1.0
C      1  0.4060570000000  0.5233460000000  0.5156370000000 1.0
C      1  0.4050300000000  0.5187290000000  0.4810610000000 1.0
C      1  0.4023190000000  0.4891690000000  0.4755950000000 1.0
C      1  0.4067390000000  0.4725740000000  0.5008780000000 1.0
C      1  0.4071690000000  0.4934040000000  0.5289090000000 1.0
C      1  0.5863040000000  0.5025620000000  0.5480690000000 1.0
C      1  0.5871070000000  0.5442610000000  0.5138810000000 1.0
C      1  0.5940560000000  0.5225430000000  0.4627140000000 1.0
C      1  0.5921530000000  0.4676060000000  0.4635830000000 1.0
C      1  0.5893770000000  0.4563900000000  0.5169990000000 1.0
C      1  0.5274190000000  0.5018020000000  0.5700260000000 1.0
C      1  0.5280590000000  0.5647500000000  0.5129440000000 1.0
C      1  0.5316420000000  0.5400200000000  0.4415060000000 1.0
C      1  0.5305400000000  0.4542570000000  0.4486360000000 1.0
C      1  0.5297200000000  0.4373240000000  0.5265030000000 1.0
C      1  0.4968650000000  0.5291180000000  0.5563940000000 1.0
C      1  0.4952970000000  0.5671270000000  0.4901820000000 1.0
C      1  0.4967820000000  0.5111350000000  0.4315980000000 1.0
C      1  0.4961510000000  0.4357840000000  0.4667130000000 1.0
C      1  0.4966480000000  0.4493210000000  0.5512330000000 1.0
C      1  0.5624940000000  0.4306790000000  0.4627750000000 1.0
C      1  0.5589050000000  0.4448050000000  0.5544020000000 1.0
C      1  0.5577060000000  0.5305650000000  0.5749530000000 1.0
C      1  0.5583680000000  0.5702600000000  0.4786260000000 1.0
C      1  0.5626970000000  0.5159960000000  0.4238140000000 1.0
C      1  0.4545770000000  0.5107650000000  0.5674600000000 1.0
C      1  0.4531990000000  0.5691640000000  0.5109250000000 1.0
C      1  0.4549470000000  0.5327710000000  0.4365250000000 1.0
C      1  0.4531870000000  0.4481310000000  0.4495680000000 1.0
C      1  0.4539710000000  0.4363910000000  0.5339460000000 1.0
C      1  0.4839530000000  0.4172180000000  0.4841470000000 1.0
C      1  0.4913280000000  0.4612670000000  0.5776830000000 1.0
C      1  0.4822510000000  0.5565850000000  0.5635990000000 1.0
C      1  0.4840530000000  0.5834990000000  0.4684190000000 1.0
C      1  0.4822590000000  0.4888980000000  0.4174670000000 1.0
C      1  0.5701820000000  0.4369060000000  0.5294370000000 1.0
C      1  0.5673870000000  0.5042010000000  0.5700400000000 1.0
C      1  0.5684290000000  0.5654680000000  0.5086880000000 1.0
C      1  0.5753710000000  0.5340730000000  0.4422570000000 1.0
C      1  0.5730170000000  0.4519710000000  0.4471940000000 1.0
C      1  0.4276000000000  0.5235210000000  0.4392170000000 1.0
C      1  0.4272250000000  0.4492380000000  0.4613230000000 1.0
C      1  0.4276270000000  0.4469810000000  0.5376510000000 1.0
C      1  0.4269540000000  0.5176900000000  0.5640110000000 1.0
C      1  0.4262470000000  0.5648700000000  0.5023320000000 1.0
C      1  0.4980770000000  0.5940460000000  0.5057580000000 1.0
C      1  0.4993580000000  0.5335080000000  0.4109320000000 1.0
C      1  0.4986490000000  0.4263570000000  0.4394100000000 1.0
C      1  0.4973990000000  0.4189460000000  0.5525090000000 1.0
C      1  0.5110880000000  0.5310970000000  0.5970520000000 1.0
C      1  0.4152560000000  0.5408930000000  0.4601230000000 1.0
C      1  0.4162980000000  0.4766900000000  0.4539300000000 1.0
C      1  0.4159470000000  0.4448370000000  0.5094550000000 1.0
C      1  0.4172880000000  0.4894890000000  0.5572000000000 1.0
C      1  0.4140730000000  0.5501760000000  0.5264110000000 1.0
C      1  0.5114110000000  0.5844010000000  0.4579190000000 1.0
C      1  0.5319850000000  0.4769070000000  0.4132350000000 1.0
C      1  0.5312890000000  0.4109040000000  0.4943350000000 1.0
C      1  0.5219610000000  0.4616640000000  0.5814570000000 1.0
C      1  0.5314050000000  0.5660200000000  0.5555180000000 1.0
C      1  0.4360020000000  0.4664190000000  0.5583700000000 1.0
C      1  0.4298520000000  0.5440800000000  0.5509880000000 1.0
C      1  0.4321580000000  0.5616480000000  0.4733170000000 1.0
C      1  0.4308220000000  0.4943770000000  0.4349380000000 1.0
C      1  0.4316700000000  0.4343990000000  0.4866990000000 1.0
C      1  0.5806410000000  0.4803390000000  0.5301360000000 1.0
C      1  0.5786280000000  0.5301510000000  0.5391240000000 1.0
C      1  0.5821600000000  0.5316530000000  0.4875740000000 1.0
C      1  0.5836820000000  0.4954990000000  0.4598710000000 1.0
C      1  0.5814030000000  0.4566170000000  0.4883990000000 1.0
C      1  0.4380410000000  0.4766750000000  0.4970300000000 1.0
C      1  0.4366290000000  0.4914620000000  0.5217690000000 1.0
C      1  0.4356820000000  0.5186140000000  0.5144080000000 1.0
C      1  0.4352110000000  0.5187600000000  0.4864020000000 1.0
C      1  0.4459110000000  0.4955280000000  0.4775970000000 1.0
C      1  0.5558430000000  0.4970450000000  0.4696650000000 1.0
C      1  0.5530490000000  0.4712260000000  0.4863660000000 1.0
C      1  0.5519380000000  0.4802510000000  0.5178330000000 1.0
C      1  0.5491980000000  0.5266200000000  0.5338950000000 1.0
C      1  0.5534770000000  0.5213730000000  0.4864560000000 1.0
C      1  0.4879690000000  0.4449970000000  0.4198440000000 1.0
C      1  0.4880670000000  0.4065780000000  0.5280240000000 1.0
C      1  0.4910530000000  0.5084560000000  0.5961920000000 1.0
C      1  0.4884610000000  0.5903470000000  0.5328100000000 1.0
C      1  0.4890220000000  0.5578630000000  0.4229420000000 1.0
C      1  0.5481720000000  0.5089140000000  0.5117520000000 1.0
END
