TITL C-2441163-1170-516 0.10976181543927 125000 -20916.6341195591 0 0 159 (C1) n - 1
REM
REM in /home/bkarasulu/work/CARBON/AIRSS/Generating-Clusters/ReaxFF-fromJPCA2015/Units_Real/with-SteepDescent/Higher-Symm
REM
REM
REM
REM
REM
REM ./C.cell (1df0a924f5614ab8850e4351716899ee)
REM
REM compiler GCC version 9.2.1 20190827 (Red Hat 9.2.1-1)
REM options -cpp -mtune=generic -march=x86-64 -g -O0 -fpre-include=/usr/include/finclude/math-vector-fortran.h
REM seed 958223282 2050409858 351590552 -2098967359 -530888329 1950733351 -2139546223 -1583641800 -504515655 1654875971 1185859368 -1859203497 -1480989264 1297819868 1000405521 2129030095 1665436403 644533544 1600227784 1892344555 717625952 42751246 -1196992233 121336245 66666065 1253487754 526317124 1521421822 1864336765 -1719129258 -1535630300 -1108081493 -1631506567
REM
CELL 1.54180   50.00000   50.00000   50.00000   90.00000   90.00000   90.00000
LATT -1
SFAC C  
C      1  0.4735000000000  0.3988270000000  0.5006230000000 1.0
C      1  0.5265680000000  0.3976350000000  0.5010920000000 1.0
C      1  0.4353790000000  0.4368730000000  0.5442540000000 1.0
C      1  0.5510350000000  0.4468120000000  0.4485750000000 1.0
C      1  0.5637690000000  0.4673150000000  0.4971760000000 1.0
C      1  0.4364360000000  0.4665870000000  0.5028930000000 1.0
C      1  0.4513940000000  0.4132500000000  0.5430790000000 1.0
C      1  0.5470730000000  0.4188050000000  0.4586300000000 1.0
C      1  0.5293940000000  0.4660720000000  0.4542030000000 1.0
C      1  0.4674410000000  0.4677700000000  0.5487820000000 1.0
C      1  0.4029790000000  0.4887230000000  0.4729030000000 1.0
C      1  0.5979960000000  0.4892930000000  0.5326900000000 1.0
C      1  0.5406910000000  0.5375820000000  0.4119720000000 1.0
C      1  0.4613620000000  0.5371770000000  0.5880210000000 1.0
C      1  0.5597850000000  0.5242810000000  0.5212060000000 1.0
C      1  0.4425410000000  0.5271970000000  0.4751370000000 1.0
C      1  0.4845560000000  0.4947400000000  0.6016970000000 1.0
C      1  0.5176870000000  0.4960760000000  0.4028060000000 1.0
C      1  0.5836340000000  0.5235740000000  0.5611210000000 1.0
C      1  0.4146030000000  0.5246030000000  0.4405030000000 1.0
C      1  0.4908530000000  0.5631290000000  0.4811950000000 1.0
C      1  0.5113800000000  0.5743740000000  0.5167910000000 1.0
C      1  0.5487770000000  0.4116480000000  0.4874460000000 1.0
C      1  0.4517150000000  0.4134270000000  0.5133970000000 1.0
C      1  0.5327080000000  0.5765790000000  0.5596380000000 1.0
C      1  0.4711620000000  0.5764980000000  0.4414400000000 1.0
C      1  0.4664280000000  0.4389040000000  0.5075810000000 1.0
C      1  0.5388990000000  0.4358760000000  0.5014080000000 1.0
C      1  0.5000000000000  0.4261090000000  0.5659640000000 1.0
C      1  0.4999060000000  0.4259330000000  0.4347970000000 1.0
C      1  0.5284110000000  0.5080640000000  0.5656390000000 1.0
C      1  0.4754160000000  0.5132910000000  0.4378480000000 1.0
C      1  0.5365020000000  0.5826210000000  0.5308260000000 1.0
C      1  0.4692890000000  0.5824150000000  0.4729500000000 1.0
C      1  0.5539630000000  0.4518180000000  0.5191240000000 1.0
C      1  0.4509820000000  0.4495110000000  0.4854890000000 1.0
C      1  0.4837060000000  0.5326690000000  0.5273350000000 1.0
C      1  0.5129260000000  0.5428730000000  0.4757080000000 1.0
C      1  0.6090790000000  0.4853220000000  0.5060150000000 1.0
C      1  0.3876680000000  0.4810450000000  0.4970900000000 1.0
C      1  0.5106100000000  0.4728570000000  0.5009630000000 1.0
C      1  0.4844800000000  0.4791300000000  0.4915780000000 1.0
C      1  0.4064120000000  0.5456230000000  0.4953630000000 1.0
C      1  0.5968860000000  0.5443750000000  0.5098730000000 1.0
C      1  0.5765250000000  0.5158650000000  0.4399320000000 1.0
C      1  0.4237840000000  0.5171830000000  0.5598330000000 1.0
C      1  0.5971980000000  0.4743060000000  0.4604620000000 1.0
C      1  0.4042280000000  0.4721000000000  0.5398010000000 1.0
C      1  0.5911840000000  0.4609080000000  0.5348710000000 1.0
C      1  0.4096640000000  0.4590720000000  0.4686630000000 1.0
C      1  0.4593010000000  0.4693760000000  0.4137420000000 1.0
C      1  0.5404920000000  0.4645140000000  0.5870660000000 1.0
C      1  0.4085130000000  0.5312270000000  0.5387610000000 1.0
C      1  0.5949840000000  0.5288830000000  0.4585360000000 1.0
C      1  0.5038360000000  0.4723920000000  0.5264810000000 1.0
C      1  0.4838410000000  0.4674830000000  0.4664330000000 1.0
C      1  0.5872690000000  0.5459550000000  0.4819750000000 1.0
C      1  0.4118240000000  0.5562260000000  0.5220700000000 1.0
C      1  0.5045770000000  0.4484460000000  0.4165670000000 1.0
C      1  0.4951190000000  0.4504130000000  0.5804840000000 1.0
C      1  0.4401300000000  0.5666520000000  0.5167470000000 1.0
C      1  0.5488760000000  0.5716520000000  0.4816930000000 1.0
C      1  0.4190650000000  0.4681040000000  0.5658740000000 1.0
C      1  0.5824680000000  0.4689320000000  0.4306250000000 1.0
C      1  0.4815780000000  0.4081770000000  0.4741280000000 1.0
C      1  0.5202050000000  0.4095500000000  0.5277100000000 1.0
C      1  0.5109610000000  0.5624350000000  0.5735890000000 1.0
C      1  0.4928060000000  0.5641900000000  0.4276990000000 1.0
C      1  0.5725080000000  0.4881070000000  0.4501460000000 1.0
C      1  0.4252600000000  0.4905700000000  0.5504370000000 1.0
C      1  0.5070350000000  0.4513670000000  0.4659870000000 1.0
C      1  0.4807000000000  0.4545170000000  0.5277510000000 1.0
C      1  0.5013370000000  0.5111370000000  0.5288190000000 1.0
C      1  0.5021630000000  0.5150980000000  0.4752480000000 1.0
C      1  0.4899580000000  0.5388000000000  0.4089280000000 1.0
C      1  0.5126830000000  0.5376330000000  0.5909670000000 1.0
C      1  0.4800500000000  0.4107230000000  0.5502200000000 1.0
C      1  0.5205090000000  0.4112850000000  0.4506340000000 1.0
C      1  0.4593090000000  0.5601480000000  0.5693760000000 1.0
C      1  0.5431770000000  0.5598300000000  0.4309410000000 1.0
C      1  0.5421420000000  0.4858900000000  0.4910300000000 1.0
C      1  0.4564680000000  0.4863800000000  0.5085570000000 1.0
C      1  0.5214540000000  0.6110730000000  0.4752820000000 1.0
C      1  0.4701410000000  0.6029870000000  0.5216140000000 1.0
C      1  0.5117810000000  0.4682640000000  0.5941970000000 1.0
C      1  0.4844420000000  0.4632360000000  0.4030710000000 1.0
C      1  0.5676050000000  0.5242430000000  0.4923880000000 1.0
C      1  0.4488500000000  0.5373860000000  0.5012420000000 1.0
C      1  0.5881910000000  0.5183920000000  0.5325080000000 1.0
C      1  0.4112780000000  0.5169990000000  0.4684000000000 1.0
C      1  0.5680780000000  0.4996950000000  0.5689380000000 1.0
C      1  0.4309010000000  0.5010620000000  0.4310270000000 1.0
C      1  0.4591910000000  0.4904500000000  0.5838770000000 1.0
C      1  0.5417380000000  0.4899610000000  0.4183710000000 1.0
C      1  0.5499890000000  0.5096640000000  0.4746690000000 1.0
C      1  0.4447440000000  0.5138030000000  0.5187050000000 1.0
C      1  0.5217060000000  0.5469350000000  0.5039080000000 1.0
C      1  0.4771740000000  0.5405070000000  0.4994970000000 1.0
C      1  0.5309320000000  0.5136600000000  0.5921130000000 1.0
C      1  0.4674130000000  0.5197750000000  0.4097780000000 1.0
C      1  0.4453840000000  0.4556450000000  0.5648310000000 1.0
C      1  0.5565680000000  0.4605800000000  0.4232410000000 1.0
C      1  0.5784800000000  0.5518600000000  0.5540960000000 1.0
C      1  0.4228110000000  0.5522440000000  0.4454290000000 1.0
C      1  0.5022010000000  0.4770390000000  0.4158900000000 1.0
C      1  0.5022550000000  0.4758780000000  0.5678210000000 1.0
C      1  0.5373540000000  0.5298880000000  0.4593480000000 1.0
C      1  0.4605680000000  0.5247040000000  0.5422030000000 1.0
C      1  0.4337660000000  0.4423320000000  0.4631940000000 1.0
C      1  0.5664320000000  0.4464960000000  0.5443770000000 1.0
C      1  0.5424530000000  0.5021140000000  0.5166010000000 1.0
C      1  0.4542060000000  0.5012730000000  0.4771940000000 1.0
C      1  0.5462260000000  0.4436760000000  0.5659290000000 1.0
C      1  0.4522170000000  0.4393340000000  0.4407700000000 1.0
C      1  0.5222660000000  0.4725140000000  0.5471590000000 1.0
C      1  0.4622410000000  0.4684160000000  0.4435220000000 1.0
C      1  0.4168000000000  0.4522290000000  0.5193120000000 1.0
C      1  0.5864310000000  0.4571520000000  0.4829670000000 1.0
C      1  0.4872880000000  0.5255240000000  0.5967670000000 1.0
C      1  0.5148460000000  0.5249020000000  0.4038850000000 1.0
C      1  0.5079810000000  0.6028930000000  0.5001560000000 1.0
C      1  0.4799550000000  0.6051070000000  0.4933940000000 1.0
C      1  0.4442530000000  0.4884110000000  0.4528530000000 1.0
C      1  0.5462360000000  0.4892600000000  0.5475410000000 1.0
C      1  0.4133190000000  0.5158670000000  0.5137850000000 1.0
C      1  0.5944180000000  0.5079380000000  0.4938470000000 1.0
C      1  0.6019350000000  0.4558340000000  0.5076950000000 1.0
C      1  0.3983440000000  0.4534830000000  0.4950620000000 1.0
C      1  0.5551520000000  0.5536860000000  0.4581690000000 1.0
C      1  0.4482820000000  0.5522570000000  0.5439220000000 1.0
C      1  0.5399100000000  0.5391470000000  0.5390040000000 1.0
C      1  0.4614670000000  0.5340880000000  0.4522470000000 1.0
C      1  0.5163130000000  0.5254310000000  0.5486150000000 1.0
C      1  0.5023670000000  0.5078820000000  0.4480610000000 1.0
C      1  0.5525810000000  0.4909640000000  0.5914820000000 1.0
C      1  0.4492930000000  0.4965340000000  0.4085600000000 1.0
C      1  0.4745660000000  0.4217980000000  0.4478780000000 1.0
C      1  0.5263100000000  0.4249700000000  0.5536820000000 1.0
C      1  0.5198160000000  0.5185570000000  0.5092430000000 1.0
C      1  0.4785560000000  0.5149400000000  0.4853290000000 1.0
C      1  0.4735900000000  0.4943810000000  0.5589590000000 1.0
C      1  0.5269810000000  0.4937370000000  0.4450820000000 1.0
C      1  0.5189300000000  0.5723590000000  0.4390420000000 1.0
C      1  0.4854650000000  0.5716470000000  0.5620430000000 1.0
C      1  0.5243100000000  0.5809850000000  0.4678300000000 1.0
C      1  0.4866730000000  0.5808810000000  0.5344400000000 1.0
C      1  0.5561480000000  0.5737110000000  0.5111860000000 1.0
C      1  0.4426320000000  0.5745270000000  0.4874400000000 1.0
C      1  0.4431340000000  0.5157300000000  0.5820910000000 1.0
C      1  0.5583790000000  0.5159860000000  0.4180070000000 1.0
C      1  0.4207650000000  0.5614090000000  0.4745020000000 1.0
C      1  0.5799020000000  0.5614080000000  0.5256650000000 1.0
C      1  0.4924610000000  0.4024540000000  0.5254240000000 1.0
C      1  0.5094400000000  0.4008320000000  0.4759060000000 1.0
C      1  0.3943150000000  0.4951770000000  0.5217650000000 1.0
C      1  0.6061170000000  0.5036180000000  0.4687300000000 1.0
C      1  0.4510440000000  0.5562230000000  0.4357610000000 1.0
C      1  0.5509360000000  0.5540390000000  0.5629650000000 1.0
C      1  0.5152050000000  0.4461660000000  0.4922950000000 1.0
END
