TITL C-2441159-1093-1291 0.163652361477488 125000 -19366.9184282884 0 0 157 (C1) n - 1
REM
REM in /home/bkarasulu/work/CARBON/AIRSS/Generating-Clusters/ReaxFF-fromJPCA2015/Units_Real/with-SteepDescent/Higher-Symm
REM
REM
REM
REM
REM
REM ./C.cell (1df0a924f5614ab8850e4351716899ee)
REM
REM compiler GCC version 9.2.1 20190827 (Red Hat 9.2.1-1)
REM options -cpp -mtune=generic -march=x86-64 -g -O0 -fpre-include=/usr/include/finclude/math-vector-fortran.h
REM seed 1542275916 -1967460446 -1652800954 -1046219847 -939922232 762474381 820680122 591960360 547446991 -1226957674 -265114349 150125256 -1067955817 1969827971 -619152462 789470325 2144483549 -1547315085 1466700928 -445554941 -2012776000 -548007487 -548695266 -1140826871 196635309 440547394 -198477225 1810923441 1788527645 -409141715 1989778090 -152440822 -101985590
REM
CELL 1.54180   50.00000   50.00000   50.00000   90.00000   90.00000   90.00000
LATT -1
SFAC C  
C      1  0.5631320000000  0.4711380000000  0.4555840000000 1.0
C      1  0.5279090000000  0.4852270000000  0.4599900000000 1.0
C      1  0.4232430000000  0.4294600000000  0.5063950000000 1.0
C      1  0.4887470000000  0.4136150000000  0.5516570000000 1.0
C      1  0.5341860000000  0.4506640000000  0.4985270000000 1.0
C      1  0.4069410000000  0.4842520000000  0.5456660000000 1.0
C      1  0.4844390000000  0.5918390000000  0.5358080000000 1.0
C      1  0.5230570000000  0.4602380000000  0.4516100000000 1.0
C      1  0.5729060000000  0.4296440000000  0.4827230000000 1.0
C      1  0.5804990000000  0.5491700000000  0.4487420000000 1.0
C      1  0.5015190000000  0.4275280000000  0.4254390000000 1.0
C      1  0.4503940000000  0.5322410000000  0.4217420000000 1.0
C      1  0.5461090000000  0.4082090000000  0.5159240000000 1.0
C      1  0.4102380000000  0.5213290000000  0.4479110000000 1.0
C      1  0.4376300000000  0.5490810000000  0.4711240000000 1.0
C      1  0.4592040000000  0.4734960000000  0.4464870000000 1.0
C      1  0.5222220000000  0.4138950000000  0.4665740000000 1.0
C      1  0.4778840000000  0.5234280000000  0.5689580000000 1.0
C      1  0.4906640000000  0.5535500000000  0.4246970000000 1.0
C      1  0.5779660000000  0.5397390000000  0.4756540000000 1.0
C      1  0.5344270000000  0.5265920000000  0.4711580000000 1.0
C      1  0.3975510000000  0.5014390000000  0.5006280000000 1.0
C      1  0.4370030000000  0.5685850000000  0.5242470000000 1.0
C      1  0.5653510000000  0.5697940000000  0.5083230000000 1.0
C      1  0.5097140000000  0.6024880000000  0.4967820000000 1.0
C      1  0.5891410000000  0.4897810000000  0.5522440000000 1.0
C      1  0.4606420000000  0.5681260000000  0.5706260000000 1.0
C      1  0.5122670000000  0.4323190000000  0.4896170000000 1.0
C      1  0.4455120000000  0.5046090000000  0.4135550000000 1.0
C      1  0.4161770000000  0.4650640000000  0.5261350000000 1.0
C      1  0.5154310000000  0.4907730000000  0.5852940000000 1.0
C      1  0.5796760000000  0.4621000000000  0.5161780000000 1.0
C      1  0.5348060000000  0.5593710000000  0.5752800000000 1.0
C      1  0.4967690000000  0.4527110000000  0.4083360000000 1.0
C      1  0.5035380000000  0.5173030000000  0.5123890000000 1.0
C      1  0.4062820000000  0.4876700000000  0.4765070000000 1.0
C      1  0.4439560000000  0.4271790000000  0.4853080000000 1.0
C      1  0.5728460000000  0.4929970000000  0.4692640000000 1.0
C      1  0.5229530000000  0.5367690000000  0.5883720000000 1.0
C      1  0.4356800000000  0.5760890000000  0.4743640000000 1.0
C      1  0.5958390000000  0.4835000000000  0.4828680000000 1.0
C      1  0.4617650000000  0.4136030000000  0.5376620000000 1.0
C      1  0.5058290000000  0.4958660000000  0.4116820000000 1.0
C      1  0.5546170000000  0.4394240000000  0.5607440000000 1.0
C      1  0.5525750000000  0.4628780000000  0.5767130000000 1.0
C      1  0.4614840000000  0.4476740000000  0.4981860000000 1.0
C      1  0.4015880000000  0.5275310000000  0.5129830000000 1.0
C      1  0.5721300000000  0.5317730000000  0.5603870000000 1.0
C      1  0.5337130000000  0.5055800000000  0.5479990000000 1.0
C      1  0.4523690000000  0.5137320000000  0.4946980000000 1.0
C      1  0.5541630000000  0.5106330000000  0.5726560000000 1.0
C      1  0.5135800000000  0.5781910000000  0.5709140000000 1.0
C      1  0.5907870000000  0.4564200000000  0.4934820000000 1.0
C      1  0.4856420000000  0.6010310000000  0.5105710000000 1.0
C      1  0.4493080000000  0.4572170000000  0.4238970000000 1.0
C      1  0.5711240000000  0.5310670000000  0.4264410000000 1.0
C      1  0.4222030000000  0.5104160000000  0.4844070000000 1.0
C      1  0.5928040000000  0.4771930000000  0.5294140000000 1.0
C      1  0.4690690000000  0.5422670000000  0.4942800000000 1.0
C      1  0.4866900000000  0.4528640000000  0.4837420000000 1.0
C      1  0.4330570000000  0.4405770000000  0.4592890000000 1.0
C      1  0.5882680000000  0.5161110000000  0.5423660000000 1.0
C      1  0.4392000000000  0.5852300000000  0.5014430000000 1.0
C      1  0.4461350000000  0.4906610000000  0.4610160000000 1.0
C      1  0.4273400000000  0.5420730000000  0.5172750000000 1.0
C      1  0.5613840000000  0.4720460000000  0.4277590000000 1.0
C      1  0.5532520000000  0.5448940000000  0.5192110000000 1.0
C      1  0.5064330000000  0.5854470000000  0.4455170000000 1.0
C      1  0.4623500000000  0.5727970000000  0.5398500000000 1.0
C      1  0.4952580000000  0.4781270000000  0.5361920000000 1.0
C      1  0.5615930000000  0.5012360000000  0.4269620000000 1.0
C      1  0.4216080000000  0.4798570000000  0.5712230000000 1.0
C      1  0.4925760000000  0.5426930000000  0.4765570000000 1.0
C      1  0.5505830000000  0.4108600000000  0.4868550000000 1.0
C      1  0.5063990000000  0.5062630000000  0.5398180000000 1.0
C      1  0.5000440000000  0.5406090000000  0.5684170000000 1.0
C      1  0.5608960000000  0.5182250000000  0.4699910000000 1.0
C      1  0.4885280000000  0.5002370000000  0.5811990000000 1.0
C      1  0.4642640000000  0.4556330000000  0.5755050000000 1.0
C      1  0.5415610000000  0.5587290000000  0.4247320000000 1.0
C      1  0.5341280000000  0.5110340000000  0.5939410000000 1.0
C      1  0.4668680000000  0.4848510000000  0.5791420000000 1.0
C      1  0.5549020000000  0.4486630000000  0.4726100000000 1.0
C      1  0.4926580000000  0.5017680000000  0.4868920000000 1.0
C      1  0.4857370000000  0.4783840000000  0.4457640000000 1.0
C      1  0.4904600000000  0.4460880000000  0.5886270000000 1.0
C      1  0.5106100000000  0.5290870000000  0.4544520000000 1.0
C      1  0.4434050000000  0.4996630000000  0.5760850000000 1.0
C      1  0.4786130000000  0.4518750000000  0.5253550000000 1.0
C      1  0.5312750000000  0.4218580000000  0.5599260000000 1.0
C      1  0.4622340000000  0.5858190000000  0.4660810000000 1.0
C      1  0.4302040000000  0.4396720000000  0.5325450000000 1.0
C      1  0.4782480000000  0.4196400000000  0.4425190000000 1.0
C      1  0.6005220000000  0.5106830000000  0.4942060000000 1.0
C      1  0.5313410000000  0.5930630000000  0.5120710000000 1.0
C      1  0.5563670000000  0.5548690000000  0.5528480000000 1.0
C      1  0.5040880000000  0.5526030000000  0.5352960000000 1.0
C      1  0.5475030000000  0.4369330000000  0.5198850000000 1.0
C      1  0.5028180000000  0.5841120000000  0.4742570000000 1.0
C      1  0.4883710000000  0.5656530000000  0.5797660000000 1.0
C      1  0.5546440000000  0.5021920000000  0.5104040000000 1.0
C      1  0.5047800000000  0.4283720000000  0.5715480000000 1.0
C      1  0.4775380000000  0.5309220000000  0.4162590000000 1.0
C      1  0.4206310000000  0.4631630000000  0.4737590000000 1.0
C      1  0.4508040000000  0.4323810000000  0.4387810000000 1.0
C      1  0.5049280000000  0.4136080000000  0.5128660000000 1.0
C      1  0.4646890000000  0.5967840000000  0.4935880000000 1.0
C      1  0.5545820000000  0.5587610000000  0.4491740000000 1.0
C      1  0.5318840000000  0.5862510000000  0.4328980000000 1.0
C      1  0.4764350000000  0.5469250000000  0.5236580000000 1.0
C      1  0.5682890000000  0.4852850000000  0.5699190000000 1.0
C      1  0.4354250000000  0.5220790000000  0.5357530000000 1.0
C      1  0.4104300000000  0.4539750000000  0.4990720000000 1.0
C      1  0.5770560000000  0.5194750000000  0.5146210000000 1.0
C      1  0.5187860000000  0.4892140000000  0.4868170000000 1.0
C      1  0.4079040000000  0.5127830000000  0.5394340000000 1.0
C      1  0.5331800000000  0.4707770000000  0.5958420000000 1.0
C      1  0.4665640000000  0.5096200000000  0.4698760000000 1.0
C      1  0.4335460000000  0.4549280000000  0.5807780000000 1.0
C      1  0.5699830000000  0.4434220000000  0.5360450000000 1.0
C      1  0.5661170000000  0.5807270000000  0.5361910000000 1.0
C      1  0.5130270000000  0.5591000000000  0.4872100000000 1.0
C      1  0.4716880000000  0.5651670000000  0.4462100000000 1.0
C      1  0.4132540000000  0.5353700000000  0.4747090000000 1.0
C      1  0.5455160000000  0.5834040000000  0.4597330000000 1.0
C      1  0.4681680000000  0.4054390000000  0.4849730000000 1.0
C      1  0.4284100000000  0.5006850000000  0.4381060000000 1.0
C      1  0.4741200000000  0.4045770000000  0.5126090000000 1.0
C      1  0.4578440000000  0.4865740000000  0.5078800000000 1.0
C      1  0.5418100000000  0.4856770000000  0.5292390000000 1.0
C      1  0.6044430000000  0.5316260000000  0.4760410000000 1.0
C      1  0.5307320000000  0.5127200000000  0.4967210000000 1.0
C      1  0.5067690000000  0.4994230000000  0.4429340000000 1.0
C      1  0.5232920000000  0.5472840000000  0.5125760000000 1.0
C      1  0.5469660000000  0.5849130000000  0.4896280000000 1.0
C      1  0.4690670000000  0.4914920000000  0.5334960000000 1.0
C      1  0.5233660000000  0.5184390000000  0.4031440000000 1.0
C      1  0.4648010000000  0.5199480000000  0.5398000000000 1.0
C      1  0.4572830000000  0.4428650000000  0.5442130000000 1.0
C      1  0.4720660000000  0.4682310000000  0.4077490000000 1.0
C      1  0.4967080000000  0.4572140000000  0.4564700000000 1.0
C      1  0.5182440000000  0.5417790000000  0.4227460000000 1.0
C      1  0.5257850000000  0.4049860000000  0.5366160000000 1.0
C      1  0.4482670000000  0.5492710000000  0.4449150000000 1.0
C      1  0.5258330000000  0.4226350000000  0.4388820000000 1.0
C      1  0.4888410000000  0.4073710000000  0.4653500000000 1.0
C      1  0.4822600000000  0.4801030000000  0.4954090000000 1.0
C      1  0.5196800000000  0.4691630000000  0.4067160000000 1.0
C      1  0.5118760000000  0.5825320000000  0.5408270000000 1.0
C      1  0.5371590000000  0.4536990000000  0.4265990000000 1.0
C      1  0.4347710000000  0.5522080000000  0.5732050000000 1.0
C      1  0.4728160000000  0.4971490000000  0.4038930000000 1.0
C      1  0.5209180000000  0.4737410000000  0.5123360000000 1.0
C      1  0.4967960000000  0.4327000000000  0.5315350000000 1.0
C      1  0.4490070000000  0.5275070000000  0.5813800000000 1.0
C      1  0.5074890000000  0.4648370000000  0.6011400000000 1.0
C      1  0.5457660000000  0.5015390000000  0.4047390000000 1.0
END
