TITL C-2441161-5029-1469 6.97826115717194e-05 125000 -6188.46335826838 0 0 44 (C1) n - 1
REM
REM in /home/bkarasulu/work/CARBON/AIRSS/Generating-Clusters/ReaxFF-fromJPCA2015/Units_Real/with-SteepDescent/Higher-Symm
REM
REM
REM
REM
REM
REM ./C.cell (1df0a924f5614ab8850e4351716899ee)
REM
REM compiler GCC version 9.2.1 20190827 (Red Hat 9.2.1-1)
REM options -cpp -mtune=generic -march=x86-64 -g -O0 -fpre-include=/usr/include/finclude/math-vector-fortran.h
REM seed 85758473 392140993 -1354999085 1039705584 -1981790336 1919312151 804277300 775230396 -1546820844 683874327 -1265675988 -1921866111 -54995541 491168115 -152102016 -1434195831 1534387733 -53901076 -1131264005 1307375902 -532478615 -537082422 276543521 -839392102 -425612429 810050081 -992585016 218643736 -631198344 371292638 -171775455 -756362758 1856024003
REM
CELL 1.54180   50.00000   50.00000   50.00000   90.00000   90.00000   90.00000
LATT -1
SFAC C  
C      1  0.4764550000000  0.4806910000000  0.5842530000000 1.0
C      1  0.5729730000000  0.4814980000000  0.4615110000000 1.0
C      1  0.4324420000000  0.4813560000000  0.4492170000000 1.0
C      1  0.4529690000000  0.4834400000000  0.4642410000000 1.0
C      1  0.4958120000000  0.4793510000000  0.5656320000000 1.0
C      1  0.5477610000000  0.4803870000000  0.4662490000000 1.0
C      1  0.4502350000000  0.4906790000000  0.5360440000000 1.0
C      1  0.5434640000000  0.4975460000000  0.5093410000000 1.0
C      1  0.4974000000000  0.4816710000000  0.4431800000000 1.0
C      1  0.4963030000000  0.5666820000000  0.4803670000000 1.0
C      1  0.4898110000000  0.5523160000000  0.5289080000000 1.0
C      1  0.5137650000000  0.5612810000000  0.5047350000000 1.0
C      1  0.4992740000000  0.4413030000000  0.4752100000000 1.0
C      1  0.4708710000000  0.4649010000000  0.5097600000000 1.0
C      1  0.5258160000000  0.4461360000000  0.5199750000000 1.0
C      1  0.5040420000000  0.4477100000000  0.5375620000000 1.0
C      1  0.5242140000000  0.4405470000000  0.4903650000000 1.0
C      1  0.4727870000000  0.4454100000000  0.4875770000000 1.0
C      1  0.4894380000000  0.4552160000000  0.4501240000000 1.0
C      1  0.4586390000000  0.4637510000000  0.5363800000000 1.0
C      1  0.5461190000000  0.4688100000000  0.5128550000000 1.0
C      1  0.4823690000000  0.4534830000000  0.5537930000000 1.0
C      1  0.5484670000000  0.4571290000000  0.4856630000000 1.0
C      1  0.4616980000000  0.4546160000000  0.4615620000000 1.0
C      1  0.5041190000000  0.5065050000000  0.4407380000000 1.0
C      1  0.4448010000000  0.5180500000000  0.5327460000000 1.0
C      1  0.5439350000000  0.5210090000000  0.5263820000000 1.0
C      1  0.4764720000000  0.5060000000000  0.4704560000000 1.0
C      1  0.4997750000000  0.4955420000000  0.5394870000000 1.0
C      1  0.5296570000000  0.5033490000000  0.4823720000000 1.0
C      1  0.5356120000000  0.5502950000000  0.4878570000000 1.0
C      1  0.4717930000000  0.5542050000000  0.4715430000000 1.0
C      1  0.4833000000000  0.5541860000000  0.5539450000000 1.0
C      1  0.5191750000000  0.5176860000000  0.5457690000000 1.0
C      1  0.5330130000000  0.5298100000000  0.4697950000000 1.0
C      1  0.4589050000000  0.5283900000000  0.4801960000000 1.0
C      1  0.4628160000000  0.5456910000000  0.5372090000000 1.0
C      1  0.5392590000000  0.5467860000000  0.5137470000000 1.0
C      1  0.4954290000000  0.5545790000000  0.4541150000000 1.0
C      1  0.5142840000000  0.5323610000000  0.4478740000000 1.0
C      1  0.4485410000000  0.5222380000000  0.5057550000000 1.0
C      1  0.5360920000000  0.5222750000000  0.5664260000000 1.0
C      1  0.4987770000000  0.4989490000000  0.4876030000000 1.0
C      1  0.4913540000000  0.4870290000000  0.5131690000000 1.0
END
