TITL C-2441161-5029-1072 0.00041203135589532 125000 -2741.02411230919 0 0 21 (C1) n - 1
REM
REM in /home/bkarasulu/work/CARBON/AIRSS/Generating-Clusters/ReaxFF-fromJPCA2015/Units_Real/with-SteepDescent/Higher-Symm
REM
REM
REM
REM
REM
REM ./C.cell (1df0a924f5614ab8850e4351716899ee)
REM
REM compiler GCC version 9.2.1 20190827 (Red Hat 9.2.1-1)
REM options -cpp -mtune=generic -march=x86-64 -g -O0 -fpre-include=/usr/include/finclude/math-vector-fortran.h
REM seed 1717207114 -1496392142 -1436737297 2019155955 -542282442 1852288857 -410229817 224422294 -499785923 -1005352748 1967355257 1814493405 -1708499446 90509040 1481705352 -534765575 -431449046 1129161765 321810745 1357028702 -984816253 1283020405 -2055012493 -1884721085 -475879218 -1231390024 1791606578 1541471219 -199603972 -1747587378 -994363275 -541677174 438952661
REM
CELL 1.54180   50.00000   50.00000   50.00000   90.00000   90.00000   90.00000
LATT -1
SFAC C  
C      1  0.5202260000000  0.4676210000000  0.4803290000000 1.0
C      1  0.5177680000000  0.4604230000000  0.5118620000000 1.0
C      1  0.4894860000000  0.4571610000000  0.5196200000000 1.0
C      1  0.4698930000000  0.4677720000000  0.4962840000000 1.0
C      1  0.4896600000000  0.4675110000000  0.4711920000000 1.0
C      1  0.4856280000000  0.5314070000000  0.5361720000000 1.0
C      1  0.4631740000000  0.5292790000000  0.5011800000000 1.0
C      1  0.4903360000000  0.5290520000000  0.4656630000000 1.0
C      1  0.5282260000000  0.5291790000000  0.4805130000000 1.0
C      1  0.5253170000000  0.5285350000000  0.5274980000000 1.0
C      1  0.4866650000000  0.5565840000000  0.5226810000000 1.0
C      1  0.4736700000000  0.5549550000000  0.4952500000000 1.0
C      1  0.4962850000000  0.5554090000000  0.4742480000000 1.0
C      1  0.5223420000000  0.5552780000000  0.4893210000000 1.0
C      1  0.5169410000000  0.5545420000000  0.5192520000000 1.0
C      1  0.4720410000000  0.5019860000000  0.5035540000000 1.0
C      1  0.4915750000000  0.5027880000000  0.4764450000000 1.0
C      1  0.5229610000000  0.5018240000000  0.4882040000000 1.0
C      1  0.5204470000000  0.5018590000000  0.5196940000000 1.0
C      1  0.4917290000000  0.5045370000000  0.5283630000000 1.0
C      1  0.5069000000000  0.4357280000000  0.5201140000000 1.0
END
