TITL C-2441157-2117-625 0.0958342859105518 125000 -24339.8650121637 0 0 179 (C1) n - 1
REM
REM in /home/bkarasulu/work/CARBON/AIRSS/Generating-Clusters/ReaxFF-fromJPCA2015/Units_Real/with-SteepDescent/Higher-Symm
REM
REM
REM
REM
REM
REM ./C.cell (1df0a924f5614ab8850e4351716899ee)
REM
REM compiler GCC version 9.2.1 20190827 (Red Hat 9.2.1-1)
REM options -cpp -mtune=generic -march=x86-64 -g -O0 -fpre-include=/usr/include/finclude/math-vector-fortran.h
REM seed 1920638402 -65229390 1360790061 -1138555543 1791296383 -1966820413 102797754 -1580658874 1355702721 1115803615 -711505014 -814783423 716383354 447297804 -320370806 1381680014 -931326357 1860382227 1259155968 -452937175 1996284496 -1196559339 909841508 646036793 314301273 -651010983 -1120259212 642031527 234556823 -1420890150 2105560651 -1046631289 -1826513995
REM
CELL 1.54180   50.00000   50.00000   50.00000   90.00000   90.00000   90.00000
LATT -1
SFAC C  
C      1  0.4485250000000  0.4888980000000  0.5571460000000 1.0
C      1  0.5139230000000  0.4865830000000  0.5802880000000 1.0
C      1  0.5683150000000  0.4875430000000  0.5409800000000 1.0
C      1  0.5733360000000  0.4900690000000  0.4680020000000 1.0
C      1  0.5240380000000  0.4947820000000  0.4291640000000 1.0
C      1  0.4589390000000  0.4931950000000  0.4376110000000 1.0
C      1  0.4223430000000  0.4941910000000  0.4916440000000 1.0
C      1  0.4920790000000  0.5803160000000  0.4245530000000 1.0
C      1  0.4309840000000  0.5883140000000  0.4790470000000 1.0
C      1  0.4414510000000  0.5870210000000  0.5351330000000 1.0
C      1  0.4803100000000  0.5791360000000  0.5693010000000 1.0
C      1  0.5435550000000  0.5806040000000  0.5639640000000 1.0
C      1  0.5708530000000  0.5886030000000  0.4886600000000 1.0
C      1  0.5402400000000  0.5870510000000  0.4420390000000 1.0
C      1  0.5272800000000  0.5236250000000  0.5467330000000 1.0
C      1  0.5527130000000  0.5191940000000  0.5024490000000 1.0
C      1  0.5354030000000  0.5219400000000  0.4577930000000 1.0
C      1  0.4881990000000  0.5205100000000  0.4456900000000 1.0
C      1  0.4495730000000  0.5196540000000  0.4752120000000 1.0
C      1  0.4500910000000  0.5204450000000  0.5177510000000 1.0
C      1  0.4831650000000  0.5178500000000  0.5492290000000 1.0
C      1  0.4193810000000  0.4434050000000  0.4560960000000 1.0
C      1  0.4116340000000  0.4444780000000  0.5351260000000 1.0
C      1  0.4730490000000  0.4458430000000  0.6005810000000 1.0
C      1  0.5623900000000  0.4733990000000  0.5850460000000 1.0
C      1  0.5917690000000  0.4409030000000  0.5081280000000 1.0
C      1  0.5604700000000  0.4382490000000  0.4343710000000 1.0
C      1  0.4881140000000  0.4452410000000  0.4049520000000 1.0
C      1  0.5250280000000  0.5828620000000  0.4845890000000 1.0
C      1  0.5026410000000  0.5920740000000  0.4696110000000 1.0
C      1  0.4761470000000  0.5902960000000  0.4762670000000 1.0
C      1  0.4699680000000  0.5833970000000  0.5026500000000 1.0
C      1  0.4860120000000  0.5914640000000  0.5239300000000 1.0
C      1  0.5127960000000  0.5829150000000  0.5307230000000 1.0
C      1  0.5319720000000  0.5898240000000  0.5113210000000 1.0
C      1  0.5980560000000  0.5489920000000  0.5359100000000 1.0
C      1  0.5928860000000  0.5453850000000  0.4438150000000 1.0
C      1  0.5187620000000  0.5441160000000  0.3941730000000 1.0
C      1  0.4293800000000  0.5499540000000  0.4240580000000 1.0
C      1  0.3931710000000  0.5453720000000  0.5103750000000 1.0
C      1  0.4406670000000  0.5457570000000  0.5867700000000 1.0
C      1  0.5326930000000  0.5434750000000  0.6017170000000 1.0
C      1  0.4489370000000  0.4789230000000  0.4133480000000 1.0
C      1  0.3969320000000  0.4811370000000  0.4818930000000 1.0
C      1  0.4261180000000  0.4771270000000  0.5721920000000 1.0
C      1  0.5059450000000  0.4769040000000  0.6062140000000 1.0
C      1  0.5922210000000  0.4780430000000  0.5583110000000 1.0
C      1  0.6015100000000  0.4800690000000  0.4664570000000 1.0
C      1  0.5368770000000  0.4819710000000  0.4040440000000 1.0
C      1  0.4430460000000  0.5918170000000  0.5063270000000 1.0
C      1  0.4688790000000  0.5929310000000  0.5457310000000 1.0
C      1  0.5185190000000  0.5902220000000  0.5556850000000 1.0
C      1  0.5606520000000  0.5903710000000  0.5156550000000 1.0
C      1  0.5481570000000  0.5918760000000  0.4699460000000 1.0
C      1  0.5108490000000  0.5924530000000  0.4430240000000 1.0
C      1  0.4518700000000  0.5913960000000  0.4595620000000 1.0
C      1  0.5682380000000  0.4728960000000  0.5179490000000 1.0
C      1  0.5536710000000  0.4714060000000  0.4584160000000 1.0
C      1  0.5034140000000  0.4747360000000  0.4353740000000 1.0
C      1  0.4508940000000  0.4723530000000  0.4564530000000 1.0
C      1  0.4313110000000  0.4737750000000  0.5098030000000 1.0
C      1  0.4693270000000  0.4702390000000  0.5630020000000 1.0
C      1  0.5219360000000  0.4625100000000  0.5601160000000 1.0
C      1  0.5381090000000  0.5611050000000  0.4264190000000 1.0
C      1  0.4685950000000  0.5629450000000  0.4290310000000 1.0
C      1  0.4239840000000  0.5602550000000  0.4866780000000 1.0
C      1  0.4371110000000  0.5613120000000  0.5490850000000 1.0
C      1  0.5028990000000  0.5642800000000  0.5817770000000 1.0
C      1  0.5608070000000  0.5612240000000  0.5495820000000 1.0
C      1  0.5750180000000  0.5604040000000  0.4784190000000 1.0
C      1  0.5990320000000  0.5235910000000  0.5203380000000 1.0
C      1  0.5799170000000  0.5199530000000  0.4354500000000 1.0
C      1  0.4983360000000  0.5226360000000  0.3951380000000 1.0
C      1  0.4186520000000  0.5252660000000  0.4358120000000 1.0
C      1  0.3984700000000  0.5211580000000  0.5269660000000 1.0
C      1  0.4570350000000  0.5226530000000  0.5923380000000 1.0
C      1  0.5491000000000  0.5218360000000  0.5915050000000 1.0
C      1  0.4782520000000  0.4094700000000  0.5371700000000 1.0
C      1  0.5245110000000  0.4091050000000  0.5479490000000 1.0
C      1  0.5457220000000  0.4272150000000  0.5147940000000 1.0
C      1  0.5425060000000  0.4106330000000  0.4726920000000 1.0
C      1  0.5013550000000  0.4266160000000  0.4490600000000 1.0
C      1  0.4633930000000  0.4117980000000  0.4684850000000 1.0
C      1  0.4392580000000  0.4092260000000  0.5088700000000 1.0
C      1  0.4450770000000  0.4354370000000  0.5616310000000 1.0
C      1  0.4905540000000  0.4303810000000  0.5835540000000 1.0
C      1  0.5630880000000  0.4353290000000  0.5547270000000 1.0
C      1  0.5881020000000  0.4294080000000  0.4797490000000 1.0
C      1  0.5370240000000  0.4293510000000  0.4163350000000 1.0
C      1  0.4544300000000  0.4342950000000  0.4280070000000 1.0
C      1  0.4193840000000  0.4421170000000  0.4847540000000 1.0
C      1  0.4933200000000  0.4671720000000  0.5467420000000 1.0
C      1  0.5283110000000  0.4502520000000  0.5130220000000 1.0
C      1  0.5447850000000  0.4708900000000  0.5045300000000 1.0
C      1  0.5268910000000  0.4670070000000  0.4693050000000 1.0
C      1  0.4999460000000  0.4584900000000  0.4601440000000 1.0
C      1  0.4697900000000  0.4661300000000  0.4781140000000 1.0
C      1  0.4592240000000  0.4655560000000  0.5066320000000 1.0
C      1  0.5643250000000  0.4889100000000  0.4113970000000 1.0
C      1  0.4688880000000  0.4924600000000  0.3972560000000 1.0
C      1  0.4020910000000  0.4918770000000  0.4554080000000 1.0
C      1  0.4071060000000  0.4914550000000  0.5556860000000 1.0
C      1  0.4809740000000  0.4920660000000  0.6075700000000 1.0
C      1  0.5842530000000  0.4942080000000  0.5813690000000 1.0
C      1  0.6083070000000  0.4922450000000  0.4926370000000 1.0
C      1  0.5976490000000  0.4520850000000  0.4682530000000 1.0
C      1  0.5352780000000  0.4537920000000  0.4038200000000 1.0
C      1  0.4576150000000  0.4498690000000  0.4063930000000 1.0
C      1  0.3978440000000  0.4528410000000  0.4838270000000 1.0
C      1  0.4209630000000  0.4474120000000  0.5639510000000 1.0
C      1  0.5017030000000  0.4475000000000  0.6044810000000 1.0
C      1  0.5797550000000  0.4541380000000  0.5703850000000 1.0
C      1  0.5663750000000  0.4669930000000  0.4324420000000 1.0
C      1  0.4922390000000  0.4739940000000  0.4080100000000 1.0
C      1  0.4235450000000  0.4715650000000  0.4465960000000 1.0
C      1  0.4100720000000  0.4727000000000  0.5310110000000 1.0
C      1  0.4631870000000  0.4727650000000  0.5918060000000 1.0
C      1  0.5474300000000  0.4784290000000  0.5604180000000 1.0
C      1  0.5953400000000  0.4703470000000  0.5092350000000 1.0
C      1  0.4988580000000  0.5024190000000  0.4658060000000 1.0
C      1  0.4672030000000  0.4983360000000  0.4877090000000 1.0
C      1  0.4654470000000  0.4941320000000  0.5167080000000 1.0
C      1  0.4927840000000  0.4945380000000  0.5356480000000 1.0
C      1  0.5197400000000  0.5013270000000  0.5302710000000 1.0
C      1  0.5332400000000  0.4959550000000  0.5054660000000 1.0
C      1  0.5242630000000  0.4967240000000  0.4714300000000 1.0
C      1  0.4009500000000  0.5216770000000  0.4590760000000 1.0
C      1  0.4052640000000  0.5209950000000  0.5552510000000 1.0
C      1  0.4827950000000  0.5211320000000  0.6055540000000 1.0
C      1  0.5762620000000  0.5224700000000  0.5802310000000 1.0
C      1  0.6072230000000  0.5217060000000  0.4919530000000 1.0
C      1  0.5639310000000  0.5185360000000  0.4114920000000 1.0
C      1  0.4690800000000  0.5219780000000  0.3961060000000 1.0
C      1  0.4593790000000  0.3972920000000  0.4909150000000 1.0
C      1  0.4609550000000  0.3987760000000  0.5196150000000 1.0
C      1  0.5015790000000  0.3962340000000  0.5390400000000 1.0
C      1  0.5239430000000  0.3932150000000  0.5228980000000 1.0
C      1  0.5377550000000  0.4033850000000  0.4996010000000 1.0
C      1  0.5164580000000  0.4057470000000  0.4644750000000 1.0
C      1  0.4878200000000  0.4032320000000  0.4625060000000 1.0
C      1  0.4443080000000  0.4243750000000  0.4502230000000 1.0
C      1  0.4192200000000  0.4294230000000  0.5098230000000 1.0
C      1  0.4706260000000  0.4250190000000  0.5611950000000 1.0
C      1  0.5342210000000  0.4339300000000  0.5585490000000 1.0
C      1  0.5723870000000  0.4295140000000  0.5272280000000 1.0
C      1  0.5640910000000  0.4264970000000  0.4614150000000 1.0
C      1  0.5072920000000  0.4278360000000  0.4190220000000 1.0
C      1  0.5310840000000  0.5693450000000  0.5876660000000 1.0
C      1  0.5758630000000  0.5669620000000  0.5249330000000 1.0
C      1  0.5696310000000  0.5616440000000  0.4501400000000 1.0
C      1  0.5134740000000  0.5659790000000  0.4115960000000 1.0
C      1  0.4435960000000  0.5681160000000  0.4440430000000 1.0
C      1  0.4162870000000  0.5625740000000  0.5145890000000 1.0
C      1  0.4550320000000  0.5647240000000  0.5716420000000 1.0
C      1  0.5710170000000  0.5153180000000  0.5236780000000 1.0
C      1  0.5642440000000  0.5169860000000  0.4615830000000 1.0
C      1  0.5062650000000  0.5163860000000  0.4229430000000 1.0
C      1  0.4445320000000  0.5163720000000  0.4471810000000 1.0
C      1  0.4227060000000  0.5158260000000  0.5103990000000 1.0
C      1  0.4598320000000  0.5148860000000  0.5642810000000 1.0
C      1  0.5264860000000  0.5127070000000  0.5745030000000 1.0
C      1  0.5197380000000  0.5483520000000  0.5324760000000 1.0
C      1  0.5293150000000  0.5396310000000  0.5012570000000 1.0
C      1  0.5215500000000  0.5450180000000  0.4709290000000 1.0
C      1  0.4929920000000  0.5435700000000  0.4642740000000 1.0
C      1  0.4682870000000  0.5418400000000  0.4806440000000 1.0
C      1  0.4645800000000  0.5446650000000  0.5095570000000 1.0
C      1  0.4899000000000  0.5390810000000  0.5292610000000 1.0
C      1  0.4012440000000  0.5414790000000  0.4810860000000 1.0
C      1  0.4209230000000  0.5434020000000  0.5657120000000 1.0
C      1  0.5034640000000  0.5409330000000  0.5990670000000 1.0
C      1  0.5822920000000  0.5439790000000  0.5604490000000 1.0
C      1  0.5991210000000  0.5433040000000  0.4734700000000 1.0
C      1  0.5450460000000  0.5406380000000  0.4064060000000 1.0
C      1  0.4550560000000  0.5438400000000  0.4109570000000 1.0
C      1  0.4915120000000  0.5081210000000  0.4886480000000 1.0
C      1  0.4978480000000  0.4530440000000  0.5154680000000 1.0
C      1  0.4935220000000  0.4321760000000  0.5010420000000 1.0
C      1  0.5021310000000  0.5269720000000  0.5037850000000 1.0
END
