TITL C-2441162-9305-897 0.0866230470306609 125000 -23397.4548962012 0 0 168 (C1) n - 1
REM
REM in /home/bkarasulu/work/CARBON/AIRSS/Generating-Clusters/ReaxFF-fromJPCA2015/Units_Real/with-SteepDescent/Higher-Symm
REM
REM
REM
REM
REM
REM ./C.cell (1df0a924f5614ab8850e4351716899ee)
REM
REM compiler GCC version 9.2.1 20190827 (Red Hat 9.2.1-1)
REM options -cpp -mtune=generic -march=x86-64 -g -O0 -fpre-include=/usr/include/finclude/math-vector-fortran.h
REM seed 1688774706 -287812094 -1699891348 -2124184957 2792208 349567898 -1544374356 653878418 -1402562950 1209009430 1611217848 886912234 -1648103290 1097215285 -1377517345 553605768 -440149948 -288975558 1769585627 486899049 -1410462633 411166953 -307275057 -1177208664 -1547901078 -1804401963 -748988240 -1836076789 990174392 -1105741811 1339346066 1261965051 -1542674331
REM
CELL 1.54180   50.00000   50.00000   50.00000   90.00000   90.00000   90.00000
LATT -1
SFAC C  
C      1  0.4759360000000  0.4865850000000  0.5424380000000 1.0
C      1  0.4739990000000  0.5354730000000  0.5276580000000 1.0
C      1  0.4730850000000  0.5361770000000  0.4701800000000 1.0
C      1  0.4812760000000  0.4870650000000  0.4610870000000 1.0
C      1  0.4731380000000  0.4585300000000  0.5017780000000 1.0
C      1  0.5257440000000  0.4879940000000  0.4621720000000 1.0
C      1  0.5199690000000  0.5292930000000  0.4766210000000 1.0
C      1  0.5225810000000  0.5292890000000  0.5258700000000 1.0
C      1  0.5219340000000  0.4907100000000  0.5394870000000 1.0
C      1  0.5198060000000  0.4661570000000  0.5004190000000 1.0
C      1  0.5119150000000  0.5768860000000  0.4241220000000 1.0
C      1  0.5127530000000  0.4563150000000  0.4074010000000 1.0
C      1  0.5144570000000  0.4007460000000  0.5152040000000 1.0
C      1  0.5115920000000  0.4861550000000  0.5977630000000 1.0
C      1  0.5180570000000  0.5892320000000  0.5476500000000 1.0
C      1  0.4827800000000  0.5662180000000  0.5666850000000 1.0
C      1  0.4826380000000  0.4548540000000  0.5920270000000 1.0
C      1  0.4859100000000  0.4006690000000  0.4841390000000 1.0
C      1  0.4834620000000  0.4836120000000  0.3947620000000 1.0
C      1  0.4865600000000  0.5962910000000  0.4496100000000 1.0
C      1  0.4428970000000  0.4696680000000  0.4295420000000 1.0
C      1  0.4430430000000  0.4242040000000  0.5169710000000 1.0
C      1  0.4398740000000  0.4764670000000  0.5696430000000 1.0
C      1  0.4393930000000  0.5744630000000  0.5413920000000 1.0
C      1  0.4444720000000  0.5511860000000  0.4394740000000 1.0
C      1  0.5590490000000  0.4672620000000  0.5784050000000 1.0
C      1  0.5640310000000  0.4132360000000  0.4930200000000 1.0
C      1  0.5468120000000  0.4864410000000  0.4221890000000 1.0
C      1  0.5566000000000  0.5638850000000  0.4577680000000 1.0
C      1  0.5575010000000  0.5525720000000  0.5564480000000 1.0
C      1  0.4034230000000  0.5389060000000  0.5265570000000 1.0
C      1  0.4022500000000  0.5204560000000  0.4796780000000 1.0
C      1  0.4014250000000  0.4959320000000  0.4770730000000 1.0
C      1  0.4011430000000  0.4751440000000  0.4999180000000 1.0
C      1  0.3936530000000  0.4881510000000  0.5261620000000 1.0
C      1  0.5874700000000  0.5073190000000  0.4997190000000 1.0
C      1  0.5976180000000  0.5241910000000  0.5226560000000 1.0
C      1  0.5992950000000  0.4777770000000  0.5428800000000 1.0
C      1  0.6006750000000  0.4552140000000  0.4926540000000 1.0
C      1  0.5998800000000  0.5044880000000  0.4734420000000 1.0
C      1  0.5329190000000  0.4490560000000  0.5731980000000 1.0
C      1  0.5391760000000  0.5552460000000  0.5784450000000 1.0
C      1  0.5299010000000  0.5824140000000  0.4723800000000 1.0
C      1  0.5526550000000  0.5100370000000  0.4069190000000 1.0
C      1  0.5395700000000  0.4172690000000  0.4713920000000 1.0
C      1  0.4630460000000  0.4441940000000  0.4234120000000 1.0
C      1  0.4665650000000  0.5546930000000  0.4206240000000 1.0
C      1  0.4512130000000  0.5844530000000  0.5184690000000 1.0
C      1  0.4597690000000  0.5036780000000  0.5991550000000 1.0
C      1  0.4630480000000  0.4073390000000  0.5306340000000 1.0
C      1  0.4637020000000  0.4084060000000  0.4648260000000 1.0
C      1  0.4639420000000  0.4364030000000  0.5773960000000 1.0
C      1  0.4601920000000  0.5539440000000  0.5808110000000 1.0
C      1  0.4740570000000  0.6035270000000  0.4750260000000 1.0
C      1  0.4660200000000  0.5065530000000  0.4012850000000 1.0
C      1  0.5351920000000  0.4091280000000  0.5348440000000 1.0
C      1  0.5326510000000  0.4356850000000  0.4182330000000 1.0
C      1  0.5259040000000  0.5548320000000  0.4154910000000 1.0
C      1  0.5365770000000  0.5925100000000  0.5224540000000 1.0
C      1  0.5349130000000  0.5050200000000  0.5976860000000 1.0
C      1  0.4796850000000  0.5330400000000  0.4052840000000 1.0
C      1  0.4725280000000  0.4209520000000  0.4379080000000 1.0
C      1  0.4732410000000  0.4145960000000  0.5582400000000 1.0
C      1  0.4711480000000  0.5320800000000  0.5987760000000 1.0
C      1  0.4779260000000  0.5983880000000  0.5223560000000 1.0
C      1  0.5263070000000  0.5330400000000  0.5971330000000 1.0
C      1  0.5273240000000  0.4200570000000  0.5613820000000 1.0
C      1  0.5271540000000  0.4165560000000  0.4419870000000 1.0
C      1  0.5248750000000  0.5105970000000  0.3958230000000 1.0
C      1  0.5222230000000  0.5974100000000  0.4971930000000 1.0
C      1  0.4519940000000  0.5172410000000  0.4750830000000 1.0
C      1  0.4538020000000  0.4787240000000  0.4566620000000 1.0
C      1  0.4463420000000  0.4746490000000  0.5032740000000 1.0
C      1  0.4477030000000  0.4873720000000  0.5437100000000 1.0
C      1  0.4487220000000  0.5270600000000  0.5182620000000 1.0
C      1  0.5514740000000  0.5347150000000  0.5298280000000 1.0
C      1  0.5497870000000  0.4872970000000  0.5325070000000 1.0
C      1  0.5501240000000  0.4642890000000  0.4976610000000 1.0
C      1  0.5521490000000  0.4954600000000  0.4684410000000 1.0
C      1  0.5481800000000  0.5370900000000  0.4772870000000 1.0
C      1  0.4416500000000  0.4635530000000  0.4752220000000 1.0
C      1  0.4392040000000  0.4516020000000  0.5261120000000 1.0
C      1  0.4395310000000  0.5134180000000  0.5419220000000 1.0
C      1  0.4452360000000  0.5592910000000  0.5034100000000 1.0
C      1  0.4386050000000  0.5249030000000  0.4503620000000 1.0
C      1  0.5576220000000  0.4603440000000  0.5252730000000 1.0
C      1  0.5508910000000  0.4470510000000  0.4703630000000 1.0
C      1  0.5634620000000  0.5184730000000  0.4569170000000 1.0
C      1  0.5597910000000  0.5429620000000  0.5024790000000 1.0
C      1  0.5595930000000  0.5114780000000  0.5436580000000 1.0
C      1  0.5830220000000  0.5562530000000  0.4678110000000 1.0
C      1  0.5707370000000  0.4707730000000  0.4293840000000 1.0
C      1  0.5855200000000  0.4309170000000  0.4913420000000 1.0
C      1  0.5815750000000  0.4678010000000  0.5625970000000 1.0
C      1  0.5766890000000  0.5688640000000  0.5424690000000 1.0
C      1  0.4192870000000  0.5570030000000  0.5471170000000 1.0
C      1  0.4343850000000  0.4994820000000  0.5860190000000 1.0
C      1  0.4207910000000  0.4234510000000  0.4953220000000 1.0
C      1  0.4144810000000  0.4685420000000  0.4403600000000 1.0
C      1  0.4325110000000  0.5711050000000  0.4588360000000 1.0
C      1  0.5122510000000  0.4835700000000  0.3954980000000 1.0
C      1  0.5154520000000  0.4053680000000  0.4868450000000 1.0
C      1  0.5125550000000  0.4569380000000  0.5932090000000 1.0
C      1  0.5184550000000  0.5730130000000  0.5706880000000 1.0
C      1  0.5158310000000  0.5920280000000  0.4483450000000 1.0
C      1  0.4804750000000  0.4830290000000  0.6005630000000 1.0
C      1  0.4837650000000  0.3968630000000  0.5131740000000 1.0
C      1  0.4829600000000  0.4550510000000  0.4064630000000 1.0
C      1  0.4834130000000  0.5779820000000  0.4260460000000 1.0
C      1  0.4885760000000  0.5902270000000  0.5482850000000 1.0
C      1  0.5133750000000  0.5316690000000  0.5529210000000 1.0
C      1  0.5118920000000  0.5568590000000  0.4838840000000 1.0
C      1  0.5195030000000  0.5020960000000  0.4378260000000 1.0
C      1  0.5121840000000  0.4454140000000  0.4818680000000 1.0
C      1  0.5164930000000  0.4624380000000  0.5471240000000 1.0
C      1  0.4880530000000  0.5289970000000  0.4472610000000 1.0
C      1  0.4850810000000  0.5555580000000  0.5145140000000 1.0
C      1  0.4833510000000  0.5065400000000  0.5615720000000 1.0
C      1  0.4868350000000  0.4459070000000  0.5240910000000 1.0
C      1  0.4902020000000  0.4605300000000  0.4529320000000 1.0
C      1  0.4378360000000  0.4475820000000  0.5733070000000 1.0
C      1  0.4323900000000  0.5481100000000  0.5718010000000 1.0
C      1  0.4503120000000  0.5898170000000  0.4689790000000 1.0
C      1  0.4422550000000  0.4960220000000  0.4136070000000 1.0
C      1  0.4390730000000  0.4158370000000  0.4755460000000 1.0
C      1  0.5583620000000  0.4474270000000  0.4201330000000 1.0
C      1  0.5518270000000  0.5534150000000  0.4299290000000 1.0
C      1  0.5637430000000  0.5836650000000  0.5212630000000 1.0
C      1  0.5601720000000  0.4959490000000  0.5855520000000 1.0
C      1  0.5611600000000  0.4155720000000  0.5221480000000 1.0
C      1  0.5796200000000  0.5639390000000  0.4982000000000 1.0
C      1  0.5640680000000  0.5280080000000  0.4272740000000 1.0
C      1  0.5751870000000  0.4585720000000  0.4567090000000 1.0
C      1  0.5761850000000  0.4396630000000  0.5327020000000 1.0
C      1  0.5772220000000  0.5118330000000  0.5661490000000 1.0
C      1  0.4221430000000  0.5630230000000  0.4863570000000 1.0
C      1  0.4230600000000  0.5194240000000  0.5658730000000 1.0
C      1  0.4205040000000  0.4457900000000  0.5481430000000 1.0
C      1  0.4175610000000  0.4497710000000  0.4626990000000 1.0
C      1  0.4231640000000  0.5081370000000  0.4319380000000 1.0
C      1  0.5995040000000  0.5076150000000  0.5469360000000 1.0
C      1  0.5940480000000  0.5535130000000  0.5228790000000 1.0
C      1  0.5918090000000  0.5297160000000  0.4595030000000 1.0
C      1  0.5954640000000  0.4749110000000  0.4706490000000 1.0
C      1  0.5989440000000  0.4559840000000  0.5222610000000 1.0
C      1  0.4042810000000  0.4939920000000  0.4486980000000 1.0
C      1  0.4027740000000  0.5419420000000  0.4962240000000 1.0
C      1  0.3993790000000  0.5146100000000  0.5399650000000 1.0
C      1  0.4027230000000  0.4661650000000  0.5407540000000 1.0
C      1  0.4046250000000  0.4485950000000  0.4892540000000 1.0
C      1  0.5170330000000  0.5308570000000  0.4472550000000 1.0
C      1  0.5194720000000  0.4583730000000  0.4562660000000 1.0
C      1  0.5151790000000  0.4485820000000  0.5226580000000 1.0
C      1  0.5123230000000  0.5050600000000  0.5627470000000 1.0
C      1  0.5128500000000  0.5534340000000  0.5125730000000 1.0
C      1  0.4854220000000  0.5348450000000  0.5528770000000 1.0
C      1  0.4872470000000  0.4609800000000  0.5485010000000 1.0
C      1  0.4836390000000  0.4465230000000  0.4773570000000 1.0
C      1  0.4897900000000  0.5022690000000  0.4373030000000 1.0
C      1  0.4821830000000  0.5586640000000  0.4862660000000 1.0
C      1  0.5006410000000  0.4162690000000  0.5594520000000 1.0
C      1  0.5087670000000  0.5339990000000  0.4023820000000 1.0
C      1  0.4986940000000  0.5333350000000  0.5985780000000 1.0
C      1  0.4935100000000  0.6031870000000  0.4989490000000 1.0
C      1  0.5004850000000  0.4181920000000  0.4394340000000 1.0
C      1  0.5607160000000  0.4951600000000  0.4947570000000 1.0
C      1  0.4480130000000  0.5046110000000  0.5004350000000 1.0
C      1  0.5062560000000  0.4978400000000  0.4866600000000 1.0
END
