TITL C-2441164-471-96 0.130811342356315 125000 -18066.6701340691 0 0 146 (C1) n - 1
REM
REM in /home/bkarasulu/work/CARBON/AIRSS/Generating-Clusters/ReaxFF-fromJPCA2015/Units_Real/with-SteepDescent/Higher-Symm
REM
REM
REM
REM
REM
REM ./C.cell (1df0a924f5614ab8850e4351716899ee)
REM
REM compiler GCC version 9.2.1 20190827 (Red Hat 9.2.1-1)
REM options -cpp -mtune=generic -march=x86-64 -g -O0 -fpre-include=/usr/include/finclude/math-vector-fortran.h
REM seed -1562572349 -373249315 -161074399 -1621625323 -1888012822 -664247039 -1498707928 822057959 -1318932613 -1489115472 154329731 -306807460 1707777874 594420589 -761845245 -116325326 -1047801319 279150561 473738072 1763723212 -1257660555 -523340049 1373154437 315917110 -1803695587 2076239849 609485816 -354203739 -1405355749 88315325 -939670906 9425575 447423380
REM
CELL 1.54180   50.00000   50.00000   50.00000   90.00000   90.00000   90.00000
LATT -1
SFAC C  
C      1  0.5254810000000  0.4497270000000  0.5293070000000 1.0
C      1  0.4785660000000  0.4569380000000  0.5297220000000 1.0
C      1  0.4579550000000  0.4520690000000  0.5113090000000 1.0
C      1  0.4725950000000  0.4547660000000  0.4772230000000 1.0
C      1  0.5001500000000  0.4485910000000  0.4671090000000 1.0
C      1  0.5267870000000  0.4495940000000  0.4782570000000 1.0
C      1  0.5393610000000  0.4512350000000  0.5042450000000 1.0
C      1  0.5991170000000  0.5127800000000  0.4646740000000 1.0
C      1  0.5878890000000  0.5138630000000  0.5545550000000 1.0
C      1  0.5110550000000  0.5132200000000  0.6037630000000 1.0
C      1  0.4246960000000  0.5123820000000  0.5740290000000 1.0
C      1  0.3934750000000  0.5095000000000  0.4902570000000 1.0
C      1  0.4441490000000  0.5130820000000  0.4096540000000 1.0
C      1  0.5344980000000  0.5136510000000  0.4010030000000 1.0
C      1  0.4457720000000  0.4367460000000  0.5539750000000 1.0
C      1  0.4238900000000  0.4345100000000  0.4910670000000 1.0
C      1  0.4590250000000  0.4355890000000  0.4367990000000 1.0
C      1  0.5233940000000  0.4347090000000  0.4290220000000 1.0
C      1  0.5699470000000  0.4357120000000  0.4739090000000 1.0
C      1  0.5641790000000  0.4346590000000  0.5390710000000 1.0
C      1  0.5080660000000  0.4348660000000  0.5704590000000 1.0
C      1  0.4425740000000  0.5529640000000  0.5194700000000 1.0
C      1  0.4431090000000  0.5527810000000  0.4651410000000 1.0
C      1  0.4926900000000  0.5521870000000  0.4389800000000 1.0
C      1  0.5438390000000  0.5528600000000  0.4547680000000 1.0
C      1  0.5597080000000  0.5534560000000  0.5054160000000 1.0
C      1  0.5327810000000  0.5521940000000  0.5518050000000 1.0
C      1  0.4797530000000  0.5531460000000  0.5576950000000 1.0
C      1  0.4460970000000  0.5441020000000  0.4359000000000 1.0
C      1  0.5148430000000  0.5453310000000  0.4178930000000 1.0
C      1  0.5736530000000  0.5456390000000  0.4601980000000 1.0
C      1  0.5747380000000  0.5450360000000  0.5321820000000 1.0
C      1  0.5209120000000  0.5449700000000  0.5794190000000 1.0
C      1  0.4495610000000  0.5446790000000  0.5645530000000 1.0
C      1  0.4167230000000  0.5456460000000  0.5003730000000 1.0
C      1  0.4707530000000  0.5866120000000  0.4443960000000 1.0
C      1  0.5248100000000  0.5873570000000  0.4426630000000 1.0
C      1  0.5602970000000  0.5884180000000  0.4835970000000 1.0
C      1  0.5492130000000  0.5875430000000  0.5374980000000 1.0
C      1  0.5016320000000  0.5878200000000  0.5622340000000 1.0
C      1  0.4519310000000  0.5880280000000  0.5392570000000 1.0
C      1  0.4384110000000  0.5877330000000  0.4869550000000 1.0
C      1  0.5479320000000  0.5073580000000  0.5734530000000 1.0
C      1  0.4725140000000  0.5076770000000  0.5835190000000 1.0
C      1  0.4200930000000  0.5099840000000  0.5305590000000 1.0
C      1  0.4236010000000  0.5085530000000  0.4541140000000 1.0
C      1  0.4878140000000  0.5078470000000  0.4109850000000 1.0
C      1  0.5617130000000  0.5071630000000  0.4351860000000 1.0
C      1  0.5880790000000  0.5083520000000  0.5063190000000 1.0
C      1  0.5355860000000  0.5644690000000  0.4284810000000 1.0
C      1  0.5768360000000  0.5647020000000  0.4830440000000 1.0
C      1  0.5603170000000  0.5640350000000  0.5504100000000 1.0
C      1  0.4982300000000  0.5642850000000  0.5785680000000 1.0
C      1  0.4362970000000  0.5646160000000  0.5464040000000 1.0
C      1  0.4203520000000  0.5664990000000  0.4787120000000 1.0
C      1  0.4676760000000  0.5634710000000  0.4272700000000 1.0
C      1  0.4739920000000  0.4046970000000  0.4763940000000 1.0
C      1  0.5013390000000  0.4018780000000  0.4645640000000 1.0
C      1  0.5285140000000  0.4010950000000  0.4763390000000 1.0
C      1  0.5365230000000  0.3959830000000  0.5036230000000 1.0
C      1  0.5300930000000  0.4032500000000  0.5305770000000 1.0
C      1  0.4840370000000  0.4081300000000  0.5280140000000 1.0
C      1  0.4648120000000  0.4020860000000  0.5051910000000 1.0
C      1  0.4578620000000  0.4756810000000  0.4294510000000 1.0
C      1  0.5278900000000  0.4755240000000  0.4241540000000 1.0
C      1  0.5741840000000  0.4766320000000  0.4738100000000 1.0
C      1  0.5672990000000  0.4770230000000  0.5424190000000 1.0
C      1  0.5076310000000  0.4756390000000  0.5796790000000 1.0
C      1  0.4427180000000  0.4773450000000  0.5559390000000 1.0
C      1  0.4189140000000  0.4767840000000  0.4881760000000 1.0
C      1  0.4474800000000  0.4254840000000  0.5054150000000 1.0
C      1  0.4617250000000  0.4296260000000  0.4651060000000 1.0
C      1  0.5024210000000  0.4259940000000  0.4475470000000 1.0
C      1  0.5431480000000  0.4256030000000  0.4690870000000 1.0
C      1  0.5534770000000  0.4169590000000  0.5180240000000 1.0
C      1  0.5127280000000  0.4234610000000  0.5430920000000 1.0
C      1  0.4714760000000  0.4286030000000  0.5445550000000 1.0
C      1  0.4980890000000  0.5795430000000  0.4500350000000 1.0
C      1  0.5388780000000  0.5796930000000  0.4664920000000 1.0
C      1  0.5503120000000  0.5816800000000  0.5095520000000 1.0
C      1  0.5225760000000  0.5792290000000  0.5446130000000 1.0
C      1  0.4787470000000  0.5811540000000  0.5464640000000 1.0
C      1  0.4515120000000  0.5804140000000  0.5114870000000 1.0
C      1  0.4584970000000  0.5776290000000  0.4689690000000 1.0
C      1  0.5030360000000  0.5209330000000  0.5748380000000 1.0
C      1  0.4432810000000  0.5205730000000  0.5473110000000 1.0
C      1  0.4314770000000  0.5245140000000  0.4819190000000 1.0
C      1  0.4638980000000  0.5198530000000  0.4329320000000 1.0
C      1  0.5298680000000  0.5213180000000  0.4294390000000 1.0
C      1  0.5729330000000  0.5212290000000  0.4792270000000 1.0
C      1  0.5607740000000  0.5216680000000  0.5437450000000 1.0
C      1  0.5078420000000  0.5241090000000  0.3964730000000 1.0
C      1  0.5856120000000  0.5233100000000  0.4415130000000 1.0
C      1  0.5975110000000  0.5242330000000  0.5294670000000 1.0
C      1  0.5367260000000  0.5234160000000  0.5958220000000 1.0
C      1  0.4473700000000  0.5233200000000  0.5868980000000 1.0
C      1  0.3992060000000  0.5241930000000  0.5130090000000 1.0
C      1  0.4244230000000  0.5231270000000  0.4279970000000 1.0
C      1  0.4945610000000  0.5300270000000  0.4648620000000 1.0
C      1  0.5248980000000  0.5332190000000  0.4757350000000 1.0
C      1  0.5301250000000  0.5421700000000  0.5031610000000 1.0
C      1  0.5175230000000  0.5333870000000  0.5281310000000 1.0
C      1  0.4888490000000  0.5364110000000  0.5328820000000 1.0
C      1  0.4679840000000  0.5339190000000  0.5138960000000 1.0
C      1  0.4798020000000  0.5415260000000  0.4881210000000 1.0
C      1  0.5303270000000  0.5030340000000  0.4804180000000 1.0
C      1  0.5337950000000  0.4977880000000  0.5098810000000 1.0
C      1  0.5140240000000  0.4969320000000  0.5340980000000 1.0
C      1  0.4847520000000  0.4862820000000  0.5357320000000 1.0
C      1  0.4649450000000  0.4945470000000  0.4995630000000 1.0
C      1  0.4714800000000  0.4858710000000  0.4716550000000 1.0
C      1  0.5000430000000  0.4999660000000  0.4613010000000 1.0
C      1  0.5427610000000  0.4541300000000  0.4383180000000 1.0
C      1  0.5685200000000  0.4544160000000  0.4990370000000 1.0
C      1  0.5444640000000  0.4549470000000  0.5512220000000 1.0
C      1  0.4868060000000  0.4543910000000  0.5740920000000 1.0
C      1  0.4354110000000  0.4560860000000  0.5304720000000 1.0
C      1  0.4280380000000  0.4541930000000  0.4696240000000 1.0
C      1  0.4788240000000  0.4541040000000  0.4265090000000 1.0
C      1  0.5561250000000  0.5004330000000  0.4675470000000 1.0
C      1  0.5598470000000  0.5008240000000  0.5228050000000 1.0
C      1  0.5188240000000  0.4999260000000  0.5621130000000 1.0
C      1  0.4636050000000  0.4990380000000  0.5523040000000 1.0
C      1  0.4369420000000  0.5026840000000  0.5021220000000 1.0
C      1  0.4550470000000  0.4977640000000  0.4503860000000 1.0
C      1  0.5105550000000  0.4994240000000  0.4337130000000 1.0
C      1  0.5987170000000  0.4911560000000  0.4835860000000 1.0
C      1  0.5734390000000  0.4922940000000  0.5672880000000 1.0
C      1  0.4920590000000  0.4920740000000  0.5999170000000 1.0
C      1  0.4166970000000  0.4923740000000  0.5553540000000 1.0
C      1  0.4018010000000  0.4936470000000  0.4692550000000 1.0
C      1  0.4630060000000  0.4920950000000  0.4042410000000 1.0
C      1  0.5503950000000  0.4921940000000  0.4118220000000 1.0
C      1  0.5798250000000  0.4545790000000  0.5267550000000 1.0
C      1  0.5282550000000  0.4541550000000  0.5763570000000 1.0
C      1  0.4577050000000  0.4554670000000  0.5727450000000 1.0
C      1  0.4146950000000  0.4552050000000  0.5091120000000 1.0
C      1  0.4374720000000  0.4538940000000  0.4425750000000 1.0
C      1  0.5053030000000  0.4535120000000  0.4166810000000 1.0
C      1  0.5678640000000  0.4545220000000  0.4522260000000 1.0
C      1  0.4954980000000  0.5640320000000  0.4958420000000 1.0
C      1  0.5025350000000  0.4771830000000  0.4965020000000 1.0
C      1  0.4993810000000  0.4219240000000  0.5020920000000 1.0
C      1  0.5026220000000  0.5863240000000  0.5005070000000 1.0
C      1  0.4920400000000  0.5033580000000  0.5018840000000 1.0
C      1  0.5011450000000  0.4519120000000  0.5137240000000 1.0
END
