TITL C-2441157-2117-36 0.0278016974613698 125000 -12821.0893880582 0 0 92 (C1) n - 1
REM
REM in /home/bkarasulu/work/CARBON/AIRSS/Generating-Clusters/ReaxFF-fromJPCA2015/Units_Real/with-SteepDescent/Higher-Symm
REM
REM
REM
REM
REM
REM ./C.cell (1df0a924f5614ab8850e4351716899ee)
REM
REM compiler GCC version 9.2.1 20190827 (Red Hat 9.2.1-1)
REM options -cpp -mtune=generic -march=x86-64 -g -O0 -fpre-include=/usr/include/finclude/math-vector-fortran.h
REM seed 948918784 2096512619 -2036292169 1036512536 -234052214 -1127282023 1718817338 -2007547313 -1481854426 -902392309 -1076179216 -192353280 2122156510 304168309 1187428144 -1611822448 -2078484669 816812963 424859457 803804668 1521302943 -1835681213 467132382 703495061 -729824244 -990586574 -1748953652 -134964562 -141299890 -389854339 -1858576797 81349012 1667086820
REM
CELL 1.54180   50.00000   50.00000   50.00000   90.00000   90.00000   90.00000
LATT -1
SFAC C  
C      1  0.5106340000000  0.4379170000000  0.4973440000000 1.0
C      1  0.4873070000000  0.5608420000000  0.4979000000000 1.0
C      1  0.4857200000000  0.4199370000000  0.5106360000000 1.0
C      1  0.5127480000000  0.5794020000000  0.5095060000000 1.0
C      1  0.4739470000000  0.5611760000000  0.4457880000000 1.0
C      1  0.5180760000000  0.4465050000000  0.4472170000000 1.0
C      1  0.4163300000000  0.4859980000000  0.4954780000000 1.0
C      1  0.5827670000000  0.5111130000000  0.4963380000000 1.0
C      1  0.4990800000000  0.5142900000000  0.5813690000000 1.0
C      1  0.5025260000000  0.4857290000000  0.5808500000000 1.0
C      1  0.5698650000000  0.5231840000000  0.5496900000000 1.0
C      1  0.4299630000000  0.4770720000000  0.5494020000000 1.0
C      1  0.5480940000000  0.4778050000000  0.4249190000000 1.0
C      1  0.4551350000000  0.5243580000000  0.4277980000000 1.0
C      1  0.4133380000000  0.4801440000000  0.5235050000000 1.0
C      1  0.5867070000000  0.5192300000000  0.5233810000000 1.0
C      1  0.5905810000000  0.4915130000000  0.5311800000000 1.0
C      1  0.4098320000000  0.5082010000000  0.5300250000000 1.0
C      1  0.4436840000000  0.4764020000000  0.4435570000000 1.0
C      1  0.5595350000000  0.5156420000000  0.4490450000000 1.0
C      1  0.4637430000000  0.5677370000000  0.5116710000000 1.0
C      1  0.5353710000000  0.4310630000000  0.5097980000000 1.0
C      1  0.4479510000000  0.5466780000000  0.4433790000000 1.0
C      1  0.5458580000000  0.4566050000000  0.4442550000000 1.0
C      1  0.4951970000000  0.4599460000000  0.4318920000000 1.0
C      1  0.4937540000000  0.5396060000000  0.4401860000000 1.0
C      1  0.4690170000000  0.4577390000000  0.5201090000000 1.0
C      1  0.5348260000000  0.5460580000000  0.5203610000000 1.0
C      1  0.5237230000000  0.5679780000000  0.5351780000000 1.0
C      1  0.4764250000000  0.4338520000000  0.5350370000000 1.0
C      1  0.5095220000000  0.5559910000000  0.5580540000000 1.0
C      1  0.4907880000000  0.4437340000000  0.5588560000000 1.0
C      1  0.5633900000000  0.5428030000000  0.4586610000000 1.0
C      1  0.4379470000000  0.4525470000000  0.4591100000000 1.0
C      1  0.5251460000000  0.5242050000000  0.4753590000000 1.0
C      1  0.4687670000000  0.4841020000000  0.4766710000000 1.0
C      1  0.5775740000000  0.4963320000000  0.5574460000000 1.0
C      1  0.4220000000000  0.5041570000000  0.5571490000000 1.0
C      1  0.5537010000000  0.4917050000000  0.4695180000000 1.0
C      1  0.4439890000000  0.4964940000000  0.4665310000000 1.0
C      1  0.4616200000000  0.5580860000000  0.5375140000000 1.0
C      1  0.5385370000000  0.4415520000000  0.5358160000000 1.0
C      1  0.5403930000000  0.5236510000000  0.4285860000000 1.0
C      1  0.4683870000000  0.4745310000000  0.4286300000000 1.0
C      1  0.4905820000000  0.4779610000000  0.5142400000000 1.0
C      1  0.5141250000000  0.5240700000000  0.5218680000000 1.0
C      1  0.5565530000000  0.4757820000000  0.5621720000000 1.0
C      1  0.4417330000000  0.5248310000000  0.5633520000000 1.0
C      1  0.4719980000000  0.4999970000000  0.5439400000000 1.0
C      1  0.5269270000000  0.5037310000000  0.5396790000000 1.0
C      1  0.4393210000000  0.5403380000000  0.5399060000000 1.0
C      1  0.5596780000000  0.4593630000000  0.5390290000000 1.0
C      1  0.4583720000000  0.4783200000000  0.5578800000000 1.0
C      1  0.5421680000000  0.5205290000000  0.5588310000000 1.0
C      1  0.4258130000000  0.4611820000000  0.4850180000000 1.0
C      1  0.5732070000000  0.5358790000000  0.4857090000000 1.0
C      1  0.5274960000000  0.4745970000000  0.5682530000000 1.0
C      1  0.4735240000000  0.5233310000000  0.5660960000000 1.0
C      1  0.4821440000000  0.5494710000000  0.5549970000000 1.0
C      1  0.5188550000000  0.4496780000000  0.5553710000000 1.0
C      1  0.4484820000000  0.5663170000000  0.4866580000000 1.0
C      1  0.5485280000000  0.4322800000000  0.4839850000000 1.0
C      1  0.4762080000000  0.5008160000000  0.5021190000000 1.0
C      1  0.5268530000000  0.5107570000000  0.5001460000000 1.0
C      1  0.4737850000000  0.4180010000000  0.4842700000000 1.0
C      1  0.5239410000000  0.5806140000000  0.4840480000000 1.0
C      1  0.5670440000000  0.4769880000000  0.5165780000000 1.0
C      1  0.4334410000000  0.5214610000000  0.5163890000000 1.0
C      1  0.5269580000000  0.4800410000000  0.4749110000000 1.0
C      1  0.4843520000000  0.5259210000000  0.4657950000000 1.0
C      1  0.4806860000000  0.4668770000000  0.5735290000000 1.0
C      1  0.5200300000000  0.5330930000000  0.5738570000000 1.0
C      1  0.4635040000000  0.4451830000000  0.4733300000000 1.0
C      1  0.5359890000000  0.5526210000000  0.4710940000000 1.0
C      1  0.4358130000000  0.5444050000000  0.4714020000000 1.0
C      1  0.5642950000000  0.4520890000000  0.4696470000000 1.0
C      1  0.4495820000000  0.4505290000000  0.4991120000000 1.0
C      1  0.5512560000000  0.5514770000000  0.4972380000000 1.0
C      1  0.5225630000000  0.4306640000000  0.4708380000000 1.0
C      1  0.4728090000000  0.5726410000000  0.4721970000000 1.0
C      1  0.5072540000000  0.4794980000000  0.4155680000000 1.0
C      1  0.4953300000000  0.5183200000000  0.4203010000000 1.0
C      1  0.5154690000000  0.5013910000000  0.4609310000000 1.0
C      1  0.4874290000000  0.4981780000000  0.4601770000000 1.0
C      1  0.4887090000000  0.5306980000000  0.4936860000000 1.0
C      1  0.5108830000000  0.4686630000000  0.4965920000000 1.0
C      1  0.4707320000000  0.5034260000000  0.4173010000000 1.0
C      1  0.5281970000000  0.4990980000000  0.4126990000000 1.0
C      1  0.4303620000000  0.5182740000000  0.4820510000000 1.0
C      1  0.5738150000000  0.4764700000000  0.4841160000000 1.0
C      1  0.4563760000000  0.5049870000000  0.5207040000000 1.0
C      1  0.5433340000000  0.4955510000000  0.5176950000000 1.0
END
