TITL C-2441157-2117-761 0.0744591688383921 125000 -17052.0038928268 0 0 129 (C1) n - 1
REM
REM in /home/bkarasulu/work/CARBON/AIRSS/Generating-Clusters/ReaxFF-fromJPCA2015/Units_Real/with-SteepDescent/Higher-Symm
REM
REM
REM
REM
REM
REM ./C.cell (1df0a924f5614ab8850e4351716899ee)
REM
REM compiler GCC version 9.2.1 20190827 (Red Hat 9.2.1-1)
REM options -cpp -mtune=generic -march=x86-64 -g -O0 -fpre-include=/usr/include/finclude/math-vector-fortran.h
REM seed 1219095857 939292023 -1997003989 839615492 1311533644 1922928567 -2075429408 1175121064 -939821147 709193595 60956922 600499021 -1516915360 896649215 2000440147 -2124234484 1302429520 1662271889 -2076204370 -113935403 -918823257 -714844996 -473214714 279806726 303147592 1805145411 -1417074040 -1201384565 -2043430851 839821213 -685566845 1745772393 -1717639368
REM
CELL 1.54180   50.00000   50.00000   50.00000   90.00000   90.00000   90.00000
LATT -1
SFAC C  
C      1  0.4218350000000  0.4890400000000  0.5351690000000 1.0
C      1  0.5162310000000  0.4221320000000  0.5266540000000 1.0
C      1  0.5786450000000  0.5139820000000  0.5300620000000 1.0
C      1  0.4781240000000  0.5781060000000  0.5250140000000 1.0
C      1  0.5713460000000  0.4654570000000  0.4738760000000 1.0
C      1  0.4655650000000  0.4259540000000  0.4731250000000 1.0
C      1  0.4279740000000  0.5396330000000  0.4721130000000 1.0
C      1  0.5170480000000  0.5788500000000  0.4792680000000 1.0
C      1  0.5469720000000  0.4959860000000  0.4091640000000 1.0
C      1  0.4951150000000  0.5517840000000  0.4124620000000 1.0
C      1  0.4539310000000  0.4913610000000  0.4129600000000 1.0
C      1  0.5020280000000  0.4535450000000  0.4122120000000 1.0
C      1  0.4551570000000  0.5038310000000  0.5888080000000 1.0
C      1  0.5059720000000  0.5497510000000  0.5879910000000 1.0
C      1  0.5474650000000  0.4953100000000  0.5896960000000 1.0
C      1  0.5024210000000  0.4525210000000  0.5907260000000 1.0
C      1  0.5100680000000  0.5865840000000  0.5234330000000 1.0
C      1  0.4152780000000  0.5244190000000  0.5145950000000 1.0
C      1  0.4872430000000  0.4112240000000  0.5230050000000 1.0
C      1  0.5910920000000  0.4876090000000  0.5211660000000 1.0
C      1  0.4856950000000  0.5848210000000  0.4779130000000 1.0
C      1  0.5785560000000  0.5262860000000  0.4835460000000 1.0
C      1  0.5239110000000  0.4213940000000  0.4867980000000 1.0
C      1  0.4146940000000  0.4711880000000  0.4849620000000 1.0
C      1  0.4639520000000  0.5478280000000  0.4221010000000 1.0
C      1  0.4541700000000  0.4632030000000  0.4247520000000 1.0
C      1  0.5402660000000  0.4515280000000  0.4272700000000 1.0
C      1  0.5474160000000  0.5437590000000  0.4249440000000 1.0
C      1  0.5338180000000  0.5471520000000  0.5731900000000 1.0
C      1  0.5496120000000  0.4650490000000  0.5717560000000 1.0
C      1  0.4590500000000  0.4499020000000  0.5747040000000 1.0
C      1  0.4555890000000  0.5314970000000  0.5720040000000 1.0
C      1  0.4801140000000  0.5008950000000  0.6019890000000 1.0
C      1  0.5001250000000  0.4786970000000  0.6032030000000 1.0
C      1  0.5224490000000  0.4974910000000  0.6035360000000 1.0
C      1  0.5027700000000  0.5222130000000  0.5971550000000 1.0
C      1  0.5197830000000  0.5000590000000  0.3977850000000 1.0
C      1  0.5000400000000  0.4791240000000  0.3959530000000 1.0
C      1  0.4776330000000  0.4978490000000  0.3978050000000 1.0
C      1  0.4981200000000  0.5206320000000  0.4053600000000 1.0
C      1  0.5693650000000  0.5414870000000  0.4457510000000 1.0
C      1  0.4560870000000  0.5668950000000  0.4427820000000 1.0
C      1  0.4341790000000  0.4560100000000  0.4447690000000 1.0
C      1  0.5403650000000  0.4312570000000  0.4489640000000 1.0
C      1  0.4367710000000  0.5387880000000  0.5488380000000 1.0
C      1  0.5482930000000  0.5652950000000  0.5456520000000 1.0
C      1  0.5672980000000  0.4529240000000  0.5489790000000 1.0
C      1  0.4512900000000  0.4357390000000  0.5494710000000 1.0
C      1  0.4519140000000  0.4902990000000  0.4554040000000 1.0
C      1  0.5166630000000  0.4613400000000  0.4319820000000 1.0
C      1  0.5416330000000  0.5156810000000  0.4292970000000 1.0
C      1  0.4910380000000  0.5471630000000  0.4504340000000 1.0
C      1  0.5402810000000  0.4852420000000  0.5515440000000 1.0
C      1  0.4862840000000  0.4505960000000  0.5681850000000 1.0
C      1  0.4749260000000  0.5172920000000  0.5522600000000 1.0
C      1  0.5170480000000  0.5382350000000  0.5507610000000 1.0
C      1  0.4627580000000  0.5759240000000  0.4922880000000 1.0
C      1  0.4288080000000  0.4470320000000  0.4953180000000 1.0
C      1  0.5506340000000  0.4288460000000  0.4968050000000 1.0
C      1  0.5675060000000  0.5518340000000  0.4928570000000 1.0
C      1  0.5321820000000  0.5822050000000  0.5057610000000 1.0
C      1  0.5812330000000  0.4646780000000  0.5047530000000 1.0
C      1  0.4645870000000  0.4181990000000  0.5056410000000 1.0
C      1  0.4256620000000  0.5496480000000  0.5052150000000 1.0
C      1  0.5836940000000  0.4748440000000  0.5446570000000 1.0
C      1  0.5226790000000  0.5765000000000  0.5465700000000 1.0
C      1  0.4169020000000  0.5176610000000  0.5423470000000 1.0
C      1  0.4743010000000  0.4204550000000  0.5463670000000 1.0
C      1  0.4241710000000  0.4800260000000  0.4573620000000 1.0
C      1  0.4827760000000  0.5754360000000  0.4501220000000 1.0
C      1  0.5791270000000  0.5152050000000  0.4563080000000 1.0
C      1  0.5145060000000  0.4212390000000  0.4585070000000 1.0
C      1  0.4485700000000  0.5220400000000  0.4236970000000 1.0
C      1  0.4779500000000  0.4455180000000  0.4281560000000 1.0
C      1  0.5587100000000  0.4760480000000  0.4277330000000 1.0
C      1  0.5221520000000  0.5588090000000  0.4288690000000 1.0
C      1  0.5537360000000  0.5215760000000  0.5779350000000 1.0
C      1  0.5265260000000  0.4446810000000  0.5760570000000 1.0
C      1  0.4464440000000  0.4764120000000  0.5825820000000 1.0
C      1  0.4790310000000  0.5550690000000  0.5770670000000 1.0
C      1  0.4830120000000  0.4515130000000  0.4873960000000 1.0
C      1  0.5472200000000  0.4807860000000  0.4833270000000 1.0
C      1  0.5156490000000  0.5446030000000  0.4857670000000 1.0
C      1  0.4497610000000  0.5150240000000  0.4855880000000 1.0
C      1  0.5114790000000  0.4519520000000  0.5152550000000 1.0
C      1  0.4436360000000  0.4859660000000  0.5152100000000 1.0
C      1  0.4835140000000  0.5483690000000  0.5174830000000 1.0
C      1  0.5504450000000  0.5138500000000  0.5162420000000 1.0
C      1  0.5581130000000  0.5590080000000  0.4660100000000 1.0
C      1  0.4455100000000  0.5642790000000  0.4714290000000 1.0
C      1  0.4393610000000  0.4394240000000  0.4690330000000 1.0
C      1  0.5589070000000  0.4369290000000  0.4708630000000 1.0
C      1  0.4447150000000  0.5557140000000  0.5257730000000 1.0
C      1  0.5544030000000  0.5653360000000  0.5173160000000 1.0
C      1  0.5650870000000  0.4463850000000  0.5191840000000 1.0
C      1  0.4451100000000  0.4338540000000  0.5191570000000 1.0
C      1  0.5095780000000  0.4802580000000  0.4513850000000 1.0
C      1  0.5211350000000  0.5104460000000  0.4498790000000 1.0
C      1  0.4931260000000  0.5207670000000  0.4387770000000 1.0
C      1  0.4787710000000  0.4940210000000  0.4444110000000 1.0
C      1  0.4920860000000  0.4752650000000  0.5575320000000 1.0
C      1  0.4695380000000  0.4879850000000  0.5486110000000 1.0
C      1  0.5018790000000  0.5196330000000  0.5630060000000 1.0
C      1  0.5131380000000  0.4930920000000  0.5586010000000 1.0
C      1  0.4363900000000  0.5288600000000  0.4468530000000 1.0
C      1  0.4861670000000  0.4286520000000  0.4508870000000 1.0
C      1  0.5735880000000  0.4864290000000  0.4499060000000 1.0
C      1  0.5313770000000  0.5692260000000  0.4548100000000 1.0
C      1  0.5680180000000  0.5189180000000  0.5548420000000 1.0
C      1  0.5220130000000  0.4319010000000  0.5515900000000 1.0
C      1  0.4406770000000  0.4792870000000  0.5545690000000 1.0
C      1  0.4751070000000  0.5687590000000  0.5531560000000 1.0
C      1  0.5102520000000  0.5442610000000  0.5105160000000 1.0
C      1  0.4463330000000  0.5134860000000  0.5120990000000 1.0
C      1  0.4825540000000  0.4561230000000  0.5164160000000 1.0
C      1  0.5447450000000  0.4859250000000  0.5228080000000 1.0
C      1  0.4912960000000  0.5409740000000  0.4746160000000 1.0
C      1  0.5510300000000  0.5099270000000  0.4871480000000 1.0
C      1  0.5121390000000  0.4480420000000  0.4863980000000 1.0
C      1  0.4568110000000  0.4877800000000  0.4795830000000 1.0
C      1  0.4732900000000  0.5220040000000  0.5233600000000 1.0
C      1  0.4720580000000  0.4819580000000  0.5212840000000 1.0
C      1  0.5178980000000  0.4808900000000  0.5163110000000 1.0
C      1  0.5219790000000  0.5243060000000  0.5252430000000 1.0
C      1  0.5292920000000  0.5225810000000  0.4748520000000 1.0
C      1  0.5216610000000  0.4720420000000  0.4750840000000 1.0
C      1  0.4825750000000  0.4787960000000  0.4789030000000 1.0
C      1  0.4711330000000  0.5282750000000  0.4800730000000 1.0
C      1  0.4993000000000  0.5018970000000  0.5130620000000 1.0
END
