TITL C-2441164-471-620 0.0387136480260008 125000 -11734.7783091811 0 0 87 (C1) n - 1
REM
REM in /home/bkarasulu/work/CARBON/AIRSS/Generating-Clusters/ReaxFF-fromJPCA2015/Units_Real/with-SteepDescent/Higher-Symm
REM
REM
REM
REM
REM
REM ./C.cell (1df0a924f5614ab8850e4351716899ee)
REM
REM compiler GCC version 9.2.1 20190827 (Red Hat 9.2.1-1)
REM options -cpp -mtune=generic -march=x86-64 -g -O0 -fpre-include=/usr/include/finclude/math-vector-fortran.h
REM seed 667957118 -1309380768 -1963781287 -1779813966 -1828376086 224802438 2064790892 365928085 -816208720 243599669 -205772465 -1198973392 -2115658174 1624109694 -882991170 1029368091 -1418313313 1674372445 1767379422 -1183032558 -1574002036 -1010558734 -2007788187 -19211795 -1086848851 -423546138 -408046353 -1097681197 1869142415 -1897051762 663141940 867833350 -688699297
REM
CELL 1.54180   50.00000   50.00000   50.00000   90.00000   90.00000   90.00000
LATT -1
SFAC C  
C      1  0.5337730000000  0.4914450000000  0.4941750000000 1.0
C      1  0.5120940000000  0.4357670000000  0.4644540000000 1.0
C      1  0.4388040000000  0.4816670000000  0.5450540000000 1.0
C      1  0.4367680000000  0.5175580000000  0.4690320000000 1.0
C      1  0.4804430000000  0.5640520000000  0.4569200000000 1.0
C      1  0.4273890000000  0.5465170000000  0.5021700000000 1.0
C      1  0.4690830000000  0.4776500000000  0.4851570000000 1.0
C      1  0.5677160000000  0.5379030000000  0.5335570000000 1.0
C      1  0.4573830000000  0.5649270000000  0.4791450000000 1.0
C      1  0.5165340000000  0.5251800000000  0.5266770000000 1.0
C      1  0.4602410000000  0.4312090000000  0.4933610000000 1.0
C      1  0.4907410000000  0.4329770000000  0.5377300000000 1.0
C      1  0.4466240000000  0.4789390000000  0.4368810000000 1.0
C      1  0.4990070000000  0.5667570000000  0.4965960000000 1.0
C      1  0.5818980000000  0.5166090000000  0.4874400000000 1.0
C      1  0.4411150000000  0.4599550000000  0.4582080000000 1.0
C      1  0.4650550000000  0.5490080000000  0.5338850000000 1.0
C      1  0.4859900000000  0.4535990000000  0.4220930000000 1.0
C      1  0.4833800000000  0.4871870000000  0.5431540000000 1.0
C      1  0.5280190000000  0.5529010000000  0.5321310000000 1.0
C      1  0.5148950000000  0.5811290000000  0.4742920000000 1.0
C      1  0.5598230000000  0.4630780000000  0.5337990000000 1.0
C      1  0.5709720000000  0.5381960000000  0.5040030000000 1.0
C      1  0.4867730000000  0.5294830000000  0.5174040000000 1.0
C      1  0.5687350000000  0.4776790000000  0.4532900000000 1.0
C      1  0.4666730000000  0.4422050000000  0.5493600000000 1.0
C      1  0.4935260000000  0.5796370000000  0.5255370000000 1.0
C      1  0.5689690000000  0.5052310000000  0.4631580000000 1.0
C      1  0.5133700000000  0.4480080000000  0.5483340000000 1.0
C      1  0.4886210000000  0.4815210000000  0.4640230000000 1.0
C      1  0.5833930000000  0.4952750000000  0.5074290000000 1.0
C      1  0.5304290000000  0.5182700000000  0.5032510000000 1.0
C      1  0.4958460000000  0.4948990000000  0.4388140000000 1.0
C      1  0.4395310000000  0.5069270000000  0.4397700000000 1.0
C      1  0.5153850000000  0.4974550000000  0.5705370000000 1.0
C      1  0.5198720000000  0.5787250000000  0.5346120000000 1.0
C      1  0.5322650000000  0.4513300000000  0.5262900000000 1.0
C      1  0.4432860000000  0.4521470000000  0.5351910000000 1.0
C      1  0.5400290000000  0.5025710000000  0.4674680000000 1.0
C      1  0.5432280000000  0.4709510000000  0.4406350000000 1.0
C      1  0.4883820000000  0.4304990000000  0.5069950000000 1.0
C      1  0.5085430000000  0.5679160000000  0.4488310000000 1.0
C      1  0.5527070000000  0.4393940000000  0.4791280000000 1.0
C      1  0.5512170000000  0.5575750000000  0.5493640000000 1.0
C      1  0.4228280000000  0.5172590000000  0.5110210000000 1.0
C      1  0.4247890000000  0.4991480000000  0.4890510000000 1.0
C      1  0.5443310000000  0.5410800000000  0.4914390000000 1.0
C      1  0.5030630000000  0.5488900000000  0.5681750000000 1.0
C      1  0.5272660000000  0.5463850000000  0.4393860000000 1.0
C      1  0.4860140000000  0.4525590000000  0.4543990000000 1.0
C      1  0.4683330000000  0.5093640000000  0.5098090000000 1.0
C      1  0.5720130000000  0.4601450000000  0.4764470000000 1.0
C      1  0.4363790000000  0.4710560000000  0.4861690000000 1.0
C      1  0.4624630000000  0.4860730000000  0.5236140000000 1.0
C      1  0.5312500000000  0.5548200000000  0.5727030000000 1.0
C      1  0.4971170000000  0.5204850000000  0.5743480000000 1.0
C      1  0.4802620000000  0.5369810000000  0.4480490000000 1.0
C      1  0.4787180000000  0.4659060000000  0.5655960000000 1.0
C      1  0.5582900000000  0.5132690000000  0.5469340000000 1.0
C      1  0.5124830000000  0.4243090000000  0.4915180000000 1.0
C      1  0.4336220000000  0.5484800000000  0.4736440000000 1.0
C      1  0.4890970000000  0.5367360000000  0.4885660000000 1.0
C      1  0.5245430000000  0.5234500000000  0.4559880000000 1.0
C      1  0.4608670000000  0.5239460000000  0.4354600000000 1.0
C      1  0.4710960000000  0.5110490000000  0.5630950000000 1.0
C      1  0.5057370000000  0.4825580000000  0.5109110000000 1.0
C      1  0.5292890000000  0.5064940000000  0.5470820000000 1.0
C      1  0.5087570000000  0.4089990000000  0.4539160000000 1.0
C      1  0.5689680000000  0.4362080000000  0.5314020000000 1.0
C      1  0.5372280000000  0.4325090000000  0.5039060000000 1.0
C      1  0.5747990000000  0.4932540000000  0.5348230000000 1.0
C      1  0.4408290000000  0.4470360000000  0.5071930000000 1.0
C      1  0.4874220000000  0.4627550000000  0.5015920000000 1.0
C      1  0.5233940000000  0.4907370000000  0.4298550000000 1.0
C      1  0.5299940000000  0.5661010000000  0.4935730000000 1.0
C      1  0.4845010000000  0.5645820000000  0.5483240000000 1.0
C      1  0.5276500000000  0.5196510000000  0.4264960000000 1.0
C      1  0.4513010000000  0.5280210000000  0.5487810000000 1.0
C      1  0.5085870000000  0.4682930000000  0.5695920000000 1.0
C      1  0.4676460000000  0.5187600000000  0.4827250000000 1.0
C      1  0.4513160000000  0.5622140000000  0.5079640000000 1.0
C      1  0.4737770000000  0.4795610000000  0.4232300000000 1.0
C      1  0.5621370000000  0.4756540000000  0.4994950000000 1.0
C      1  0.5380300000000  0.4477170000000  0.4565880000000 1.0
C      1  0.4318600000000  0.5104860000000  0.5376780000000 1.0
C      1  0.4529180000000  0.4852720000000  0.5744280000000 1.0
C      1  0.4605080000000  0.4398380000000  0.4656990000000 1.0
END
