TITL C-2441162-9305-903 0.0906745152813163 125000 -15738.5107318557 0 0 122 (C1) n - 1
REM
REM in /home/bkarasulu/work/CARBON/AIRSS/Generating-Clusters/ReaxFF-fromJPCA2015/Units_Real/with-SteepDescent/Higher-Symm
REM
REM
REM
REM
REM
REM ./C.cell (1df0a924f5614ab8850e4351716899ee)
REM
REM compiler GCC version 9.2.1 20190827 (Red Hat 9.2.1-1)
REM options -cpp -mtune=generic -march=x86-64 -g -O0 -fpre-include=/usr/include/finclude/math-vector-fortran.h
REM seed -351844372 1341614592 -1836895342 1119987139 -2127092493 -73847239 51032613 -200606995 1041322565 -611034103 39424811 -345724884 -1226554513 1043564811 34481168 510949706 -182919651 255360011 -1944344289 931832103 -844296566 683427683 -2122505196 -1994516730 -1146793466 -841091428 1544896203 2007203091 1690928824 -1422610150 1360221495 -1346993035 272092135
REM
CELL 1.54180   50.00000   50.00000   50.00000   90.00000   90.00000   90.00000
LATT -1
SFAC C  
C      1  0.5185990000000  0.4932530000000  0.5140610000000 1.0
C      1  0.5209790000000  0.4901810000000  0.4852520000000 1.0
C      1  0.4998400000000  0.4932820000000  0.4639920000000 1.0
C      1  0.4668810000000  0.4850110000000  0.5085340000000 1.0
C      1  0.4786890000000  0.4874430000000  0.5347440000000 1.0
C      1  0.5306670000000  0.4620520000000  0.4397010000000 1.0
C      1  0.4464130000000  0.4546330000000  0.4511420000000 1.0
C      1  0.4369750000000  0.4592660000000  0.5310220000000 1.0
C      1  0.5162490000000  0.4532150000000  0.5692330000000 1.0
C      1  0.5686420000000  0.4596230000000  0.5091340000000 1.0
C      1  0.4381310000000  0.5415780000000  0.4461720000000 1.0
C      1  0.4291340000000  0.5448920000000  0.5440810000000 1.0
C      1  0.5199020000000  0.5439800000000  0.5770960000000 1.0
C      1  0.5843000000000  0.5431010000000  0.5052960000000 1.0
C      1  0.5327410000000  0.5445830000000  0.4238150000000 1.0
C      1  0.4958290000000  0.4665790000000  0.4052740000000 1.0
C      1  0.4081310000000  0.4677330000000  0.4842930000000 1.0
C      1  0.4510360000000  0.4708380000000  0.5758580000000 1.0
C      1  0.5575460000000  0.4682270000000  0.5762960000000 1.0
C      1  0.5798630000000  0.4681630000000  0.4632680000000 1.0
C      1  0.4692760000000  0.4588030000000  0.4355960000000 1.0
C      1  0.4465810000000  0.4464170000000  0.5045660000000 1.0
C      1  0.4886100000000  0.4549020000000  0.5734510000000 1.0
C      1  0.5679490000000  0.4627100000000  0.5369150000000 1.0
C      1  0.5415510000000  0.4551800000000  0.4656860000000 1.0
C      1  0.4634020000000  0.5296830000000  0.5696310000000 1.0
C      1  0.5621190000000  0.5378510000000  0.5503570000000 1.0
C      1  0.5675470000000  0.5360170000000  0.4577100000000 1.0
C      1  0.4853450000000  0.5332890000000  0.4221180000000 1.0
C      1  0.4236260000000  0.5317880000000  0.4946850000000 1.0
C      1  0.5097810000000  0.4842420000000  0.4378280000000 1.0
C      1  0.4440780000000  0.4765690000000  0.4701270000000 1.0
C      1  0.4524760000000  0.4829950000000  0.5501940000000 1.0
C      1  0.5280090000000  0.4763070000000  0.5551980000000 1.0
C      1  0.5729490000000  0.4794360000000  0.4883630000000 1.0
C      1  0.5273120000000  0.4147240000000  0.4569480000000 1.0
C      1  0.4856670000000  0.4248480000000  0.4613010000000 1.0
C      1  0.4578040000000  0.4194420000000  0.5037180000000 1.0
C      1  0.4943080000000  0.4226250000000  0.5385940000000 1.0
C      1  0.5391980000000  0.4188230000000  0.5093910000000 1.0
C      1  0.4859910000000  0.5862700000000  0.4657110000000 1.0
C      1  0.4732750000000  0.5807550000000  0.4948790000000 1.0
C      1  0.4894060000000  0.5851010000000  0.5329300000000 1.0
C      1  0.5278160000000  0.5835260000000  0.5184540000000 1.0
C      1  0.5329390000000  0.5853090000000  0.4881480000000 1.0
C      1  0.5926650000000  0.5041220000000  0.5309760000000 1.0
C      1  0.5583240000000  0.5019820000000  0.4227160000000 1.0
C      1  0.4440770000000  0.5015810000000  0.4209400000000 1.0
C      1  0.4074170000000  0.5023150000000  0.5304560000000 1.0
C      1  0.5049120000000  0.5047560000000  0.5971480000000 1.0
C      1  0.4641080000000  0.5082830000000  0.4923470000000 1.0
C      1  0.4860520000000  0.5149030000000  0.5288050000000 1.0
C      1  0.5307340000000  0.5145030000000  0.5308190000000 1.0
C      1  0.5399100000000  0.5160560000000  0.4825720000000 1.0
C      1  0.4865070000000  0.5174690000000  0.4623620000000 1.0
C      1  0.4412270000000  0.5053340000000  0.4695440000000 1.0
C      1  0.4456650000000  0.5098190000000  0.5574050000000 1.0
C      1  0.5277370000000  0.5047880000000  0.5580440000000 1.0
C      1  0.5661020000000  0.5073400000000  0.4903970000000 1.0
C      1  0.5099720000000  0.5098310000000  0.4233990000000 1.0
C      1  0.5241860000000  0.5387480000000  0.4905180000000 1.0
C      1  0.4948050000000  0.5414980000000  0.4798310000000 1.0
C      1  0.4814320000000  0.5543180000000  0.5037660000000 1.0
C      1  0.4958840000000  0.5426260000000  0.5297300000000 1.0
C      1  0.5240480000000  0.5404620000000  0.5189180000000 1.0
C      1  0.5624740000000  0.4339310000000  0.4984250000000 1.0
C      1  0.5193620000000  0.4359490000000  0.4376940000000 1.0
C      1  0.4397600000000  0.4298010000000  0.4638890000000 1.0
C      1  0.4482490000000  0.4355210000000  0.5445070000000 1.0
C      1  0.5316070000000  0.4305930000000  0.5591280000000 1.0
C      1  0.5353440000000  0.5170200000000  0.4147490000000 1.0
C      1  0.4308090000000  0.5135120000000  0.4436120000000 1.0
C      1  0.4199940000000  0.5181670000000  0.5508190000000 1.0
C      1  0.5274800000000  0.5164390000000  0.5850300000000 1.0
C      1  0.5899260000000  0.5152390000000  0.5046620000000 1.0
C      1  0.5225340000000  0.4621470000000  0.4848930000000 1.0
C      1  0.4937410000000  0.4518020000000  0.4762200000000 1.0
C      1  0.4640540000000  0.4652640000000  0.4893310000000 1.0
C      1  0.4960640000000  0.4517420000000  0.5273530000000 1.0
C      1  0.5200970000000  0.4692980000000  0.5285780000000 1.0
C      1  0.4243140000000  0.5052310000000  0.5081700000000 1.0
C      1  0.4830040000000  0.5067570000000  0.5816430000000 1.0
C      1  0.5680020000000  0.5097900000000  0.5441760000000 1.0
C      1  0.5608500000000  0.5082120000000  0.4492040000000 1.0
C      1  0.4701080000000  0.5064080000000  0.4319300000000 1.0
C      1  0.5648850000000  0.5501650000000  0.5251710000000 1.0
C      1  0.5473150000000  0.5529920000000  0.4482090000000 1.0
C      1  0.4651690000000  0.5482070000000  0.4389060000000 1.0
C      1  0.4346340000000  0.5487960000000  0.5157910000000 1.0
C      1  0.4943850000000  0.5488190000000  0.5630000000000 1.0
C      1  0.5293080000000  0.4064310000000  0.4853430000000 1.0
C      1  0.5033770000000  0.4036350000000  0.4698650000000 1.0
C      1  0.4624410000000  0.4138890000000  0.4751970000000 1.0
C      1  0.4661170000000  0.4164920000000  0.5308410000000 1.0
C      1  0.5230030000000  0.4170720000000  0.5348270000000 1.0
C      1  0.5741620000000  0.5532470000000  0.4800220000000 1.0
C      1  0.5060750000000  0.5535690000000  0.4287370000000 1.0
C      1  0.4317020000000  0.5511830000000  0.4729290000000 1.0
C      1  0.4528850000000  0.5544880000000  0.5576750000000 1.0
C      1  0.5408320000000  0.5546050000000  0.5610230000000 1.0
C      1  0.5267560000000  0.5773190000000  0.5470920000000 1.0
C      1  0.5599090000000  0.5766060000000  0.4912450000000 1.0
C      1  0.5066520000000  0.5745200000000  0.4492900000000 1.0
C      1  0.4465890000000  0.5758950000000  0.4740610000000 1.0
C      1  0.4625980000000  0.5768640000000  0.5389440000000 1.0
C      1  0.5313740000000  0.5731510000000  0.4622090000000 1.0
C      1  0.4643890000000  0.5748020000000  0.4508450000000 1.0
C      1  0.4469450000000  0.5752500000000  0.5144010000000 1.0
C      1  0.4999420000000  0.5776730000000  0.5580230000000 1.0
C      1  0.5570940000000  0.5771200000000  0.5192890000000 1.0
C      1  0.5672650000000  0.4429190000000  0.4707580000000 1.0
C      1  0.4928750000000  0.4442910000000  0.4252890000000 1.0
C      1  0.4222140000000  0.4424150000000  0.4838530000000 1.0
C      1  0.4609230000000  0.4446370000000  0.5690370000000 1.0
C      1  0.5580760000000  0.4451260000000  0.5590200000000 1.0
C      1  0.4764810000000  0.4782370000000  0.5873740000000 1.0
C      1  0.5805960000000  0.4852360000000  0.5481930000000 1.0
C      1  0.5733880000000  0.4845010000000  0.4399740000000 1.0
C      1  0.4655230000000  0.4805160000000  0.4174620000000 1.0
C      1  0.4148310000000  0.4781460000000  0.5164140000000 1.0
C      1  0.4960170000000  0.4394030000000  0.5018240000000 1.0
C      1  0.4899880000000  0.5157850000000  0.5011160000000 1.0
END
