TITL C-2441169-1362-1447 0.0992003779197213 125000 -23382.5090034757 0 0 169 (C1) n - 1
REM
REM in /home/bkarasulu/work/CARBON/AIRSS/Generating-Clusters/ReaxFF-fromJPCA2015/Units_Real/with-SteepDescent/Higher-Symm
REM
REM
REM
REM
REM
REM ./C.cell (1df0a924f5614ab8850e4351716899ee)
REM
REM compiler GCC version 9.2.1 20190827 (Red Hat 9.2.1-1)
REM options -cpp -mtune=generic -march=x86-64 -g -O0 -fpre-include=/usr/include/finclude/math-vector-fortran.h
REM seed -1722053694 1485200679 274595211 404872163 -30930903 1486768186 538724193 -1329206563 920599740 2034961074 296177985 -1655617591 -404250714 194268087 -287016371 -15254101 2088711665 -2094636768 -232441177 -1702350446 1173352129 1069038828 -574610359 1394301926 1066166438 -1591370572 999340874 1309685841 -624899476 -442867325 1892410821 -905735014 403815164
REM
CELL 1.54180   50.00000   50.00000   50.00000   90.00000   90.00000   90.00000
LATT -1
SFAC C  
C      1  0.4625370000000  0.4234190000000  0.4550380000000 1.0
C      1  0.4624750000000  0.5503630000000  0.4236960000000 1.0
C      1  0.4449560000000  0.5831590000000  0.5392950000000 1.0
C      1  0.4441420000000  0.4580360000000  0.5810720000000 1.0
C      1  0.5575460000000  0.4163200000000  0.4566870000000 1.0
C      1  0.5541240000000  0.5395750000000  0.4228600000000 1.0
C      1  0.5533700000000  0.5773800000000  0.5405380000000 1.0
C      1  0.5568850000000  0.4572820000000  0.5802320000000 1.0
C      1  0.4690930000000  0.5057660000000  0.5390480000000 1.0
C      1  0.4817850000000  0.4587470000000  0.5096010000000 1.0
C      1  0.4765920000000  0.4977830000000  0.4398220000000 1.0
C      1  0.4744090000000  0.5542190000000  0.4970180000000 1.0
C      1  0.5266840000000  0.4987070000000  0.5558460000000 1.0
C      1  0.5169000000000  0.4454940000000  0.4946460000000 1.0
C      1  0.5279220000000  0.5027940000000  0.4460590000000 1.0
C      1  0.5306680000000  0.5558410000000  0.5001510000000 1.0
C      1  0.5789710000000  0.4950290000000  0.4651730000000 1.0
C      1  0.5820990000000  0.5357300000000  0.4947250000000 1.0
C      1  0.5949800000000  0.5110850000000  0.5362720000000 1.0
C      1  0.5893870000000  0.4665740000000  0.5092850000000 1.0
C      1  0.4056580000000  0.4883590000000  0.4646740000000 1.0
C      1  0.4092880000000  0.5351350000000  0.4898610000000 1.0
C      1  0.4117350000000  0.5101890000000  0.5349880000000 1.0
C      1  0.4041120000000  0.4642460000000  0.5111790000000 1.0
C      1  0.4188570000000  0.4448990000000  0.5489780000000 1.0
C      1  0.4196420000000  0.4495230000000  0.4452770000000 1.0
C      1  0.4221950000000  0.5553520000000  0.4521910000000 1.0
C      1  0.4224860000000  0.5485160000000  0.5551150000000 1.0
C      1  0.5776510000000  0.4439090000000  0.5461230000000 1.0
C      1  0.5782290000000  0.4544730000000  0.4427180000000 1.0
C      1  0.5786110000000  0.5571820000000  0.4547680000000 1.0
C      1  0.5766830000000  0.5465840000000  0.5558480000000 1.0
C      1  0.5332200000000  0.4628080000000  0.5951720000000 1.0
C      1  0.5311300000000  0.4062450000000  0.4626830000000 1.0
C      1  0.5281880000000  0.5355800000000  0.4095880000000 1.0
C      1  0.5270960000000  0.5878240000000  0.5371710000000 1.0
C      1  0.4700960000000  0.4677160000000  0.5884210000000 1.0
C      1  0.4709580000000  0.4070990000000  0.4763610000000 1.0
C      1  0.4617810000000  0.5298450000000  0.4054840000000 1.0
C      1  0.4683680000000  0.5962640000000  0.5293270000000 1.0
C      1  0.5117170000000  0.4229710000000  0.4475340000000 1.0
C      1  0.5135990000000  0.5529120000000  0.4264100000000 1.0
C      1  0.5114610000000  0.5718740000000  0.5539560000000 1.0
C      1  0.5143980000000  0.4475890000000  0.5795140000000 1.0
C      1  0.4868110000000  0.4400830000000  0.4508780000000 1.0
C      1  0.4873490000000  0.5538610000000  0.4407740000000 1.0
C      1  0.4872130000000  0.5548970000000  0.5504270000000 1.0
C      1  0.4886980000000  0.4548810000000  0.5666160000000 1.0
C      1  0.5492870000000  0.5147560000000  0.5956300000000 1.0
C      1  0.5490970000000  0.4054660000000  0.5141260000000 1.0
C      1  0.5549110000000  0.4795860000000  0.4015640000000 1.0
C      1  0.5497880000000  0.5935610000000  0.4789960000000 1.0
C      1  0.4506280000000  0.5176780000000  0.5950150000000 1.0
C      1  0.4485570000000  0.4055880000000  0.5227930000000 1.0
C      1  0.4498240000000  0.4800370000000  0.4034710000000 1.0
C      1  0.4475580000000  0.5994070000000  0.4858010000000 1.0
C      1  0.4885110000000  0.4001660000000  0.5294350000000 1.0
C      1  0.4931400000000  0.4719900000000  0.4023870000000 1.0
C      1  0.4872440000000  0.5988570000000  0.4575440000000 1.0
C      1  0.4921340000000  0.5317640000000  0.6022560000000 1.0
C      1  0.5123600000000  0.4066170000000  0.5445490000000 1.0
C      1  0.5157700000000  0.4559830000000  0.4077510000000 1.0
C      1  0.5129630000000  0.6075170000000  0.4679140000000 1.0
C      1  0.5151140000000  0.5476160000000  0.5983070000000 1.0
C      1  0.4662170000000  0.5428650000000  0.5953270000000 1.0
C      1  0.4671840000000  0.4096440000000  0.5457160000000 1.0
C      1  0.4689960000000  0.4579450000000  0.4056180000000 1.0
C      1  0.4626740000000  0.5948480000000  0.4637940000000 1.0
C      1  0.5357020000000  0.5384720000000  0.5917070000000 1.0
C      1  0.5354190000000  0.4101100000000  0.5377290000000 1.0
C      1  0.5397440000000  0.4587600000000  0.4090700000000 1.0
C      1  0.5345330000000  0.5951100000000  0.4529060000000 1.0
C      1  0.4076790000000  0.5321840000000  0.5175670000000 1.0
C      1  0.4046480000000  0.4829990000000  0.5326820000000 1.0
C      1  0.4030360000000  0.4670740000000  0.4831320000000 1.0
C      1  0.4060550000000  0.5165580000000  0.4684500000000 1.0
C      1  0.5971080000000  0.5338110000000  0.5191870000000 1.0
C      1  0.5944830000000  0.4830880000000  0.5320880000000 1.0
C      1  0.5870020000000  0.4712310000000  0.4818110000000 1.0
C      1  0.5915710000000  0.5194210000000  0.4713630000000 1.0
C      1  0.5117470000000  0.4309000000000  0.4192280000000 1.0
C      1  0.5182710000000  0.5804870000000  0.4331070000000 1.0
C      1  0.5095610000000  0.5676810000000  0.5826590000000 1.0
C      1  0.5114920000000  0.4206860000000  0.5685000000000 1.0
C      1  0.4822160000000  0.4358590000000  0.4216540000000 1.0
C      1  0.4892330000000  0.5829390000000  0.4368270000000 1.0
C      1  0.4794390000000  0.5624190000000  0.5781400000000 1.0
C      1  0.4825930000000  0.4253710000000  0.5650090000000 1.0
C      1  0.5461060000000  0.4818900000000  0.5425220000000 1.0
C      1  0.5403850000000  0.4512010000000  0.4773670000000 1.0
C      1  0.5512540000000  0.5150730000000  0.4563190000000 1.0
C      1  0.5529460000000  0.5427530000000  0.5113170000000 1.0
C      1  0.4540760000000  0.4842080000000  0.5509350000000 1.0
C      1  0.4495370000000  0.4478340000000  0.4862120000000 1.0
C      1  0.4533640000000  0.5152840000000  0.4449570000000 1.0
C      1  0.4571280000000  0.5408570000000  0.5156350000000 1.0
C      1  0.5921820000000  0.4668480000000  0.5559730000000 1.0
C      1  0.5902400000000  0.4462500000000  0.4676260000000 1.0
C      1  0.5924560000000  0.5329950000000  0.4459790000000 1.0
C      1  0.5919410000000  0.5582810000000  0.5337510000000 1.0
C      1  0.4062170000000  0.4688710000000  0.5578930000000 1.0
C      1  0.4082190000000  0.4414560000000  0.4701870000000 1.0
C      1  0.4100640000000  0.5305890000000  0.4435340000000 1.0
C      1  0.4074070000000  0.5572120000000  0.5322400000000 1.0
C      1  0.4878230000000  0.5431910000000  0.4738280000000 1.0
C      1  0.4913720000000  0.5262960000000  0.5451960000000 1.0
C      1  0.4951460000000  0.4603870000000  0.5335720000000 1.0
C      1  0.4869440000000  0.4760870000000  0.4579940000000 1.0
C      1  0.5182120000000  0.5443920000000  0.4758730000000 1.0
C      1  0.5198540000000  0.5229410000000  0.5415420000000 1.0
C      1  0.5213870000000  0.4562780000000  0.5218090000000 1.0
C      1  0.5169340000000  0.4837470000000  0.4631860000000 1.0
C      1  0.5864240000000  0.5630020000000  0.4814940000000 1.0
C      1  0.5872310000000  0.5204390000000  0.5629040000000 1.0
C      1  0.5846470000000  0.4399010000000  0.5187410000000 1.0
C      1  0.5840140000000  0.4821300000000  0.4395630000000 1.0
C      1  0.4146670000000  0.5612450000000  0.4796020000000 1.0
C      1  0.4154770000000  0.5214810000000  0.5607750000000 1.0
C      1  0.4091330000000  0.4382720000000  0.5233090000000 1.0
C      1  0.4111500000000  0.4760350000000  0.4391850000000 1.0
C      1  0.5764010000000  0.5808390000000  0.5232190000000 1.0
C      1  0.5791710000000  0.4761270000000  0.5803640000000 1.0
C      1  0.5782330000000  0.4210240000000  0.4762950000000 1.0
C      1  0.5782850000000  0.5235350000000  0.4216220000000 1.0
C      1  0.4208990000000  0.5811090000000  0.5226290000000 1.0
C      1  0.4233740000000  0.4795430000000  0.5791420000000 1.0
C      1  0.4276120000000  0.4280260000000  0.4872660000000 1.0
C      1  0.4292860000000  0.5146700000000  0.4288240000000 1.0
C      1  0.4462810000000  0.4477600000000  0.4567010000000 1.0
C      1  0.4491100000000  0.5441010000000  0.4489810000000 1.0
C      1  0.4483570000000  0.5541270000000  0.5422260000000 1.0
C      1  0.4457610000000  0.4567340000000  0.5514340000000 1.0
C      1  0.5522680000000  0.4441300000000  0.4512890000000 1.0
C      1  0.5514490000000  0.5441650000000  0.4524520000000 1.0
C      1  0.5503400000000  0.5468470000000  0.5404920000000 1.0
C      1  0.5505180000000  0.4541270000000  0.5516470000000 1.0
C      1  0.4688150000000  0.6033480000000  0.5036510000000 1.0
C      1  0.4689230000000  0.4948230000000  0.5974180000000 1.0
C      1  0.4616370000000  0.3947110000000  0.4992190000000 1.0
C      1  0.4638560000000  0.5050650000000  0.3946750000000 1.0
C      1  0.5266210000000  0.6030230000000  0.4917050000000 1.0
C      1  0.5320100000000  0.4911370000000  0.6006960000000 1.0
C      1  0.5304510000000  0.3999890000000  0.4913490000000 1.0
C      1  0.5380460000000  0.4975010000000  0.3986000000000 1.0
C      1  0.5384240000000  0.4822210000000  0.5143640000000 1.0
C      1  0.5376970000000  0.4786550000000  0.4835500000000 1.0
C      1  0.5225770000000  0.5183360000000  0.4878860000000 1.0
C      1  0.5268610000000  0.5103740000000  0.5141800000000 1.0
C      1  0.4577980000000  0.4723470000000  0.5005340000000 1.0
C      1  0.4682910000000  0.4874970000000  0.4782140000000 1.0
C      1  0.4765820000000  0.5118730000000  0.4890570000000 1.0
C      1  0.4583280000000  0.5121630000000  0.5119950000000 1.0
C      1  0.5180400000000  0.5839910000000  0.5103720000000 1.0
C      1  0.5147050000000  0.4945410000000  0.5801690000000 1.0
C      1  0.5092890000000  0.4193320000000  0.4937400000000 1.0
C      1  0.5195130000000  0.5086890000000  0.4143210000000 1.0
C      1  0.4852610000000  0.5813680000000  0.5096080000000 1.0
C      1  0.4928040000000  0.5073630000000  0.5889920000000 1.0
C      1  0.4841640000000  0.4139900000000  0.5030800000000 1.0
C      1  0.4893680000000  0.4980030000000  0.4120020000000 1.0
C      1  0.4262730000000  0.5083890000000  0.5834960000000 1.0
C      1  0.4237880000000  0.4162740000000  0.5129100000000 1.0
C      1  0.4255500000000  0.4880120000000  0.4171780000000 1.0
C      1  0.4246560000000  0.5830940000000  0.4943750000000 1.0
C      1  0.5744720000000  0.5047270000000  0.5834030000000 1.0
C      1  0.5734530000000  0.4185340000000  0.5042320000000 1.0
C      1  0.5757870000000  0.4951580000000  0.4156300000000 1.0
C      1  0.5732970000000  0.5849410000000  0.4941270000000 1.0
C      1  0.5021570000000  0.5047410000000  0.4991430000000 1.0
END
