TITL C-2441156-4686-279 0.00956488274506307 125000 -14589.5705278829 0 0 101 (C1) n - 1
REM
REM in /home/bkarasulu/work/CARBON/AIRSS/Generating-Clusters/ReaxFF-fromJPCA2015/Units_Real/with-SteepDescent/Higher-Symm
REM
REM
REM
REM
REM
REM ./C.cell (1df0a924f5614ab8850e4351716899ee)
REM
REM compiler GCC version 9.2.1 20190827 (Red Hat 9.2.1-1)
REM options -cpp -mtune=generic -march=x86-64 -g -O0 -fpre-include=/usr/include/finclude/math-vector-fortran.h
REM seed -291819195 -2083582607 -788477590 1408812388 -1229159739 -1588277394 201034866 1674644764 -332824502 119419108 1121127747 767251417 684895508 -895099773 1757070614 1903992517 -1765708431 963170150 -1295261011 1312600035 1493104013 1709646748 -2072752190 -132766386 374408701 -156554625 -1455992872 1768255526 -467617629 1834760732 -974763434 -1333268583 -825686301
REM
CELL 1.54180   50.00000   50.00000   50.00000   90.00000   90.00000   90.00000
LATT -1
SFAC C  
C      1  0.5393540000000  0.5489290000000  0.5083140000000 1.0
C      1  0.5386350000000  0.5226950000000  0.4565130000000 1.0
C      1  0.5367560000000  0.4643590000000  0.4680900000000 1.0
C      1  0.5407280000000  0.4587540000000  0.5271900000000 1.0
C      1  0.5409200000000  0.5108820000000  0.5491640000000 1.0
C      1  0.4609950000000  0.5489460000000  0.4921550000000 1.0
C      1  0.4618900000000  0.5214440000000  0.5434420000000 1.0
C      1  0.4592720000000  0.4612090000000  0.5306100000000 1.0
C      1  0.4561750000000  0.4589690000000  0.4748110000000 1.0
C      1  0.4598790000000  0.5074810000000  0.4499940000000 1.0
C      1  0.4765020000000  0.4295560000000  0.4432460000000 1.0
C      1  0.4834200000000  0.4219080000000  0.5436610000000 1.0
C      1  0.4801250000000  0.5216560000000  0.5892660000000 1.0
C      1  0.4795830000000  0.5927520000000  0.5064400000000 1.0
C      1  0.4795500000000  0.5342460000000  0.4132440000000 1.0
C      1  0.5220300000000  0.4301740000000  0.5591230000000 1.0
C      1  0.5153020000000  0.4216370000000  0.4579180000000 1.0
C      1  0.5202130000000  0.5224440000000  0.4097570000000 1.0
C      1  0.5202420000000  0.5928090000000  0.4940050000000 1.0
C      1  0.5204570000000  0.5353040000000  0.5868660000000 1.0
C      1  0.5064210000000  0.5660310000000  0.5326740000000 1.0
C      1  0.5064720000000  0.5514310000000  0.4469380000000 1.0
C      1  0.5064600000000  0.4645870000000  0.4343660000000 1.0
C      1  0.5128800000000  0.4299870000000  0.5065280000000 1.0
C      1  0.5085540000000  0.4892710000000  0.5712990000000 1.0
C      1  0.4932310000000  0.5659030000000  0.4675300000000 1.0
C      1  0.4933120000000  0.5510120000000  0.5525920000000 1.0
C      1  0.4922380000000  0.4675820000000  0.5623200000000 1.0
C      1  0.4861970000000  0.4332180000000  0.4946130000000 1.0
C      1  0.4929620000000  0.4881700000000  0.4256740000000 1.0
C      1  0.4938010000000  0.4387810000000  0.5662150000000 1.0
C      1  0.4936130000000  0.5472160000000  0.5814790000000 1.0
C      1  0.4940000000000  0.5922480000000  0.4802540000000 1.0
C      1  0.4940920000000  0.5092990000000  0.4053940000000 1.0
C      1  0.4881460000000  0.4184120000000  0.4681530000000 1.0
C      1  0.5042330000000  0.4355090000000  0.4338510000000 1.0
C      1  0.5056870000000  0.5472950000000  0.4179790000000 1.0
C      1  0.5058170000000  0.5925390000000  0.5201720000000 1.0
C      1  0.5065380000000  0.5096380000000  0.5932820000000 1.0
C      1  0.5104540000000  0.4166090000000  0.5354210000000 1.0
C      1  0.5793060000000  0.5629350000000  0.5028590000000 1.0
C      1  0.5783060000000  0.5195280000000  0.4426330000000 1.0
C      1  0.5764810000000  0.4484780000000  0.4621820000000 1.0
C      1  0.5813190000000  0.4479360000000  0.5368220000000 1.0
C      1  0.5801950000000  0.5185220000000  0.5622180000000 1.0
C      1  0.4211410000000  0.5622480000000  0.4982270000000 1.0
C      1  0.4221740000000  0.5184060000000  0.5577110000000 1.0
C      1  0.4213330000000  0.4461700000000  0.5371450000000 1.0
C      1  0.4188000000000  0.4470120000000  0.4629320000000 1.0
C      1  0.4195890000000  0.5184470000000  0.4389690000000 1.0
C      1  0.5649480000000  0.4400790000000  0.5139220000000 1.0
C      1  0.5659020000000  0.4929140000000  0.5627660000000 1.0
C      1  0.5635640000000  0.5566230000000  0.5272920000000 1.0
C      1  0.5629300000000  0.5419620000000  0.4551790000000 1.0
C      1  0.5595010000000  0.4681140000000  0.4480650000000 1.0
C      1  0.4345200000000  0.4380210000000  0.4859010000000 1.0
C      1  0.4351280000000  0.4929870000000  0.4373570000000 1.0
C      1  0.4369080000000  0.5566070000000  0.4735340000000 1.0
C      1  0.4380630000000  0.5410350000000  0.5455570000000 1.0
C      1  0.4384580000000  0.4653580000000  0.5520750000000 1.0
C      1  0.5534800000000  0.5096600000000  0.4789580000000 1.0
C      1  0.5517190000000  0.4824490000000  0.4860280000000 1.0
C      1  0.5557790000000  0.4800840000000  0.5139870000000 1.0
C      1  0.5572210000000  0.5062880000000  0.5248540000000 1.0
C      1  0.5554850000000  0.5242860000000  0.5030510000000 1.0
C      1  0.4465140000000  0.5088420000000  0.5211790000000 1.0
C      1  0.4440990000000  0.4811800000000  0.5144700000000 1.0
C      1  0.4427380000000  0.4810480000000  0.4865270000000 1.0
C      1  0.4436520000000  0.5063290000000  0.4753680000000 1.0
C      1  0.4452960000000  0.5241260000000  0.4974260000000 1.0
C      1  0.4363090000000  0.4933530000000  0.5666780000000 1.0
C      1  0.4350430000000  0.5635050000000  0.5252520000000 1.0
C      1  0.4344050000000  0.5439830000000  0.4459210000000 1.0
C      1  0.4314710000000  0.4631610000000  0.4398750000000 1.0
C      1  0.4351140000000  0.4315380000000  0.5145760000000 1.0
C      1  0.5637750000000  0.4947270000000  0.4328510000000 1.0
C      1  0.5654480000000  0.5643860000000  0.4757450000000 1.0
C      1  0.5665280000000  0.5451470000000  0.5552570000000 1.0
C      1  0.5681890000000  0.4629200000000  0.5602780000000 1.0
C      1  0.5631630000000  0.4333140000000  0.4848220000000 1.0
C      1  0.5064450000000  0.5265960000000  0.4629570000000 1.0
C      1  0.5061940000000  0.4738940000000  0.4624540000000 1.0
C      1  0.5149280000000  0.4555670000000  0.5186360000000 1.0
C      1  0.5135030000000  0.5045690000000  0.5471370000000 1.0
C      1  0.5082930000000  0.5430410000000  0.5140940000000 1.0
C      1  0.4961080000000  0.5257790000000  0.5366530000000 1.0
C      1  0.4924260000000  0.4698790000000  0.5313540000000 1.0
C      1  0.4861860000000  0.4635480000000  0.4856880000000 1.0
C      1  0.4927500000000  0.4996990000000  0.4528410000000 1.0
C      1  0.4932700000000  0.5426830000000  0.4859560000000 1.0
C      1  0.5418430000000  0.4517720000000  0.5571660000000 1.0
C      1  0.5409450000000  0.5372240000000  0.5658360000000 1.0
C      1  0.5398040000000  0.5716020000000  0.4876080000000 1.0
C      1  0.5390470000000  0.5095400000000  0.4285640000000 1.0
C      1  0.5340310000000  0.4327920000000  0.4789060000000 1.0
C      1  0.4577760000000  0.4522980000000  0.4449620000000 1.0
C      1  0.4599880000000  0.5340860000000  0.4354410000000 1.0
C      1  0.4605590000000  0.5711940000000  0.5131910000000 1.0
C      1  0.4615850000000  0.5076270000000  0.5705000000000 1.0
C      1  0.4646190000000  0.4310380000000  0.5205470000000 1.0
C      1  0.4881880000000  0.4860460000000  0.5051020000000 1.0
END
