TITL C-2441159-1093-795 0.0893133062501455 125000 -19703.7436031741 0 0 148 (C1) n - 1
REM
REM in /home/bkarasulu/work/CARBON/AIRSS/Generating-Clusters/ReaxFF-fromJPCA2015/Units_Real/with-SteepDescent/Higher-Symm
REM
REM
REM
REM
REM
REM ./C.cell (1df0a924f5614ab8850e4351716899ee)
REM
REM compiler GCC version 9.2.1 20190827 (Red Hat 9.2.1-1)
REM options -cpp -mtune=generic -march=x86-64 -g -O0 -fpre-include=/usr/include/finclude/math-vector-fortran.h
REM seed 669889955 1843261007 -1225444384 1579920439 -746352504 1895103622 673078151 -1718228866 2095448805 1943790078 1303046699 -1177781813 -1578076189 -1121577113 1132861051 1412167468 2143237737 503026567 743125228 1405577949 2095085206 -1705988233 -289526126 -573373188 1853381954 -316118310 27542981 33102802 -1173880565 2066407486 1159017771 998050528 1101830496
REM
CELL 1.54180   50.00000   50.00000   50.00000   90.00000   90.00000   90.00000
LATT -1
SFAC C  
C      1  0.5522290000000  0.4899630000000  0.4080760000000 1.0
C      1  0.4494340000000  0.5165680000000  0.4150230000000 1.0
C      1  0.5475270000000  0.5192200000000  0.4114650000000 1.0
C      1  0.4509480000000  0.4865340000000  0.4125510000000 1.0
C      1  0.4697340000000  0.5134770000000  0.5946540000000 1.0
C      1  0.5278430000000  0.4868480000000  0.5940330000000 1.0
C      1  0.4725170000000  0.4866890000000  0.5932750000000 1.0
C      1  0.5289280000000  0.5137910000000  0.5955330000000 1.0
C      1  0.5616750000000  0.4205780000000  0.5348110000000 1.0
C      1  0.4368650000000  0.5756240000000  0.5327080000000 1.0
C      1  0.5624250000000  0.5765880000000  0.5306700000000 1.0
C      1  0.4380970000000  0.4214540000000  0.5339870000000 1.0
C      1  0.5702590000000  0.5603790000000  0.4801370000000 1.0
C      1  0.4356950000000  0.4424320000000  0.4825270000000 1.0
C      1  0.5650170000000  0.4410750000000  0.4840500000000 1.0
C      1  0.4283360000000  0.5604750000000  0.4807620000000 1.0
C      1  0.5910370000000  0.4684560000000  0.5131660000000 1.0
C      1  0.4111260000000  0.5334960000000  0.5087470000000 1.0
C      1  0.5898330000000  0.5342430000000  0.5086860000000 1.0
C      1  0.4092180000000  0.4681780000000  0.5127060000000 1.0
C      1  0.5530560000000  0.5417390000000  0.5798060000000 1.0
C      1  0.4425580000000  0.4543140000000  0.5789960000000 1.0
C      1  0.5568920000000  0.4546570000000  0.5785980000000 1.0
C      1  0.4467350000000  0.5425240000000  0.5800910000000 1.0
C      1  0.5282780000000  0.4487100000000  0.5799570000000 1.0
C      1  0.4729060000000  0.5552470000000  0.5788320000000 1.0
C      1  0.5268440000000  0.5528860000000  0.5818710000000 1.0
C      1  0.4713540000000  0.4485210000000  0.5793550000000 1.0
C      1  0.5620310000000  0.5368270000000  0.4644520000000 1.0
C      1  0.4479110000000  0.4663300000000  0.4654110000000 1.0
C      1  0.5529710000000  0.4661350000000  0.4669080000000 1.0
C      1  0.4384280000000  0.5372890000000  0.4636730000000 1.0
C      1  0.4334600000000  0.4879840000000  0.4768620000000 1.0
C      1  0.5533000000000  0.5136580000000  0.4801070000000 1.0
C      1  0.4458310000000  0.5135240000000  0.4781640000000 1.0
C      1  0.5663590000000  0.4885850000000  0.4746040000000 1.0
C      1  0.4877830000000  0.5541240000000  0.4577970000000 1.0
C      1  0.5121130000000  0.4387280000000  0.4563960000000 1.0
C      1  0.4863400000000  0.4380040000000  0.4541460000000 1.0
C      1  0.5156910000000  0.5579450000000  0.4619760000000 1.0
C      1  0.5537340000000  0.5817130000000  0.4434020000000 1.0
C      1  0.4503950000000  0.4177170000000  0.4488330000000 1.0
C      1  0.5491510000000  0.4161450000000  0.4492690000000 1.0
C      1  0.4547610000000  0.5849330000000  0.4501400000000 1.0
C      1  0.5738810000000  0.4771050000000  0.5496130000000 1.0
C      1  0.4249930000000  0.5265820000000  0.5506390000000 1.0
C      1  0.5750580000000  0.5270770000000  0.5487870000000 1.0
C      1  0.4263290000000  0.4764740000000  0.5492040000000 1.0
C      1  0.5685280000000  0.4178210000000  0.4694170000000 1.0
C      1  0.4334230000000  0.5850110000000  0.4679670000000 1.0
C      1  0.5573770000000  0.5855010000000  0.4706010000000 1.0
C      1  0.4305770000000  0.4187620000000  0.4688570000000 1.0
C      1  0.4386550000000  0.5511000000000  0.5505610000000 1.0
C      1  0.5612860000000  0.4366250000000  0.5572890000000 1.0
C      1  0.4380220000000  0.4363770000000  0.5573450000000 1.0
C      1  0.5609810000000  0.5517310000000  0.5496400000000 1.0
C      1  0.5301470000000  0.4790750000000  0.5157740000000 1.0
C      1  0.4700900000000  0.5214780000000  0.5185720000000 1.0
C      1  0.5312330000000  0.5242830000000  0.5134260000000 1.0
C      1  0.4723600000000  0.4795320000000  0.5176680000000 1.0
C      1  0.3968490000000  0.4858850000000  0.4930830000000 1.0
C      1  0.6039220000000  0.5163610000000  0.4901410000000 1.0
C      1  0.3982380000000  0.5151700000000  0.4891980000000 1.0
C      1  0.6035720000000  0.4866300000000  0.4944950000000 1.0
C      1  0.5146390000000  0.4389580000000  0.4275390000000 1.0
C      1  0.4881600000000  0.5640320000000  0.4238250000000 1.0
C      1  0.5157890000000  0.5654680000000  0.4319450000000 1.0
C      1  0.4850980000000  0.4337930000000  0.4244320000000 1.0
C      1  0.5752790000000  0.5601540000000  0.5085310000000 1.0
C      1  0.4333350000000  0.4457240000000  0.5122420000000 1.0
C      1  0.5670300000000  0.4448210000000  0.5132760000000 1.0
C      1  0.4250200000000  0.5593210000000  0.5102920000000 1.0
C      1  0.5822110000000  0.5117600000000  0.4377680000000 1.0
C      1  0.4158270000000  0.4839090000000  0.4377460000000 1.0
C      1  0.5738690000000  0.4849820000000  0.4267900000000 1.0
C      1  0.4153390000000  0.5124120000000  0.4371660000000 1.0
C      1  0.5448870000000  0.5633010000000  0.4250520000000 1.0
C      1  0.4566920000000  0.4385360000000  0.4285990000000 1.0
C      1  0.5442610000000  0.4375270000000  0.4285310000000 1.0
C      1  0.4598360000000  0.5639950000000  0.4291530000000 1.0
C      1  0.5601090000000  0.4609460000000  0.4369770000000 1.0
C      1  0.4427900000000  0.5392140000000  0.4342330000000 1.0
C      1  0.5607640000000  0.5356180000000  0.4331400000000 1.0
C      1  0.4408790000000  0.4659200000000  0.4316460000000 1.0
C      1  0.5143050000000  0.5744920000000  0.5606170000000 1.0
C      1  0.4820290000000  0.4281190000000  0.5595200000000 1.0
C      1  0.5177170000000  0.4279570000000  0.5595010000000 1.0
C      1  0.4822640000000  0.5771190000000  0.5618220000000 1.0
C      1  0.4876980000000  0.5575020000000  0.5237740000000 1.0
C      1  0.5136590000000  0.4447350000000  0.5352940000000 1.0
C      1  0.4854070000000  0.4454130000000  0.5358220000000 1.0
C      1  0.5112140000000  0.5542400000000  0.5400420000000 1.0
C      1  0.4853940000000  0.5258570000000  0.4483540000000 1.0
C      1  0.5149930000000  0.4758330000000  0.4436160000000 1.0
C      1  0.4874770000000  0.4753440000000  0.4435790000000 1.0
C      1  0.5133890000000  0.5209950000000  0.4458180000000 1.0
C      1  0.5131930000000  0.5294920000000  0.4909500000000 1.0
C      1  0.4869360000000  0.4733850000000  0.4941070000000 1.0
C      1  0.5140200000000  0.4733740000000  0.4930200000000 1.0
C      1  0.4857760000000  0.5233890000000  0.4947290000000 1.0
C      1  0.4635470000000  0.5452040000000  0.5304900000000 1.0
C      1  0.5389150000000  0.4534580000000  0.5232010000000 1.0
C      1  0.4607740000000  0.4547080000000  0.5234700000000 1.0
C      1  0.5365570000000  0.5458040000000  0.5320740000000 1.0
C      1  0.5194520000000  0.5143660000000  0.4181750000000 1.0
C      1  0.4792130000000  0.4875100000000  0.4183380000000 1.0
C      1  0.5244460000000  0.4850510000000  0.4173190000000 1.0
C      1  0.4783070000000  0.5167070000000  0.4201910000000 1.0
C      1  0.5159890000000  0.4868120000000  0.5400630000000 1.0
C      1  0.4867260000000  0.5146790000000  0.5421020000000 1.0
C      1  0.5143390000000  0.5133030000000  0.5350110000000 1.0
C      1  0.4861460000000  0.4866020000000  0.5417560000000 1.0
C      1  0.5813700000000  0.4879410000000  0.5282200000000 1.0
C      1  0.4186350000000  0.5156960000000  0.5283350000000 1.0
C      1  0.5810400000000  0.5157300000000  0.5273010000000 1.0
C      1  0.4187140000000  0.4878490000000  0.5281200000000 1.0
C      1  0.4355850000000  0.4846830000000  0.5706450000000 1.0
C      1  0.5644240000000  0.5151260000000  0.5720090000000 1.0
C      1  0.4361840000000  0.5142970000000  0.5737600000000 1.0
C      1  0.5647400000000  0.4859680000000  0.5709160000000 1.0
C      1  0.4848340000000  0.4054060000000  0.5182850000000 1.0
C      1  0.5159260000000  0.5969620000000  0.5179030000000 1.0
C      1  0.4845720000000  0.5879970000000  0.5185550000000 1.0
C      1  0.5152730000000  0.4043490000000  0.5184140000000 1.0
C      1  0.5251110000000  0.5120060000000  0.4705420000000 1.0
C      1  0.4746680000000  0.4793140000000  0.4687940000000 1.0
C      1  0.5262050000000  0.4791820000000  0.4685680000000 1.0
C      1  0.4738200000000  0.5110930000000  0.4722000000000 1.0
C      1  0.6001380000000  0.5117430000000  0.4604190000000 1.0
C      1  0.4069750000000  0.4809700000000  0.4663450000000 1.0
C      1  0.5934410000000  0.4837540000000  0.4680170000000 1.0
C      1  0.3985830000000  0.5149220000000  0.4601340000000 1.0
C      1  0.5294220000000  0.5788680000000  0.4756030000000 1.0
C      1  0.4708330000000  0.4219680000000  0.4700780000000 1.0
C      1  0.5282160000000  0.4207810000000  0.4699500000000 1.0
C      1  0.4715180000000  0.5728730000000  0.4720480000000 1.0
C      1  0.5119220000000  0.5314810000000  0.5828810000000 1.0
C      1  0.4844840000000  0.4720120000000  0.5722000000000 1.0
C      1  0.5159780000000  0.4716480000000  0.5739090000000 1.0
C      1  0.4849880000000  0.5274980000000  0.5727640000000 1.0
C      1  0.4852220000000  0.5928050000000  0.4885950000000 1.0
C      1  0.5144890000000  0.4046150000000  0.4891320000000 1.0
C      1  0.4855220000000  0.4054580000000  0.4889830000000 1.0
C      1  0.5138260000000  0.5970200000000  0.4890450000000 1.0
C      1  0.5351990000000  0.5866250000000  0.5360470000000 1.0
C      1  0.4652060000000  0.4105870000000  0.5392610000000 1.0
C      1  0.5345040000000  0.4097340000000  0.5398220000000 1.0
C      1  0.4635950000000  0.5863050000000  0.5410770000000 1.0
END
