TITL C-2441161-5029-901 0.0433245711164117 125000 -19503.0408594132 0 0 133 (C1) n - 1
REM
REM in /home/bkarasulu/work/CARBON/AIRSS/Generating-Clusters/ReaxFF-fromJPCA2015/Units_Real/with-SteepDescent/Higher-Symm
REM
REM
REM
REM
REM
REM ./C.cell (1df0a924f5614ab8850e4351716899ee)
REM
REM compiler GCC version 9.2.1 20190827 (Red Hat 9.2.1-1)
REM options -cpp -mtune=generic -march=x86-64 -g -O0 -fpre-include=/usr/include/finclude/math-vector-fortran.h
REM seed 1797666724 1253484332 866354020 22922395 -748510250 1075432082 1821640592 -1336115903 1935703782 -1065700237 -830998806 -367566334 -1458943605 -517662266 -1447483802 -105849380 1238907718 40977526 7986326 -9671115 -698107700 949397099 643058513 430244782 -1064312237 -1688707489 2024762140 384291951 1088697365 -1767466977 1896161655 -734956176 1492637330
REM
CELL 1.54180   50.00000   50.00000   50.00000   90.00000   90.00000   90.00000
LATT -1
SFAC C  
C      1  0.3974260000000  0.4807440000000  0.4991990000000 1.0
C      1  0.5000190000000  0.3994700000000  0.4793870000000 1.0
C      1  0.4826020000000  0.5011930000000  0.4004040000000 1.0
C      1  0.4001290000000  0.5221790000000  0.4989140000000 1.0
C      1  0.5995010000000  0.5198610000000  0.4966210000000 1.0
C      1  0.6006530000000  0.4790110000000  0.4981130000000 1.0
C      1  0.5050320000000  0.5996580000000  0.5300870000000 1.0
C      1  0.4973470000000  0.5948800000000  0.4889410000000 1.0
C      1  0.4998260000000  0.3997480000000  0.5202060000000 1.0
C      1  0.4748090000000  0.4992930000000  0.6004800000000 1.0
C      1  0.5221020000000  0.5099910000000  0.4052490000000 1.0
C      1  0.5146710000000  0.5056250000000  0.5962770000000 1.0
C      1  0.3986050000000  0.5015020000000  0.4788570000000 1.0
C      1  0.5061310000000  0.4850840000000  0.4031410000000 1.0
C      1  0.4792980000000  0.4007640000000  0.5003980000000 1.0
C      1  0.3998030000000  0.5016000000000  0.5197330000000 1.0
C      1  0.6006680000000  0.5004460000000  0.5181640000000 1.0
C      1  0.5997120000000  0.4988530000000  0.4768310000000 1.0
C      1  0.4905640000000  0.5228620000000  0.5961730000000 1.0
C      1  0.4972770000000  0.4822730000000  0.5987240000000 1.0
C      1  0.4977310000000  0.5245980000000  0.3996060000000 1.0
C      1  0.4810860000000  0.5940950000000  0.5143060000000 1.0
C      1  0.5200770000000  0.3982380000000  0.5004430000000 1.0
C      1  0.5216610000000  0.5989220000000  0.5055920000000 1.0
C      1  0.5647340000000  0.5855670000000  0.4533250000000 1.0
C      1  0.4543110000000  0.5603080000000  0.5894600000000 1.0
C      1  0.5860530000000  0.4556070000000  0.5677800000000 1.0
C      1  0.5664570000000  0.4131640000000  0.5477610000000 1.0
C      1  0.4343660000000  0.4126540000000  0.4531280000000 1.0
C      1  0.4411950000000  0.5855420000000  0.5460270000000 1.0
C      1  0.4559420000000  0.4336980000000  0.4115850000000 1.0
C      1  0.5453830000000  0.4349380000000  0.5882100000000 1.0
C      1  0.5417340000000  0.5696420000000  0.4123910000000 1.0
C      1  0.5805150000000  0.5440470000000  0.4305850000000 1.0
C      1  0.4137970000000  0.5468660000000  0.5632120000000 1.0
C      1  0.4132890000000  0.4533160000000  0.4324840000000 1.0
C      1  0.5657040000000  0.4558080000000  0.5888840000000 1.0
C      1  0.4570300000000  0.5827700000000  0.5709110000000 1.0
C      1  0.5838540000000  0.5641420000000  0.4509670000000 1.0
C      1  0.5585710000000  0.5458350000000  0.4109750000000 1.0
C      1  0.4346760000000  0.4536690000000  0.4123350000000 1.0
C      1  0.4307120000000  0.5440430000000  0.5864380000000 1.0
C      1  0.4552870000000  0.4132730000000  0.4327220000000 1.0
C      1  0.5437100000000  0.5888290000000  0.4337030000000 1.0
C      1  0.5453710000000  0.4139230000000  0.5677100000000 1.0
C      1  0.5865850000000  0.4344820000000  0.5477410000000 1.0
C      1  0.4178670000000  0.5679280000000  0.5435110000000 1.0
C      1  0.4129740000000  0.4327600000000  0.4531870000000 1.0
C      1  0.5681890000000  0.4770330000000  0.4305460000000 1.0
C      1  0.4203070000000  0.5439100000000  0.4983610000000 1.0
C      1  0.5013950000000  0.4225890000000  0.5374310000000 1.0
C      1  0.5386520000000  0.5032290000000  0.5807310000000 1.0
C      1  0.4646360000000  0.4977130000000  0.4223860000000 1.0
C      1  0.4549060000000  0.4971440000000  0.5814390000000 1.0
C      1  0.4176900000000  0.4599190000000  0.4993840000000 1.0
C      1  0.5808660000000  0.4593510000000  0.4998570000000 1.0
C      1  0.5777630000000  0.5371540000000  0.4956980000000 1.0
C      1  0.4979650000000  0.5808550000000  0.4638950000000 1.0
C      1  0.5059440000000  0.5845450000000  0.5563820000000 1.0
C      1  0.4998780000000  0.4213890000000  0.4599740000000 1.0
C      1  0.5393810000000  0.4188610000000  0.5007970000000 1.0
C      1  0.4202300000000  0.5009730000000  0.5382720000000 1.0
C      1  0.4942590000000  0.5445420000000  0.4185050000000 1.0
C      1  0.5415840000000  0.5778450000000  0.5010880000000 1.0
C      1  0.4613400000000  0.4226220000000  0.4988640000000 1.0
C      1  0.4370750000000  0.5790680000000  0.4869260000000 1.0
C      1  0.4195350000000  0.4989730000000  0.4604940000000 1.0
C      1  0.5774920000000  0.4984550000000  0.4569680000000 1.0
C      1  0.5807420000000  0.5009360000000  0.5396020000000 1.0
C      1  0.4993540000000  0.4620700000000  0.5780600000000 1.0
C      1  0.5254570000000  0.5681990000000  0.5686880000000 1.0
C      1  0.5027190000000  0.4620920000000  0.4202080000000 1.0
C      1  0.4229270000000  0.4420130000000  0.4788340000000 1.0
C      1  0.4772140000000  0.4274760000000  0.4454150000000 1.0
C      1  0.4434550000000  0.4791620000000  0.4230780000000 1.0
C      1  0.4319870000000  0.5503560000000  0.5249920000000 1.0
C      1  0.5686800000000  0.5473050000000  0.4702030000000 1.0
C      1  0.5781440000000  0.4413270000000  0.5208630000000 1.0
C      1  0.4790450000000  0.5692650000000  0.5559700000000 1.0
C      1  0.5221730000000  0.5747300000000  0.4495060000000 1.0
C      1  0.5209280000000  0.4252600000000  0.5572260000000 1.0
C      1  0.4480980000000  0.5236110000000  0.5734980000000 1.0
C      1  0.5395250000000  0.5262780000000  0.4228590000000 1.0
C      1  0.5552470000000  0.4808480000000  0.5773490000000 1.0
C      1  0.4226900000000  0.4791530000000  0.4415900000000 1.0
C      1  0.4813840000000  0.4434720000000  0.4228750000000 1.0
C      1  0.4459910000000  0.4268950000000  0.4759570000000 1.0
C      1  0.4294760000000  0.5267510000000  0.5466700000000 1.0
C      1  0.5760410000000  0.4810470000000  0.5586940000000 1.0
C      1  0.5653990000000  0.5239380000000  0.4459230000000 1.0
C      1  0.4745250000000  0.5412470000000  0.5790870000000 1.0
C      1  0.5222090000000  0.4465640000000  0.5747200000000 1.0
C      1  0.5201710000000  0.5545720000000  0.4268480000000 1.0
C      1  0.4640120000000  0.5750800000000  0.5298180000000 1.0
C      1  0.5589940000000  0.4211720000000  0.5207150000000 1.0
C      1  0.5477100000000  0.5701800000000  0.4728030000000 1.0
C      1  0.5581150000000  0.4610250000000  0.4840970000000 1.0
C      1  0.4837890000000  0.5558090000000  0.4645990000000 1.0
C      1  0.4631090000000  0.4833600000000  0.5558060000000 1.0
C      1  0.5539720000000  0.5299580000000  0.5115230000000 1.0
C      1  0.4388620000000  0.5361300000000  0.4789300000000 1.0
C      1  0.4426470000000  0.4663290000000  0.5135130000000 1.0
C      1  0.4882540000000  0.4481350000000  0.5297980000000 1.0
C      1  0.5179920000000  0.4421210000000  0.4618920000000 1.0
C      1  0.5123670000000  0.5508370000000  0.5280750000000 1.0
C      1  0.4726560000000  0.5094950000000  0.4482750000000 1.0
C      1  0.5366230000000  0.5171750000000  0.5555270000000 1.0
C      1  0.5442330000000  0.4791770000000  0.4431400000000 1.0
C      1  0.5548390000000  0.4868680000000  0.4723420000000 1.0
C      1  0.4824120000000  0.4612240000000  0.5561340000000 1.0
C      1  0.4528560000000  0.5599720000000  0.4776100000000 1.0
C      1  0.5596960000000  0.5184490000000  0.5376960000000 1.0
C      1  0.4389700000000  0.4808990000000  0.5385290000000 1.0
C      1  0.4455690000000  0.5094850000000  0.4696800000000 1.0
C      1  0.4799130000000  0.5373310000000  0.4417110000000 1.0
C      1  0.5152090000000  0.4663630000000  0.4457440000000 1.0
C      1  0.5216890000000  0.5456460000000  0.5551840000000 1.0
C      1  0.4632140000000  0.4442740000000  0.5156160000000 1.0
C      1  0.5384700000000  0.5547720000000  0.5169890000000 1.0
C      1  0.5330510000000  0.4447800000000  0.4871440000000 1.0
C      1  0.5100330000000  0.4631580000000  0.5054750000000 1.0
C      1  0.4948900000000  0.5374830000000  0.5108670000000 1.0
C      1  0.5147710000000  0.4984160000000  0.5393720000000 1.0
C      1  0.5157780000000  0.5138990000000  0.4746960000000 1.0
C      1  0.4869360000000  0.5024920000000  0.5424160000000 1.0
C      1  0.5249020000000  0.4866300000000  0.5146310000000 1.0
C      1  0.5015340000000  0.5372480000000  0.4828810000000 1.0
C      1  0.5368750000000  0.5047860000000  0.4935680000000 1.0
C      1  0.4774140000000  0.5158110000000  0.5184810000000 1.0
C      1  0.4523560000000  0.4938500000000  0.4947540000000 1.0
C      1  0.4931530000000  0.4777050000000  0.4863750000000 1.0
C      1  0.4990630000000  0.4926590000000  0.4616510000000 1.0
C      1  0.4755060000000  0.4949330000000  0.4991670000000 1.0
END
