TITL C-2441162-9305-909 0.0653238968244051 125000 -5990.06003981784 0 0 56 (C1) n - 1
REM
REM in /home/bkarasulu/work/CARBON/AIRSS/Generating-Clusters/ReaxFF-fromJPCA2015/Units_Real/with-SteepDescent/Higher-Symm
REM
REM
REM
REM
REM
REM ./C.cell (1df0a924f5614ab8850e4351716899ee)
REM
REM compiler GCC version 9.2.1 20190827 (Red Hat 9.2.1-1)
REM options -cpp -mtune=generic -march=x86-64 -g -O0 -fpre-include=/usr/include/finclude/math-vector-fortran.h
REM seed -971374485 -248798431 1404749069 -431133231 1946403340 2044847107 -1709742858 1749968491 1901145787 -880505059 -668297798 -933413202 -30995856 2038201618 -1417536799 -489723542 1859607033 -396536120 -85015730 771371252 -1598809276 1507263344 -695084941 174736067 1526183771 -2139795291 -1722648700 -1096453275 -1731549589 1252069579 -63414858 -404105926 -1992884745
REM
CELL 1.54180   50.00000   50.00000   50.00000   90.00000   90.00000   90.00000
LATT -1
SFAC C  
C      1  0.5039950000000  0.4633080000000  0.4532050000000 1.0
C      1  0.5037410000000  0.5601450000000  0.4921820000000 1.0
C      1  0.5039200000000  0.4792870000000  0.5585380000000 1.0
C      1  0.5405130000000  0.4802230000000  0.5102410000000 1.0
C      1  0.5399900000000  0.5020690000000  0.4788660000000 1.0
C      1  0.5400500000000  0.5182880000000  0.5136150000000 1.0
C      1  0.4952250000000  0.5065750000000  0.4626310000000 1.0
C      1  0.4959920000000  0.5301690000000  0.5258850000000 1.0
C      1  0.4957030000000  0.4647880000000  0.5139890000000 1.0
C      1  0.4641150000000  0.4510460000000  0.5365720000000 1.0
C      1  0.4634520000000  0.4945370000000  0.4402480000000 1.0
C      1  0.4637570000000  0.5562500000000  0.5263070000000 1.0
C      1  0.4628070000000  0.4400990000000  0.4974310000000 1.0
C      1  0.4622360000000  0.5337510000000  0.4503380000000 1.0
C      1  0.4627230000000  0.5276610000000  0.5549990000000 1.0
C      1  0.5538540000000  0.4996930000000  0.5282300000000 1.0
C      1  0.5538600000000  0.4768870000000  0.4867260000000 1.0
C      1  0.5529980000000  0.5246410000000  0.4876390000000 1.0
C      1  0.5036420000000  0.4350510000000  0.5142190000000 1.0
C      1  0.5035730000000  0.5212960000000  0.4379680000000 1.0
C      1  0.5035180000000  0.5441940000000  0.5516920000000 1.0
C      1  0.5115840000000  0.5531180000000  0.4452990000000 1.0
C      1  0.5096530000000  0.5192710000000  0.5741970000000 1.0
C      1  0.5114110000000  0.4250920000000  0.4833010000000 1.0
C      1  0.5232420000000  0.5021660000000  0.4279220000000 1.0
C      1  0.5232340000000  0.5624150000000  0.5392550000000 1.0
C      1  0.5230430000000  0.4360530000000  0.5361120000000 1.0
C      1  0.5243440000000  0.4615640000000  0.5480280000000 1.0
C      1  0.5259790000000  0.4787460000000  0.4434810000000 1.0
C      1  0.5250830000000  0.5600600000000  0.5112190000000 1.0
C      1  0.4811870000000  0.5449070000000  0.5048440000000 1.0
C      1  0.4810820000000  0.4757660000000  0.5379060000000 1.0
C      1  0.4807300000000  0.4809130000000  0.4603670000000 1.0
C      1  0.5081660000000  0.5160310000000  0.4848970000000 1.0
C      1  0.5104860000000  0.5072060000000  0.5230840000000 1.0
C      1  0.5115100000000  0.4775350000000  0.4954920000000 1.0
C      1  0.5169470000000  0.4521050000000  0.4769710000000 1.0
C      1  0.5168410000000  0.5444030000000  0.4714600000000 1.0
C      1  0.5188920000000  0.5035190000000  0.5526150000000 1.0
C      1  0.5568490000000  0.5177930000000  0.4610600000000 1.0
C      1  0.5571950000000  0.5262430000000  0.5357580000000 1.0
C      1  0.5569930000000  0.4570070000000  0.5063230000000 1.0
C      1  0.5470690000000  0.4499560000000  0.5326790000000 1.0
C      1  0.5475340000000  0.4989280000000  0.4411920000000 1.0
C      1  0.5473570000000  0.5526780000000  0.5289940000000 1.0
C      1  0.4577660000000  0.5013720000000  0.5247850000000 1.0
C      1  0.4567380000000  0.4793430000000  0.4898000000000 1.0
C      1  0.4559660000000  0.5211860000000  0.4879820000000 1.0
C      1  0.4496400000000  0.5114580000000  0.4609080000000 1.0
C      1  0.4501980000000  0.5294810000000  0.5304410000000 1.0
C      1  0.4501860000000  0.4604300000000  0.5112100000000 1.0
C      1  0.4742820000000  0.5194890000000  0.4289130000000 1.0
C      1  0.4743880000000  0.5535180000000  0.5537220000000 1.0
C      1  0.4746900000000  0.4285410000000  0.5204330000000 1.0
C      1  0.4336020000000  0.5002330000000  0.5009880000000 1.0
C      1  0.4740260000000  0.5014350000000  0.4998560000000 1.0
END
