TITL C-2441154-10-961 -5.50097480972454e-09 125000 -457.545109152237 0 0 5 (C4v) n - 1
REM
REM in /home/bkarasulu/work/CARBON/AIRSS/Generating-Clusters/ReaxFF-fromJPCA2015/Units_Real/with-SteepDescent/Higher-Symm
REM
REM
REM
REM
REM
REM ./C.cell (1df0a924f5614ab8850e4351716899ee)
REM
REM compiler GCC version 9.2.1 20190827 (Red Hat 9.2.1-1)
REM options -cpp -mtune=generic -march=x86-64 -g -O0 -fpre-include=/usr/include/finclude/math-vector-fortran.h
REM seed 71812211 -1449828829 2057141785 82187365 -638752623 -687065614 226813739 -1248946726 -570510810 -497682680 -1441408585 388130213 -348850782 -552022169 -37577450 -490144592 -1290071734 916746607 1650810031 1099337725 121312655 -855863907 2127467959 73234513 -1712193149 389176373 1715460327 -1306314889 -340870424 1612211929 641439501 1216706245 1784728497
REM
CELL 1.54180   50.00000   50.00000   50.00000   90.00000   90.00000   90.00000
LATT -1
SFAC C  
C      1  0.5163920000000  0.4887760000000  0.4815150000000 1.0
C      1  0.4876380000000  0.4887760000000  0.4774360000000 1.0
C      1  0.4835590000000  0.4887760000000  0.5061900000000 1.0
C      1  0.5123130000000  0.4887760000000  0.5102690000000 1.0
C      1  0.4999760000000  0.5116540000000  0.4938520000000 1.0
END
