TITL C-2441157-2117-1343 0.104315199075052 125000 -23409.0361568448 0 0 176 (C1) n - 1
REM
REM in /home/bkarasulu/work/CARBON/AIRSS/Generating-Clusters/ReaxFF-fromJPCA2015/Units_Real/with-SteepDescent/Higher-Symm
REM
REM
REM
REM
REM
REM ./C.cell (1df0a924f5614ab8850e4351716899ee)
REM
REM compiler GCC version 9.2.1 20190827 (Red Hat 9.2.1-1)
REM options -cpp -mtune=generic -march=x86-64 -g -O0 -fpre-include=/usr/include/finclude/math-vector-fortran.h
REM seed 301438775 -1917664200 -1865207982 -880339807 1367859616 2004740213 1395190263 1148318646 197995612 -267018517 1319870558 1886469716 1778076113 1287869504 -544144512 -1767112989 -904871665 423610938 355792882 1929730357 -1723503251 -2053904404 -1202527929 376965483 330903773 -1035278992 -458084259 757081034 1568992052 1424170022 -1509524681 92318334 199922213
REM
CELL 1.54180   50.00000   50.00000   50.00000   90.00000   90.00000   90.00000
LATT -1
SFAC C  
C      1  0.4422310000000  0.5546230000000  0.4459050000000 1.0
C      1  0.4432530000000  0.4661300000000  0.4315540000000 1.0
C      1  0.4418380000000  0.4261830000000  0.5152840000000 1.0
C      1  0.4338490000000  0.4927020000000  0.5811450000000 1.0
C      1  0.4435150000000  0.5659120000000  0.5327720000000 1.0
C      1  0.5209200000000  0.5083980000000  0.5206570000000 1.0
C      1  0.5164180000000  0.5295510000000  0.4996830000000 1.0
C      1  0.5126430000000  0.5111470000000  0.4774220000000 1.0
C      1  0.5127690000000  0.4833260000000  0.4842830000000 1.0
C      1  0.5160090000000  0.4809880000000  0.5123610000000 1.0
C      1  0.5353390000000  0.5285700000000  0.5894160000000 1.0
C      1  0.5382540000000  0.5941620000000  0.4997830000000 1.0
C      1  0.5282590000000  0.5308530000000  0.4095590000000 1.0
C      1  0.5350750000000  0.4272610000000  0.4448610000000 1.0
C      1  0.5395650000000  0.4220640000000  0.5557530000000 1.0
C      1  0.5532310000000  0.4265730000000  0.4872320000000 1.0
C      1  0.5501540000000  0.4695900000000  0.5633390000000 1.0
C      1  0.5502160000000  0.5525720000000  0.5479070000000 1.0
C      1  0.5507310000000  0.5624850000000  0.4606130000000 1.0
C      1  0.5451790000000  0.4905080000000  0.4287450000000 1.0
C      1  0.5505940000000  0.5323960000000  0.4555800000000 1.0
C      1  0.5456800000000  0.4742720000000  0.4537050000000 1.0
C      1  0.5513490000000  0.4471740000000  0.5147680000000 1.0
C      1  0.5529730000000  0.4985760000000  0.5529930000000 1.0
C      1  0.5528580000000  0.5510700000000  0.5171830000000 1.0
C      1  0.4636670000000  0.4017070000000  0.4745040000000 1.0
C      1  0.4597710000000  0.4413720000000  0.5827710000000 1.0
C      1  0.4611660000000  0.5639710000000  0.5807020000000 1.0
C      1  0.4617200000000  0.5976300000000  0.4662100000000 1.0
C      1  0.4566240000000  0.4960290000000  0.3950040000000 1.0
C      1  0.4587280000000  0.5663540000000  0.4262780000000 1.0
C      1  0.4580320000000  0.4508700000000  0.4125970000000 1.0
C      1  0.4642780000000  0.4114610000000  0.5219440000000 1.0
C      1  0.4618550000000  0.4921100000000  0.5877390000000 1.0
C      1  0.4622090000000  0.5896440000000  0.5340630000000 1.0
C      1  0.6094820000000  0.4732360000000  0.4851230000000 1.0
C      1  0.6098710000000  0.4675100000000  0.5128580000000 1.0
C      1  0.5997380000000  0.5022360000000  0.5330100000000 1.0
C      1  0.6067910000000  0.5335060000000  0.5042530000000 1.0
C      1  0.6056720000000  0.5199560000000  0.4774900000000 1.0
C      1  0.4356600000000  0.5840290000000  0.4714180000000 1.0
C      1  0.4310290000000  0.4980240000000  0.4106350000000 1.0
C      1  0.4380020000000  0.4164290000000  0.4762900000000 1.0
C      1  0.4311090000000  0.4492750000000  0.5763850000000 1.0
C      1  0.4343420000000  0.5553840000000  0.5712330000000 1.0
C      1  0.5486660000000  0.4031970000000  0.5340900000000 1.0
C      1  0.5541020000000  0.5036200000000  0.5990250000000 1.0
C      1  0.5551470000000  0.5958990000000  0.5311260000000 1.0
C      1  0.5514350000000  0.5499990000000  0.4156310000000 1.0
C      1  0.5541470000000  0.4436270000000  0.4237510000000 1.0
C      1  0.5779980000000  0.5454070000000  0.5519860000000 1.0
C      1  0.5757320000000  0.5686290000000  0.4732940000000 1.0
C      1  0.5867930000000  0.4837750000000  0.4435920000000 1.0
C      1  0.5809960000000  0.4291480000000  0.4874010000000 1.0
C      1  0.5770510000000  0.4600910000000  0.5562610000000 1.0
C      1  0.3898050000000  0.4888830000000  0.4784500000000 1.0
C      1  0.3871470000000  0.4748490000000  0.5045720000000 1.0
C      1  0.3883370000000  0.4959290000000  0.5247000000000 1.0
C      1  0.3891060000000  0.5223940000000  0.5122770000000 1.0
C      1  0.3902650000000  0.5181660000000  0.4827790000000 1.0
C      1  0.5439240000000  0.4771980000000  0.5918620000000 1.0
C      1  0.5433760000000  0.5814160000000  0.5530860000000 1.0
C      1  0.5445770000000  0.5720880000000  0.4339190000000 1.0
C      1  0.5425530000000  0.4666280000000  0.4109260000000 1.0
C      1  0.5413300000000  0.4007200000000  0.4936490000000 1.0
C      1  0.4196270000000  0.5609150000000  0.4613320000000 1.0
C      1  0.4192290000000  0.4804610000000  0.4311820000000 1.0
C      1  0.4198110000000  0.4271050000000  0.4977580000000 1.0
C      1  0.4152240000000  0.4727110000000  0.5717300000000 1.0
C      1  0.4190850000000  0.5571350000000  0.5453590000000 1.0
C      1  0.4919990000000  0.4671210000000  0.5206300000000 1.0
C      1  0.4975740000000  0.5100250000000  0.5369000000000 1.0
C      1  0.4905460000000  0.5419120000000  0.5019990000000 1.0
C      1  0.4882730000000  0.5160100000000  0.4643090000000 1.0
C      1  0.4890660000000  0.4712680000000  0.4750220000000 1.0
C      1  0.5071960000000  0.4299470000000  0.4942430000000 1.0
C      1  0.5033640000000  0.4685490000000  0.5651070000000 1.0
C      1  0.5036580000000  0.5539350000000  0.5493910000000 1.0
C      1  0.5005220000000  0.5635500000000  0.4653460000000 1.0
C      1  0.5027300000000  0.4850830000000  0.4281370000000 1.0
C      1  0.5171550000000  0.4521910000000  0.4068290000000 1.0
C      1  0.5240160000000  0.3983410000000  0.5180810000000 1.0
C      1  0.5171060000000  0.4855090000000  0.6010930000000 1.0
C      1  0.5175880000000  0.5939230000000  0.5477150000000 1.0
C      1  0.5165120000000  0.5705860000000  0.4250510000000 1.0
C      1  0.5717910000000  0.5031770000000  0.4277480000000 1.0
C      1  0.5699270000000  0.4302080000000  0.4604710000000 1.0
C      1  0.5714620000000  0.4321860000000  0.5533770000000 1.0
C      1  0.5711600000000  0.5361480000000  0.5780480000000 1.0
C      1  0.5688450000000  0.5897770000000  0.4923170000000 1.0
C      1  0.4747820000000  0.3948450000000  0.5007120000000 1.0
C      1  0.4714900000000  0.4668960000000  0.5960160000000 1.0
C      1  0.4711920000000  0.5849000000000  0.5640970000000 1.0
C      1  0.4708670000000  0.5890000000000  0.4398850000000 1.0
C      1  0.4693980000000  0.4699730000000  0.3941410000000 1.0
C      1  0.5114100000000  0.5637510000000  0.5752900000000 1.0
C      1  0.5127630000000  0.5896420000000  0.4618320000000 1.0
C      1  0.5091210000000  0.4931410000000  0.4013790000000 1.0
C      1  0.5155470000000  0.4043350000000  0.4803480000000 1.0
C      1  0.5123090000000  0.4474280000000  0.5846140000000 1.0
C      1  0.5095920000000  0.5442460000000  0.5969630000000 1.0
C      1  0.5123310000000  0.6062640000000  0.4853390000000 1.0
C      1  0.5054500000000  0.5209870000000  0.3932030000000 1.0
C      1  0.5132890000000  0.4079070000000  0.4512360000000 1.0
C      1  0.5115010000000  0.4205990000000  0.5742630000000 1.0
C      1  0.4393880000000  0.4409150000000  0.4323870000000 1.0
C      1  0.4333940000000  0.4353800000000  0.5357780000000 1.0
C      1  0.4199860000000  0.5134230000000  0.5669040000000 1.0
C      1  0.4418930000000  0.5838220000000  0.5127420000000 1.0
C      1  0.4381760000000  0.5459790000000  0.4222750000000 1.0
C      1  0.5291420000000  0.5146070000000  0.5647610000000 1.0
C      1  0.5296670000000  0.5663390000000  0.5047420000000 1.0
C      1  0.5249360000000  0.5243910000000  0.4377750000000 1.0
C      1  0.5260240000000  0.4529150000000  0.4537950000000 1.0
C      1  0.5322770000000  0.4448500000000  0.5377250000000 1.0
C      1  0.5738180000000  0.4555610000000  0.4428230000000 1.0
C      1  0.5684300000000  0.4240460000000  0.5256860000000 1.0
C      1  0.5724310000000  0.5078370000000  0.5769450000000 1.0
C      1  0.5725850000000  0.5772880000000  0.5179290000000 1.0
C      1  0.5687330000000  0.5319740000000  0.4307350000000 1.0
C      1  0.4109380000000  0.5334780000000  0.4686930000000 1.0
C      1  0.4098270000000  0.4791390000000  0.4588430000000 1.0
C      1  0.4076230000000  0.4524790000000  0.5090370000000 1.0
C      1  0.4062760000000  0.4933850000000  0.5498090000000 1.0
C      1  0.4109080000000  0.5402890000000  0.5215660000000 1.0
C      1  0.4838940000000  0.4579150000000  0.5463750000000 1.0
C      1  0.4898280000000  0.5302600000000  0.5533690000000 1.0
C      1  0.4800920000000  0.5629020000000  0.4876000000000 1.0
C      1  0.4852330000000  0.5021070000000  0.4409790000000 1.0
C      1  0.4881680000000  0.4440050000000  0.4801440000000 1.0
C      1  0.5095270000000  0.4956410000000  0.5742380000000 1.0
C      1  0.5084900000000  0.5735730000000  0.5259830000000 1.0
C      1  0.5068940000000  0.5475230000000  0.4421560000000 1.0
C      1  0.5040590000000  0.4563910000000  0.4347580000000 1.0
C      1  0.5111940000000  0.4285750000000  0.5229450000000 1.0
C      1  0.4835660000000  0.6038110000000  0.4879660000000 1.0
C      1  0.4761700000000  0.5187100000000  0.3972550000000 1.0
C      1  0.4845770000000  0.4084770000000  0.4539180000000 1.0
C      1  0.4835610000000  0.4215380000000  0.5696430000000 1.0
C      1  0.4805180000000  0.5439870000000  0.5936860000000 1.0
C      1  0.4563150000000  0.4897640000000  0.5299140000000 1.0
C      1  0.4676400000000  0.5268870000000  0.5046750000000 1.0
C      1  0.4637240000000  0.5144960000000  0.4786250000000 1.0
C      1  0.4638930000000  0.4832890000000  0.4820630000000 1.0
C      1  0.4673000000000  0.4733180000000  0.5098460000000 1.0
C      1  0.6017000000000  0.4929430000000  0.4661490000000 1.0
C      1  0.5896580000000  0.4565060000000  0.4945740000000 1.0
C      1  0.5977700000000  0.4756000000000  0.5384950000000 1.0
C      1  0.5965480000000  0.5291170000000  0.5320530000000 1.0
C      1  0.5943120000000  0.5462240000000  0.4809330000000 1.0
C      1  0.4778300000000  0.4365400000000  0.4534550000000 1.0
C      1  0.4837220000000  0.4263750000000  0.5401620000000 1.0
C      1  0.4705780000000  0.5213040000000  0.5763970000000 1.0
C      1  0.4838690000000  0.5858410000000  0.5113460000000 1.0
C      1  0.4694920000000  0.5192930000000  0.4253730000000 1.0
C      1  0.4998290000000  0.5926890000000  0.4353540000000 1.0
C      1  0.4988840000000  0.4679620000000  0.3903580000000 1.0
C      1  0.5029430000000  0.3874420000000  0.5003620000000 1.0
C      1  0.4987310000000  0.4629520000000  0.6060740000000 1.0
C      1  0.4988570000000  0.5905640000000  0.5696910000000 1.0
C      1  0.5590070000000  0.5224900000000  0.5066460000000 1.0
C      1  0.5571770000000  0.5140490000000  0.4804390000000 1.0
C      1  0.5544770000000  0.4867330000000  0.4785700000000 1.0
C      1  0.5597950000000  0.4754530000000  0.5048060000000 1.0
C      1  0.5589640000000  0.4990550000000  0.5225490000000 1.0
C      1  0.4431680000000  0.5297940000000  0.5639980000000 1.0
C      1  0.4479300000000  0.5671360000000  0.4904880000000 1.0
C      1  0.4414020000000  0.5190400000000  0.4271510000000 1.0
C      1  0.4487070000000  0.4353970000000  0.4579110000000 1.0
C      1  0.4477950000000  0.4481010000000  0.5552450000000 1.0
C      1  0.4290980000000  0.4969490000000  0.5248490000000 1.0
C      1  0.4310490000000  0.5235700000000  0.5090180000000 1.0
C      1  0.4320860000000  0.5158600000000  0.4793150000000 1.0
C      1  0.4312250000000  0.4817980000000  0.4788180000000 1.0
C      1  0.4277570000000  0.4734550000000  0.5069740000000 1.0
C      1  0.4738730000000  0.5095230000000  0.5243450000000 1.0
END
