TITL C-2441160-1326-396 0.0219840008925997 125000 -20187.0772793003 0 0 139 (C1) n - 1
REM
REM in /home/bkarasulu/work/CARBON/AIRSS/Generating-Clusters/ReaxFF-fromJPCA2015/Units_Real/with-SteepDescent/Higher-Symm
REM
REM
REM
REM
REM
REM ./C.cell (1df0a924f5614ab8850e4351716899ee)
REM
REM compiler GCC version 9.2.1 20190827 (Red Hat 9.2.1-1)
REM options -cpp -mtune=generic -march=x86-64 -g -O0 -fpre-include=/usr/include/finclude/math-vector-fortran.h
REM seed -1502997297 723960692 -119081690 -302652192 -1367003006 1940367581 1634125007 1706321091 1926406476 1727478361 903756103 -1890625752 990228617 597873992 -1186222029 1708988023 -860079618 1625558535 646573637 1407304618 -1911311436 2018363728 -1539029410 1330440327 1646316261 178734318 -651650371 -1057127930 -2055887264 1825570624 1107496976 -1284828802 -195499461
REM
CELL 1.54180   50.00000   50.00000   50.00000   90.00000   90.00000   90.00000
LATT -1
SFAC C  
C      1  0.5111870000000  0.4339550000000  0.5794580000000 1.0
C      1  0.5134400000000  0.4216700000000  0.4355130000000 1.0
C      1  0.5113630000000  0.5626830000000  0.4215850000000 1.0
C      1  0.5091370000000  0.5810230000000  0.5669320000000 1.0
C      1  0.4875460000000  0.5639140000000  0.5787890000000 1.0
C      1  0.4894020000000  0.5755290000000  0.4358220000000 1.0
C      1  0.4910940000000  0.4329230000000  0.4194390000000 1.0
C      1  0.4888750000000  0.4190550000000  0.5656310000000 1.0
C      1  0.4528290000000  0.5288090000000  0.4961040000000 1.0
C      1  0.4755220000000  0.5197970000000  0.5388280000000 1.0
C      1  0.4542880000000  0.4812090000000  0.5131040000000 1.0
C      1  0.4563310000000  0.4899160000000  0.4731870000000 1.0
C      1  0.5402110000000  0.4689710000000  0.4895780000000 1.0
C      1  0.5334800000000  0.4837760000000  0.5327040000000 1.0
C      1  0.5331130000000  0.5200200000000  0.5025290000000 1.0
C      1  0.5250160000000  0.5012610000000  0.4607130000000 1.0
C      1  0.5333790000000  0.4405990000000  0.5191190000000 1.0
C      1  0.5282610000000  0.4807450000000  0.4389400000000 1.0
C      1  0.5358480000000  0.5546350000000  0.4808580000000 1.0
C      1  0.5300950000000  0.5224110000000  0.5561160000000 1.0
C      1  0.4682120000000  0.5637640000000  0.5217500000000 1.0
C      1  0.4586090000000  0.5366980000000  0.4696990000000 1.0
C      1  0.4719190000000  0.4406210000000  0.4773950000000 1.0
C      1  0.4647790000000  0.4795290000000  0.5597650000000 1.0
C      1  0.5368820000000  0.4388800000000  0.5667940000000 1.0
C      1  0.5380520000000  0.4371440000000  0.4438060000000 1.0
C      1  0.5400340000000  0.5642340000000  0.4309610000000 1.0
C      1  0.5376320000000  0.5701100000000  0.5655830000000 1.0
C      1  0.4602360000000  0.5597130000000  0.5666500000000 1.0
C      1  0.4606710000000  0.5678290000000  0.4336250000000 1.0
C      1  0.4630900000000  0.4376210000000  0.4306840000000 1.0
C      1  0.4610300000000  0.4317680000000  0.5623540000000 1.0
C      1  0.4975800000000  0.5368680000000  0.5817210000000 1.0
C      1  0.4990170000000  0.4173810000000  0.5379290000000 1.0
C      1  0.5022600000000  0.4594670000000  0.4150630000000 1.0
C      1  0.4946140000000  0.5744000000000  0.4655490000000 1.0
C      1  0.5001430000000  0.4621660000000  0.5809940000000 1.0
C      1  0.5019250000000  0.5838100000000  0.5382530000000 1.0
C      1  0.5038210000000  0.5344260000000  0.4214320000000 1.0
C      1  0.5026110000000  0.4176120000000  0.4623920000000 1.0
C      1  0.4495040000000  0.4345200000000  0.4565890000000 1.0
C      1  0.4424510000000  0.5458460000000  0.4323700000000 1.0
C      1  0.4469750000000  0.5670980000000  0.5409490000000 1.0
C      1  0.4468070000000  0.4577000000000  0.5673830000000 1.0
C      1  0.5515700000000  0.5668210000000  0.4583850000000 1.0
C      1  0.5515490000000  0.4617900000000  0.4365230000000 1.0
C      1  0.5497760000000  0.4319460000000  0.5420820000000 1.0
C      1  0.5493800000000  0.5444220000000  0.5717910000000 1.0
C      1  0.5101710000000  0.5467620000000  0.4711110000000 1.0
C      1  0.5023740000000  0.5339260000000  0.5520080000000 1.0
C      1  0.4906540000000  0.4458130000000  0.5338090000000 1.0
C      1  0.4964460000000  0.4659550000000  0.4437180000000 1.0
C      1  0.4982570000000  0.4458830000000  0.4654040000000 1.0
C      1  0.5032770000000  0.4655230000000  0.5522830000000 1.0
C      1  0.5114740000000  0.5568830000000  0.5332760000000 1.0
C      1  0.5197150000000  0.5285560000000  0.4472120000000 1.0
C      1  0.5059870000000  0.4858410000000  0.4023380000000 1.0
C      1  0.5063420000000  0.5923690000000  0.4879400000000 1.0
C      1  0.5073640000000  0.5131670000000  0.5965840000000 1.0
C      1  0.5078460000000  0.4026960000000  0.5133870000000 1.0
C      1  0.4907230000000  0.5115540000000  0.4083750000000 1.0
C      1  0.4949010000000  0.4022150000000  0.4868830000000 1.0
C      1  0.4948730000000  0.4864480000000  0.5976760000000 1.0
C      1  0.4944480000000  0.5986710000000  0.5134550000000 1.0
C      1  0.4517260000000  0.4167340000000  0.5152230000000 1.0
C      1  0.4576600000000  0.4868600000000  0.4176560000000 1.0
C      1  0.4500510000000  0.5862250000000  0.4842500000000 1.0
C      1  0.4510200000000  0.5145260000000  0.5844960000000 1.0
C      1  0.5515540000000  0.5809920000000  0.5150190000000 1.0
C      1  0.5523330000000  0.5139510000000  0.4146090000000 1.0
C      1  0.5468500000000  0.4179350000000  0.4845740000000 1.0
C      1  0.5494250000000  0.4869740000000  0.5764960000000 1.0
C      1  0.4243610000000  0.5226750000000  0.4369550000000 1.0
C      1  0.4236310000000  0.5606950000000  0.5220760000000 1.0
C      1  0.4231360000000  0.4762100000000  0.5606480000000 1.0
C      1  0.4256090000000  0.4391630000000  0.4738150000000 1.0
C      1  0.5756090000000  0.4772360000000  0.4426870000000 1.0
C      1  0.5743460000000  0.4368600000000  0.5250830000000 1.0
C      1  0.5726910000000  0.5281680000000  0.5649980000000 1.0
C      1  0.5755470000000  0.5615510000000  0.4736500000000 1.0
C      1  0.4295140000000  0.4970660000000  0.4210740000000 1.0
C      1  0.4250120000000  0.5790080000000  0.4974720000000 1.0
C      1  0.4250400000000  0.5010690000000  0.5779190000000 1.0
C      1  0.4274700000000  0.4210310000000  0.4981510000000 1.0
C      1  0.5755260000000  0.5034600000000  0.4296940000000 1.0
C      1  0.5728460000000  0.4234900000000  0.4974630000000 1.0
C      1  0.5721710000000  0.4983620000000  0.5637940000000 1.0
C      1  0.5751670000000  0.5694390000000  0.5018920000000 1.0
C      1  0.4119520000000  0.5164410000000  0.5589530000000 1.0
C      1  0.4164020000000  0.4389710000000  0.5157150000000 1.0
C      1  0.4142030000000  0.4821610000000  0.4385470000000 1.0
C      1  0.4110370000000  0.5604580000000  0.4821590000000 1.0
C      1  0.5852380000000  0.4871510000000  0.5395580000000 1.0
C      1  0.5920070000000  0.5512260000000  0.5176030000000 1.0
C      1  0.5896500000000  0.5216170000000  0.4467080000000 1.0
C      1  0.5864970000000  0.4440830000000  0.4846110000000 1.0
C      1  0.5851820000000  0.4639660000000  0.5220410000000 1.0
C      1  0.5921560000000  0.4810890000000  0.4667100000000 1.0
C      1  0.5834550000000  0.5297440000000  0.4761960000000 1.0
C      1  0.5895690000000  0.5344550000000  0.5420680000000 1.0
C      1  0.4103360000000  0.5359210000000  0.5151900000000 1.0
C      1  0.4092470000000  0.5157400000000  0.4618980000000 1.0
C      1  0.4110780000000  0.4633520000000  0.4823040000000 1.0
C      1  0.4103610000000  0.4827070000000  0.5352890000000 1.0
C      1  0.4693140000000  0.4919620000000  0.5859680000000 1.0
C      1  0.4706000000000  0.4150620000000  0.4933000000000 1.0
C      1  0.4723670000000  0.5083440000000  0.4303000000000 1.0
C      1  0.4674010000000  0.5892010000000  0.5071560000000 1.0
C      1  0.5312850000000  0.5079790000000  0.5818210000000 1.0
C      1  0.5322240000000  0.5819110000000  0.4933930000000 1.0
C      1  0.5323710000000  0.4926290000000  0.4115480000000 1.0
C      1  0.5309860000000  0.4152370000000  0.5063410000000 1.0
C      1  0.5367280000000  0.5109790000000  0.5296810000000 1.0
C      1  0.5212500000000  0.4691660000000  0.5117130000000 1.0
C      1  0.4979720000000  0.5032300000000  0.4799700000000 1.0
C      1  0.5044660000000  0.5288230000000  0.4947930000000 1.0
C      1  0.4722990000000  0.4903420000000  0.5341890000000 1.0
C      1  0.4758460000000  0.5361780000000  0.5132860000000 1.0
C      1  0.4712940000000  0.5120060000000  0.4604820000000 1.0
C      1  0.4704540000000  0.4708250000000  0.4913130000000 1.0
C      1  0.4035070000000  0.5342620000000  0.4845040000000 1.0
C      1  0.4035850000000  0.5128400000000  0.5333060000000 1.0
C      1  0.4051070000000  0.4640220000000  0.5121680000000 1.0
C      1  0.4036580000000  0.4859930000000  0.4637440000000 1.0
C      1  0.5959840000000  0.4673260000000  0.4931250000000 1.0
C      1  0.5950180000000  0.5108660000000  0.5265380000000 1.0
C      1  0.5970540000000  0.5270000000000  0.5022350000000 1.0
C      1  0.6011020000000  0.5082280000000  0.4666760000000 1.0
C      1  0.5352810000000  0.4693350000000  0.5575380000000 1.0
C      1  0.5373570000000  0.4435380000000  0.4727230000000 1.0
C      1  0.5441870000000  0.5359190000000  0.4315760000000 1.0
C      1  0.5401420000000  0.5642840000000  0.5364930000000 1.0
C      1  0.4572380000000  0.5313380000000  0.5616180000000 1.0
C      1  0.4624520000000  0.5660320000000  0.4651370000000 1.0
C      1  0.4667430000000  0.4659050000000  0.4361730000000 1.0
C      1  0.4610210000000  0.4377910000000  0.5340940000000 1.0
C      1  0.4440480000000  0.5017010000000  0.4957930000000 1.0
C      1  0.5412070000000  0.4976050000000  0.4850610000000 1.0
C      1  0.4947630000000  0.4825940000000  0.5002940000000 1.0
END
