TITL C-2441156-4686-1227 0.0157099622998268 125000 -11451.7635488962 0 0 84 (C1) n - 1
REM
REM in /home/bkarasulu/work/CARBON/AIRSS/Generating-Clusters/ReaxFF-fromJPCA2015/Units_Real/with-SteepDescent/Higher-Symm
REM
REM
REM
REM
REM
REM ./C.cell (1df0a924f5614ab8850e4351716899ee)
REM
REM compiler GCC version 9.2.1 20190827 (Red Hat 9.2.1-1)
REM options -cpp -mtune=generic -march=x86-64 -g -O0 -fpre-include=/usr/include/finclude/math-vector-fortran.h
REM seed -729091135 847441467 869904533 1816197336 1798388685 -1711638240 89901943 1833895625 -1543032182 1630566503 594151896 1458156898 1852898091 -1656635172 386714933 -1813819727 1493825115 -1988362172 -551011643 -1627450752 -38639303 552289071 -1639298995 1113709982 324631602 -1662104257 -1975761576 1325837703 1377541884 1767307660 -1415544487 -1200231008 834817746
REM
CELL 1.54180   50.00000   50.00000   50.00000   90.00000   90.00000   90.00000
LATT -1
SFAC C  
C      1  0.4367520000000  0.4443730000000  0.4898110000000 1.0
C      1  0.5341620000000  0.4203680000000  0.5069080000000 1.0
C      1  0.5832800000000  0.5097760000000  0.5071540000000 1.0
C      1  0.5149680000000  0.5829630000000  0.4856210000000 1.0
C      1  0.4315580000000  0.5398160000000  0.4875880000000 1.0
C      1  0.4655130000000  0.5793880000000  0.5061820000000 1.0
C      1  0.4158330000000  0.4931670000000  0.5075640000000 1.0
C      1  0.4777950000000  0.4133890000000  0.5059780000000 1.0
C      1  0.5748020000000  0.4557730000000  0.5002380000000 1.0
C      1  0.5592260000000  0.5553030000000  0.5028660000000 1.0
C      1  0.5226600000000  0.4887080000000  0.4235520000000 1.0
C      1  0.5199640000000  0.5170330000000  0.4232330000000 1.0
C      1  0.4919710000000  0.5236720000000  0.4224130000000 1.0
C      1  0.4772750000000  0.4989180000000  0.4222310000000 1.0
C      1  0.4961510000000  0.4770790000000  0.4222270000000 1.0
C      1  0.5120230000000  0.5831660000000  0.5287350000000 1.0
C      1  0.4300700000000  0.5361160000000  0.5354350000000 1.0
C      1  0.4444680000000  0.4445560000000  0.5366460000000 1.0
C      1  0.5467520000000  0.4317110000000  0.5312850000000 1.0
C      1  0.5751610000000  0.5216780000000  0.5333160000000 1.0
C      1  0.5318880000000  0.4326150000000  0.4660250000000 1.0
C      1  0.5735230000000  0.5094260000000  0.4665710000000 1.0
C      1  0.5272560000000  0.5775640000000  0.4599680000000 1.0
C      1  0.4405690000000  0.5493620000000  0.4620060000000 1.0
C      1  0.4340070000000  0.4541910000000  0.4638910000000 1.0
C      1  0.4433380000000  0.5195910000000  0.5560290000000 1.0
C      1  0.4632670000000  0.4532900000000  0.5560820000000 1.0
C      1  0.5284030000000  0.4440040000000  0.5501700000000 1.0
C      1  0.5532330000000  0.5155240000000  0.5532470000000 1.0
C      1  0.5029270000000  0.5650490000000  0.5480450000000 1.0
C      1  0.4331600000000  0.4645920000000  0.5135060000000 1.0
C      1  0.5069670000000  0.4144320000000  0.5062320000000 1.0
C      1  0.5816050000000  0.4820900000000  0.5022830000000 1.0
C      1  0.5317790000000  0.5679380000000  0.5059470000000 1.0
C      1  0.4447060000000  0.5520770000000  0.5122280000000 1.0
C      1  0.4637990000000  0.4323340000000  0.4860890000000 1.0
C      1  0.5456150000000  0.4450690000000  0.4881730000000 1.0
C      1  0.5645710000000  0.5279920000000  0.4888930000000 1.0
C      1  0.4868470000000  0.5732780000000  0.4868940000000 1.0
C      1  0.4288360000000  0.5108160000000  0.4879710000000 1.0
C      1  0.5666530000000  0.4530610000000  0.5278700000000 1.0
C      1  0.5656800000000  0.5489330000000  0.5299850000000 1.0
C      1  0.4847220000000  0.5906570000000  0.5237480000000 1.0
C      1  0.4149460000000  0.5141840000000  0.5264100000000 1.0
C      1  0.4619850000000  0.4246300000000  0.5270590000000 1.0
C      1  0.4708310000000  0.5097440000000  0.5631410000000 1.0
C      1  0.4892610000000  0.4611850000000  0.5622740000000 1.0
C      1  0.5340570000000  0.4717980000000  0.5575200000000 1.0
C      1  0.5258250000000  0.5249760000000  0.5605140000000 1.0
C      1  0.4951930000000  0.5265730000000  0.5627790000000 1.0
C      1  0.4856500000000  0.4519720000000  0.4879020000000 1.0
C      1  0.5262410000000  0.4676520000000  0.5001860000000 1.0
C      1  0.5372220000000  0.5171610000000  0.5002790000000 1.0
C      1  0.4904510000000  0.5441670000000  0.4951310000000 1.0
C      1  0.4574860000000  0.4980040000000  0.4888470000000 1.0
C      1  0.4578140000000  0.4867220000000  0.4621280000000 1.0
C      1  0.4992070000000  0.4565890000000  0.4636420000000 1.0
C      1  0.5503470000000  0.4929880000000  0.4628200000000 1.0
C      1  0.5257610000000  0.5488450000000  0.4574920000000 1.0
C      1  0.4695190000000  0.5424020000000  0.4618520000000 1.0
C      1  0.5398240000000  0.4900020000000  0.5120810000000 1.0
C      1  0.5190160000000  0.5392690000000  0.5029730000000 1.0
C      1  0.4715830000000  0.5400460000000  0.5173810000000 1.0
C      1  0.4554160000000  0.4837830000000  0.5160270000000 1.0
C      1  0.5015250000000  0.4572570000000  0.5112280000000 1.0
C      1  0.5533110000000  0.4792110000000  0.5368350000000 1.0
C      1  0.5454430000000  0.5444760000000  0.5520980000000 1.0
C      1  0.4828400000000  0.5466510000000  0.5449260000000 1.0
C      1  0.4551740000000  0.4958330000000  0.5429720000000 1.0
C      1  0.5009070000000  0.4462460000000  0.5397790000000 1.0
C      1  0.4588950000000  0.5593060000000  0.4429380000000 1.0
C      1  0.4363970000000  0.4747680000000  0.4455070000000 1.0
C      1  0.5110070000000  0.4332580000000  0.4479820000000 1.0
C      1  0.5701200000000  0.4899220000000  0.4456290000000 1.0
C      1  0.5436210000000  0.5614480000000  0.4424030000000 1.0
C      1  0.4914340000000  0.4539120000000  0.4382840000000 1.0
C      1  0.5447610000000  0.4783030000000  0.4388950000000 1.0
C      1  0.5382950000000  0.5339180000000  0.4370370000000 1.0
C      1  0.4830880000000  0.5468190000000  0.4371400000000 1.0
C      1  0.4545190000000  0.4972540000000  0.4380120000000 1.0
C      1  0.5027410000000  0.4945130000000  0.5335830000000 1.0
C      1  0.4983670000000  0.5012720000000  0.5089420000000 1.0
C      1  0.4904450000000  0.5034730000000  0.4826370000000 1.0
C      1  0.5080400000000  0.4866690000000  0.5599910000000 1.0
END
