TITL C-2441166-8118-171 0.113051343698911 125000 -15938.4976303374 0 0 137 (C1) n - 1
REM
REM in /home/bkarasulu/work/CARBON/AIRSS/Generating-Clusters/ReaxFF-fromJPCA2015/Units_Real/with-SteepDescent/Higher-Symm
REM
REM
REM
REM
REM
REM ./C.cell (1df0a924f5614ab8850e4351716899ee)
REM
REM compiler GCC version 9.2.1 20190827 (Red Hat 9.2.1-1)
REM options -cpp -mtune=generic -march=x86-64 -g -O0 -fpre-include=/usr/include/finclude/math-vector-fortran.h
REM seed 822078406 492090560 -1966911093 -547044169 -1247985513 -835579701 1133700872 1384751587 -200977655 701937026 1461141996 -1950811967 -846899919 371388605 -845699494 -1250121385 874530705 290752759 -913484803 -1728165841 -82486992 1352247735 -1104377130 -103166387 -26818385 -607655653 -1534621342 -1721963346 1238729954 -1691260236 728741028 -952714288 -461558693
REM
CELL 1.54180   50.00000   50.00000   50.00000   90.00000   90.00000   90.00000
LATT -1
SFAC C  
C      1  0.5341650000000  0.5012980000000  0.4867130000000 1.0
C      1  0.5246410000000  0.5311770000000  0.4919360000000 1.0
C      1  0.4971870000000  0.5415220000000  0.4951850000000 1.0
C      1  0.4776290000000  0.5206350000000  0.4920040000000 1.0
C      1  0.4581640000000  0.4798410000000  0.4891110000000 1.0
C      1  0.4855210000000  0.4711180000000  0.4942940000000 1.0
C      1  0.5281730000000  0.4735690000000  0.4908310000000 1.0
C      1  0.4936550000000  0.4152780000000  0.4640800000000 1.0
C      1  0.5634080000000  0.4427680000000  0.4645250000000 1.0
C      1  0.5860660000000  0.5122120000000  0.4635150000000 1.0
C      1  0.5428390000000  0.5726290000000  0.4662510000000 1.0
C      1  0.4683730000000  0.5794390000000  0.4640410000000 1.0
C      1  0.4186530000000  0.5248240000000  0.4637390000000 1.0
C      1  0.4286700000000  0.4508990000000  0.4665350000000 1.0
C      1  0.5403060000000  0.4203790000000  0.4888750000000 1.0
C      1  0.5835660000000  0.4827190000000  0.4914840000000 1.0
C      1  0.5719470000000  0.5537560000000  0.4855570000000 1.0
C      1  0.4983490000000  0.5893150000000  0.4884550000000 1.0
C      1  0.4299050000000  0.5555020000000  0.4869410000000 1.0
C      1  0.4149420000000  0.4785730000000  0.4931620000000 1.0
C      1  0.4625070000000  0.4212020000000  0.4887620000000 1.0
C      1  0.4421520000000  0.4852420000000  0.4415950000000 1.0
C      1  0.4793430000000  0.4481470000000  0.4372270000000 1.0
C      1  0.5287240000000  0.4480160000000  0.4387860000000 1.0
C      1  0.5557280000000  0.4914410000000  0.4347680000000 1.0
C      1  0.5412660000000  0.5380130000000  0.4361480000000 1.0
C      1  0.4958310000000  0.5576760000000  0.4348860000000 1.0
C      1  0.4533510000000  0.5330050000000  0.4374820000000 1.0
C      1  0.4537560000000  0.4366090000000  0.4657830000000 1.0
C      1  0.5202190000000  0.4247680000000  0.4605590000000 1.0
C      1  0.5722010000000  0.4706770000000  0.4662950000000 1.0
C      1  0.5703540000000  0.5364330000000  0.4635630000000 1.0
C      1  0.5131660000000  0.5754690000000  0.4635000000000 1.0
C      1  0.4490430000000  0.5589230000000  0.4639110000000 1.0
C      1  0.4216510000000  0.4966700000000  0.4597760000000 1.0
C      1  0.5645660000000  0.5362790000000  0.5062610000000 1.0
C      1  0.5197050000000  0.5721280000000  0.5082540000000 1.0
C      1  0.4549450000000  0.5623760000000  0.5048110000000 1.0
C      1  0.4270430000000  0.5043490000000  0.4993210000000 1.0
C      1  0.4496870000000  0.4410330000000  0.5080010000000 1.0
C      1  0.5143190000000  0.4290630000000  0.5001720000000 1.0
C      1  0.5650890000000  0.4648040000000  0.5078330000000 1.0
C      1  0.4427930000000  0.4226650000000  0.5297550000000 1.0
C      1  0.5233400000000  0.4046510000000  0.5366600000000 1.0
C      1  0.5849210000000  0.4597070000000  0.5304470000000 1.0
C      1  0.5854960000000  0.5442700000000  0.5287830000000 1.0
C      1  0.5186110000000  0.5929370000000  0.5293970000000 1.0
C      1  0.4408570000000  0.5758290000000  0.5283680000000 1.0
C      1  0.4013770000000  0.4998080000000  0.5370630000000 1.0
C      1  0.4744850000000  0.4946700000000  0.4208350000000 1.0
C      1  0.4881060000000  0.4681570000000  0.4164490000000 1.0
C      1  0.5167610000000  0.4680300000000  0.4174920000000 1.0
C      1  0.5331620000000  0.4923230000000  0.4155310000000 1.0
C      1  0.5219630000000  0.5219970000000  0.4159670000000 1.0
C      1  0.4963600000000  0.5392810000000  0.4123940000000 1.0
C      1  0.4705040000000  0.5251540000000  0.4144660000000 1.0
C      1  0.4803520000000  0.5633030000000  0.5700050000000 1.0
C      1  0.4381150000000  0.5240630000000  0.5702720000000 1.0
C      1  0.4420760000000  0.4670390000000  0.5691360000000 1.0
C      1  0.4898770000000  0.4348420000000  0.5681980000000 1.0
C      1  0.5450620000000  0.4510650000000  0.5695770000000 1.0
C      1  0.5659010000000  0.5044520000000  0.5676860000000 1.0
C      1  0.5376500000000  0.5538770000000  0.5712660000000 1.0
C      1  0.5164940000000  0.5438000000000  0.5382170000000 1.0
C      1  0.4710480000000  0.5430740000000  0.5354960000000 1.0
C      1  0.4500220000000  0.5046780000000  0.5346150000000 1.0
C      1  0.4638440000000  0.4677220000000  0.5360610000000 1.0
C      1  0.5062180000000  0.4515550000000  0.5328840000000 1.0
C      1  0.5395140000000  0.4709480000000  0.5365760000000 1.0
C      1  0.5469070000000  0.5200830000000  0.5368300000000 1.0
C      1  0.4355000000000  0.4561630000000  0.5419230000000 1.0
C      1  0.4985220000000  0.4231760000000  0.5419590000000 1.0
C      1  0.5584350000000  0.4476510000000  0.5441790000000 1.0
C      1  0.5793110000000  0.5143030000000  0.5381870000000 1.0
C      1  0.5380580000000  0.5674640000000  0.5443160000000 1.0
C      1  0.4697420000000  0.5707390000000  0.5437050000000 1.0
C      1  0.4253680000000  0.5164450000000  0.5453790000000 1.0
C      1  0.5095020000000  0.5581730000000  0.5792050000000 1.0
C      1  0.4602760000000  0.5431900000000  0.5780800000000 1.0
C      1  0.4424030000000  0.4961520000000  0.5777590000000 1.0
C      1  0.4665620000000  0.4519480000000  0.5768240000000 1.0
C      1  0.5161710000000  0.4438770000000  0.5774970000000 1.0
C      1  0.5538790000000  0.4788520000000  0.5764960000000 1.0
C      1  0.5508490000000  0.5276660000000  0.5765290000000 1.0
C      1  0.5569820000000  0.4393580000000  0.4368720000000 1.0
C      1  0.5818700000000  0.5041650000000  0.4352630000000 1.0
C      1  0.5476250000000  0.5662160000000  0.4374100000000 1.0
C      1  0.4766230000000  0.5794010000000  0.4361420000000 1.0
C      1  0.4242500000000  0.5322270000000  0.4356490000000 1.0
C      1  0.4285980000000  0.4596100000000  0.4381050000000 1.0
C      1  0.4858990000000  0.4193650000000  0.4360570000000 1.0
C      1  0.4399270000000  0.4027910000000  0.5102430000000 1.0
C      1  0.5331120000000  0.3949480000000  0.5120250000000 1.0
C      1  0.6046640000000  0.4618230000000  0.5099030000000 1.0
C      1  0.5973340000000  0.5571120000000  0.5059970000000 1.0
C      1  0.5161530000000  0.6123130000000  0.5092100000000 1.0
C      1  0.4212500000000  0.5823740000000  0.5092160000000 1.0
C      1  0.3902700000000  0.4908540000000  0.5119100000000 1.0
C      1  0.5434960000000  0.4955930000000  0.5357060000000 1.0
C      1  0.5294460000000  0.5292780000000  0.5205910000000 1.0
C      1  0.4942940000000  0.5453110000000  0.5233320000000 1.0
C      1  0.4570810000000  0.5259120000000  0.5180430000000 1.0
C      1  0.4559950000000  0.4855100000000  0.5173610000000 1.0
C      1  0.4835810000000  0.4578790000000  0.5200030000000 1.0
C      1  0.5244780000000  0.4636260000000  0.5171310000000 1.0
C      1  0.4896420000000  0.4655520000000  0.4595120000000 1.0
C      1  0.5188990000000  0.4690690000000  0.4618170000000 1.0
C      1  0.5348630000000  0.4986010000000  0.4570340000000 1.0
C      1  0.5241910000000  0.5268810000000  0.4574480000000 1.0
C      1  0.4954710000000  0.5264140000000  0.4502990000000 1.0
C      1  0.4701410000000  0.5174440000000  0.4630220000000 1.0
C      1  0.4650080000000  0.4884230000000  0.4610900000000 1.0
C      1  0.5808160000000  0.4517380000000  0.4460640000000 1.0
C      1  0.5887830000000  0.5311510000000  0.4432880000000 1.0
C      1  0.5315860000000  0.5872170000000  0.4468060000000 1.0
C      1  0.4491760000000  0.5799940000000  0.4450580000000 1.0
C      1  0.4051970000000  0.5116010000000  0.4433050000000 1.0
C      1  0.4351380000000  0.4328810000000  0.4460550000000 1.0
C      1  0.5099950000000  0.4055350000000  0.4438790000000 1.0
C      1  0.4264180000000  0.4574120000000  0.5128470000000 1.0
C      1  0.4879930000000  0.4219150000000  0.5065580000000 1.0
C      1  0.5537980000000  0.4387090000000  0.5079870000000 1.0
C      1  0.5766730000000  0.5085020000000  0.5096160000000 1.0
C      1  0.5468420000000  0.5648420000000  0.5156420000000 1.0
C      1  0.4759530000000  0.5804600000000  0.5047700000000 1.0
C      1  0.4303730000000  0.5314800000000  0.5051500000000 1.0
C      1  0.4782360000000  0.5246350000000  0.5896320000000 1.0
C      1  0.4680840000000  0.4985700000000  0.5890540000000 1.0
C      1  0.4804760000000  0.4735120000000  0.5890370000000 1.0
C      1  0.5076800000000  0.4681350000000  0.5892220000000 1.0
C      1  0.5275710000000  0.4870670000000  0.5865560000000 1.0
C      1  0.5246740000000  0.5144010000000  0.5833780000000 1.0
C      1  0.5046800000000  0.5327910000000  0.5901730000000 1.0
C      1  0.4965770000000  0.4985310000000  0.5032210000000 1.0
C      1  0.4994980000000  0.5047800000000  0.4326380000000 1.0
C      1  0.5058540000000  0.5005530000000  0.5554720000000 1.0
C      1  0.5013440000000  0.4996020000000  0.5303990000000 1.0
END
