TITL C-2441167-4473-682 0.000427048188008467 125000 -3924.31280028407 0 0 29 (C1) n - 1
REM
REM in /home/bkarasulu/work/CARBON/AIRSS/Generating-Clusters/ReaxFF-fromJPCA2015/Units_Real/with-SteepDescent/Higher-Symm
REM
REM
REM
REM
REM
REM ./C.cell (1df0a924f5614ab8850e4351716899ee)
REM
REM compiler GCC version 9.2.1 20190827 (Red Hat 9.2.1-1)
REM options -cpp -mtune=generic -march=x86-64 -g -O0 -fpre-include=/usr/include/finclude/math-vector-fortran.h
REM seed 2038952641 -1978035092 -1222807296 -1659416905 462119527 -328269166 1666759722 -1270977593 -1592854151 -418821878 991758022 -14189858 1375466947 -345497130 445955772 1803119189 1608618203 -1622637977 -1203430597 -644782558 -578057428 1473958206 397627969 -1451733500 -773984565 300716696 1965006912 264654472 481877951 -380775229 -1213476917 -1039993333 298648782
REM
CELL 1.54180   50.00000   50.00000   50.00000   90.00000   90.00000   90.00000
LATT -1
SFAC C  
C      1  0.4990200000000  0.4590240000000  0.5199580000000 1.0
C      1  0.5046970000000  0.4479600000000  0.4712300000000 1.0
C      1  0.4421430000000  0.4861790000000  0.4686970000000 1.0
C      1  0.5599030000000  0.4864810000000  0.5308140000000 1.0
C      1  0.5049680000000  0.5166870000000  0.5608470000000 1.0
C      1  0.4972460000000  0.5148380000000  0.4418780000000 1.0
C      1  0.4657740000000  0.5386020000000  0.4935850000000 1.0
C      1  0.5359990000000  0.5396060000000  0.5076920000000 1.0
C      1  0.5248420000000  0.5122420000000  0.4431020000000 1.0
C      1  0.4773890000000  0.5138930000000  0.5595760000000 1.0
C      1  0.4590540000000  0.5373390000000  0.5171840000000 1.0
C      1  0.5425920000000  0.5354260000000  0.4841990000000 1.0
C      1  0.5260240000000  0.5150850000000  0.5153680000000 1.0
C      1  0.4746070000000  0.5132420000000  0.4864680000000 1.0
C      1  0.5457420000000  0.5162660000000  0.4631750000000 1.0
C      1  0.4567970000000  0.5175310000000  0.5385300000000 1.0
C      1  0.5093480000000  0.4886930000000  0.4395690000000 1.0
C      1  0.4928110000000  0.4904160000000  0.5621950000000 1.0
C      1  0.5516910000000  0.5042460000000  0.5517540000000 1.0
C      1  0.4492310000000  0.5049830000000  0.4483580000000 1.0
C      1  0.5458400000000  0.4913780000000  0.5071080000000 1.0
C      1  0.4564500000000  0.4871280000000  0.4933390000000 1.0
C      1  0.5548420000000  0.4917950000000  0.4789940000000 1.0
C      1  0.4530750000000  0.4970140000000  0.5190540000000 1.0
C      1  0.5276720000000  0.5227100000000  0.5436170000000 1.0
C      1  0.4741930000000  0.5216060000000  0.4582090000000 1.0
C      1  0.5067570000000  0.4669580000000  0.4572920000000 1.0
C      1  0.4961020000000  0.4722160000000  0.5413230000000 1.0
C      1  0.5019020000000  0.4504290000000  0.4957570000000 1.0
END
