TITL C-2441158-471-1147 1.70720536310331e-07 125000 -2149.57008524333 0 0 16 (Cs) n - 1
REM
REM in /home/bkarasulu/work/CARBON/AIRSS/Generating-Clusters/ReaxFF-fromJPCA2015/Units_Real/with-SteepDescent/Higher-Symm
REM
REM
REM
REM
REM
REM ./C.cell (1df0a924f5614ab8850e4351716899ee)
REM
REM compiler GCC version 9.2.1 20190827 (Red Hat 9.2.1-1)
REM options -cpp -mtune=generic -march=x86-64 -g -O0 -fpre-include=/usr/include/finclude/math-vector-fortran.h
REM seed 660016702 616610298 1404086749 530451740 2127393450 -484735709 -30555866 1948576343 -121142649 1986845815 -1435336555 2084286403 1197199063 -1862072364 -664854250 -1183767891 -458527296 1636536893 1470996500 1744865648 138708061 1975179069 -1953301435 -1335653460 -1417077637 -1711965924 -1218317658 2090578879 2116744995 -1565421501 -2129720466 -632615215 370216719
REM
CELL 1.54180   50.00000   50.00000   50.00000   90.00000   90.00000   90.00000
LATT -1
SFAC C  
C      1  0.4501000000000  0.4741500000000  0.5115440000000 1.0
C      1  0.4469490000000  0.5269310000000  0.4875340000000 1.0
C      1  0.4865190000000  0.5351510000000  0.4839650000000 1.0
C      1  0.4883420000000  0.4635400000000  0.5165260000000 1.0
C      1  0.5117680000000  0.4515540000000  0.5220700000000 1.0
C      1  0.5099170000000  0.5469710000000  0.4786920000000 1.0
C      1  0.4320250000000  0.4909180000000  0.5038450000000 1.0
C      1  0.4281430000000  0.5133050000000  0.4936500000000 1.0
C      1  0.5491320000000  0.4874850000000  0.5058910000000 1.0
C      1  0.5480550000000  0.5118430000000  0.4948200000000 1.0
C      1  0.5416150000000  0.5397260000000  0.4821250000000 1.0
C      1  0.5432130000000  0.4593430000000  0.5186520000000 1.0
C      1  0.5598270000000  0.5558150000000  0.4749000000000 1.0
C      1  0.5617200000000  0.4436320000000  0.5258590000000 1.0
C      1  0.4729860000000  0.4838010000000  0.5072530000000 1.0
C      1  0.4696880000000  0.5158360000000  0.4926740000000 1.0
END
