TITL C-2441157-2117-1134 0.0923845244597561 125000 -22225.7201250031 0 0 166 (C1) n - 1
REM
REM in /home/bkarasulu/work/CARBON/AIRSS/Generating-Clusters/ReaxFF-fromJPCA2015/Units_Real/with-SteepDescent/Higher-Symm
REM
REM
REM
REM
REM
REM ./C.cell (1df0a924f5614ab8850e4351716899ee)
REM
REM compiler GCC version 9.2.1 20190827 (Red Hat 9.2.1-1)
REM options -cpp -mtune=generic -march=x86-64 -g -O0 -fpre-include=/usr/include/finclude/math-vector-fortran.h
REM seed -1937685688 -1662090778 -67960014 -1496991880 -48501558 711738760 -1020539298 -2142183035 1506156391 -1724313760 1282300620 54651455 612707436 1756914709 1351320822 -1581203291 -1422880606 -772718126 1100181530 -402511167 561351752 -232061456 -352680803 1458110362 -1874475874 795604732 461974605 -608692133 908853506 -582611696 531274058 -911616925 927743555
REM
CELL 1.54180   50.00000   50.00000   50.00000   90.00000   90.00000   90.00000
LATT -1
SFAC C  
C      1  0.4895930000000  0.5660000000000  0.5128700000000 1.0
C      1  0.4867910000000  0.5676380000000  0.4839210000000 1.0
C      1  0.4714060000000  0.5383880000000  0.5963610000000 1.0
C      1  0.4758400000000  0.5290650000000  0.3994280000000 1.0
C      1  0.4927670000000  0.4778520000000  0.5118630000000 1.0
C      1  0.4863080000000  0.4759400000000  0.4818260000000 1.0
C      1  0.5196710000000  0.4319400000000  0.4192020000000 1.0
C      1  0.5264540000000  0.4350900000000  0.5790260000000 1.0
C      1  0.4108320000000  0.5231220000000  0.5541010000000 1.0
C      1  0.4051090000000  0.5231590000000  0.4480990000000 1.0
C      1  0.4604960000000  0.5007010000000  0.5552500000000 1.0
C      1  0.4611350000000  0.5060030000000  0.4475310000000 1.0
C      1  0.5710220000000  0.5861900000000  0.5501430000000 1.0
C      1  0.5716840000000  0.5824410000000  0.4489360000000 1.0
C      1  0.4461360000000  0.5438830000000  0.5825970000000 1.0
C      1  0.4382010000000  0.5396910000000  0.4147190000000 1.0
C      1  0.4558230000000  0.4792520000000  0.4857490000000 1.0
C      1  0.4709920000000  0.4931010000000  0.5165390000000 1.0
C      1  0.4681840000000  0.4335910000000  0.5299660000000 1.0
C      1  0.4784960000000  0.4253210000000  0.4765960000000 1.0
C      1  0.6084210000000  0.4820220000000  0.4807180000000 1.0
C      1  0.6075980000000  0.4788980000000  0.5097400000000 1.0
C      1  0.5439660000000  0.5913800000000  0.4438330000000 1.0
C      1  0.5428390000000  0.5936660000000  0.5552270000000 1.0
C      1  0.4663750000000  0.5201470000000  0.4741740000000 1.0
C      1  0.4730230000000  0.5209820000000  0.5214740000000 1.0
C      1  0.5435020000000  0.4823110000000  0.4232540000000 1.0
C      1  0.5473250000000  0.4842110000000  0.5808010000000 1.0
C      1  0.4954760000000  0.5118450000000  0.4114370000000 1.0
C      1  0.4881190000000  0.5146390000000  0.5924010000000 1.0
C      1  0.4230790000000  0.4416880000000  0.5415060000000 1.0
C      1  0.4265710000000  0.4404330000000  0.4601810000000 1.0
C      1  0.4852450000000  0.5725990000000  0.5630130000000 1.0
C      1  0.4734340000000  0.5661830000000  0.4382860000000 1.0
C      1  0.5079980000000  0.4036350000000  0.5370430000000 1.0
C      1  0.5124970000000  0.4006780000000  0.4605140000000 1.0
C      1  0.4852140000000  0.5553810000000  0.4077240000000 1.0
C      1  0.4886680000000  0.5619530000000  0.5905360000000 1.0
C      1  0.5015730000000  0.5216050000000  0.4717120000000 1.0
C      1  0.5028070000000  0.5234050000000  0.5273720000000 1.0
C      1  0.5621840000000  0.4841960000000  0.5107030000000 1.0
C      1  0.5602600000000  0.4804170000000  0.4822220000000 1.0
C      1  0.5151500000000  0.5506790000000  0.5837490000000 1.0
C      1  0.5117720000000  0.5510230000000  0.4163570000000 1.0
C      1  0.5135400000000  0.5496560000000  0.5148550000000 1.0
C      1  0.5182930000000  0.5421260000000  0.4866750000000 1.0
C      1  0.4103320000000  0.4628210000000  0.4544940000000 1.0
C      1  0.4089000000000  0.4632500000000  0.5536920000000 1.0
C      1  0.5917240000000  0.4670000000000  0.4567080000000 1.0
C      1  0.5843550000000  0.4656760000000  0.5469950000000 1.0
C      1  0.5536370000000  0.4170380000000  0.5107630000000 1.0
C      1  0.5651250000000  0.4295020000000  0.4853090000000 1.0
C      1  0.4338180000000  0.5060090000000  0.5158210000000 1.0
C      1  0.4441350000000  0.5061290000000  0.4887840000000 1.0
C      1  0.5845290000000  0.5158320000000  0.5335450000000 1.0
C      1  0.5809200000000  0.5109690000000  0.4670740000000 1.0
C      1  0.4314870000000  0.4763960000000  0.5810330000000 1.0
C      1  0.4449300000000  0.4893070000000  0.4119920000000 1.0
C      1  0.4989240000000  0.4353310000000  0.4939440000000 1.0
C      1  0.4939300000000  0.4349280000000  0.5209230000000 1.0
C      1  0.5838750000000  0.5622430000000  0.5401250000000 1.0
C      1  0.5838200000000  0.5587580000000  0.4603510000000 1.0
C      1  0.4546900000000  0.5439060000000  0.5108400000000 1.0
C      1  0.4657100000000  0.5476130000000  0.4842040000000 1.0
C      1  0.5839420000000  0.4694620000000  0.5201500000000 1.0
C      1  0.5762230000000  0.4560210000000  0.4804660000000 1.0
C      1  0.5159300000000  0.5235550000000  0.5956330000000 1.0
C      1  0.5313970000000  0.5273150000000  0.4059490000000 1.0
C      1  0.4812260000000  0.4859270000000  0.6009920000000 1.0
C      1  0.4876860000000  0.4882680000000  0.3964800000000 1.0
C      1  0.4290380000000  0.4254700000000  0.4869850000000 1.0
C      1  0.4249700000000  0.4253120000000  0.5167280000000 1.0
C      1  0.3974810000000  0.4788940000000  0.5322180000000 1.0
C      1  0.4040060000000  0.4761220000000  0.4785600000000 1.0
C      1  0.5280450000000  0.4196510000000  0.5529340000000 1.0
C      1  0.5278420000000  0.4251180000000  0.4476570000000 1.0
C      1  0.4522500000000  0.4488190000000  0.5504320000000 1.0
C      1  0.4482600000000  0.4549820000000  0.4445240000000 1.0
C      1  0.5568880000000  0.5982660000000  0.4695620000000 1.0
C      1  0.5557590000000  0.6014450000000  0.5297200000000 1.0
C      1  0.4878410000000  0.4916060000000  0.5553280000000 1.0
C      1  0.4862800000000  0.4892960000000  0.4496910000000 1.0
C      1  0.5081360000000  0.4766520000000  0.6041490000000 1.0
C      1  0.5143970000000  0.4784350000000  0.3916530000000 1.0
C      1  0.6034300000000  0.5100790000000  0.4839470000000 1.0
C      1  0.6045680000000  0.5081050000000  0.5123630000000 1.0
C      1  0.5623880000000  0.5313650000000  0.5708570000000 1.0
C      1  0.5536280000000  0.5307860000000  0.4242960000000 1.0
C      1  0.4506740000000  0.5896810000000  0.4841890000000 1.0
C      1  0.4520670000000  0.5868660000000  0.5193550000000 1.0
C      1  0.4652960000000  0.4424590000000  0.5786110000000 1.0
C      1  0.4668580000000  0.4461490000000  0.4227780000000 1.0
C      1  0.5325010000000  0.5917160000000  0.5141170000000 1.0
C      1  0.5330240000000  0.5899810000000  0.4847420000000 1.0
C      1  0.4868840000000  0.4122810000000  0.4515770000000 1.0
C      1  0.4814470000000  0.4101810000000  0.5483080000000 1.0
C      1  0.5176740000000  0.4539870000000  0.4545390000000 1.0
C      1  0.5102060000000  0.4479720000000  0.5389460000000 1.0
C      1  0.5299040000000  0.4724950000000  0.4751500000000 1.0
C      1  0.5364600000000  0.4860970000000  0.5250130000000 1.0
C      1  0.5239300000000  0.4497450000000  0.4946870000000 1.0
C      1  0.5264970000000  0.4598220000000  0.5214290000000 1.0
C      1  0.5681160000000  0.5553840000000  0.4854310000000 1.0
C      1  0.5694770000000  0.5539840000000  0.5147990000000 1.0
C      1  0.5444130000000  0.5271530000000  0.5474130000000 1.0
C      1  0.5438880000000  0.5260670000000  0.4515920000000 1.0
C      1  0.4655110000000  0.4700880000000  0.4052250000000 1.0
C      1  0.4605840000000  0.4673560000000  0.5922630000000 1.0
C      1  0.4125770000000  0.5422900000000  0.4281240000000 1.0
C      1  0.4188820000000  0.5300680000000  0.5824240000000 1.0
C      1  0.5571540000000  0.5291890000000  0.5215690000000 1.0
C      1  0.5463930000000  0.5361900000000  0.4799490000000 1.0
C      1  0.5101510000000  0.5596490000000  0.5548280000000 1.0
C      1  0.5053080000000  0.5630720000000  0.4424640000000 1.0
C      1  0.5861430000000  0.5378730000000  0.5560980000000 1.0
C      1  0.5892120000000  0.5324870000000  0.4482350000000 1.0
C      1  0.4888880000000  0.4270350000000  0.4267040000000 1.0
C      1  0.4869260000000  0.4243250000000  0.5730570000000 1.0
C      1  0.5481040000000  0.4530690000000  0.4255040000000 1.0
C      1  0.5489530000000  0.4531700000000  0.5769070000000 1.0
C      1  0.5059620000000  0.5103930000000  0.4438620000000 1.0
C      1  0.5069330000000  0.5127180000000  0.5559440000000 1.0
C      1  0.4487600000000  0.5165070000000  0.4011680000000 1.0
C      1  0.4260010000000  0.5036460000000  0.5870800000000 1.0
C      1  0.5188670000000  0.5851650000000  0.5405620000000 1.0
C      1  0.5193000000000  0.5836920000000  0.4578710000000 1.0
C      1  0.3899220000000  0.5002570000000  0.4898180000000 1.0
C      1  0.3906210000000  0.5048180000000  0.5183080000000 1.0
C      1  0.4292300000000  0.4683550000000  0.4930550000000 1.0
C      1  0.4235790000000  0.4802060000000  0.5180100000000 1.0
C      1  0.5281500000000  0.4968110000000  0.5998450000000 1.0
C      1  0.5341370000000  0.4979880000000  0.4001740000000 1.0
C      1  0.5116180000000  0.4963610000000  0.4825750000000 1.0
C      1  0.5138730000000  0.4989210000000  0.5105620000000 1.0
C      1  0.4997370000000  0.4663310000000  0.4372780000000 1.0
C      1  0.4992510000000  0.4652900000000  0.5588700000000 1.0
C      1  0.5838880000000  0.4932860000000  0.5543560000000 1.0
C      1  0.5802040000000  0.4920370000000  0.4447480000000 1.0
C      1  0.5788440000000  0.5154450000000  0.4272080000000 1.0
C      1  0.5711600000000  0.5041900000000  0.5771830000000 1.0
C      1  0.4476730000000  0.5482180000000  0.5539130000000 1.0
C      1  0.4547780000000  0.5409200000000  0.4397350000000 1.0
C      1  0.4517360000000  0.4124450000000  0.5194120000000 1.0
C      1  0.4549180000000  0.4130450000000  0.4896540000000 1.0
C      1  0.4389450000000  0.5196020000000  0.5426030000000 1.0
C      1  0.4260420000000  0.5459550000000  0.4547570000000 1.0
C      1  0.5668140000000  0.4442000000000  0.5566850000000 1.0
C      1  0.5705450000000  0.4463280000000  0.4407400000000 1.0
C      1  0.5578500000000  0.4266040000000  0.4565970000000 1.0
C      1  0.5546830000000  0.4237690000000  0.5387880000000 1.0
C      1  0.4240210000000  0.5441560000000  0.5098490000000 1.0
C      1  0.4134670000000  0.5453030000000  0.4832900000000 1.0
C      1  0.4785770000000  0.5958440000000  0.5147110000000 1.0
C      1  0.4786550000000  0.5970900000000  0.4849000000000 1.0
C      1  0.5334300000000  0.5004100000000  0.4446150000000 1.0
C      1  0.5334140000000  0.4999530000000  0.5533240000000 1.0
C      1  0.5096700000000  0.4576360000000  0.4115630000000 1.0
C      1  0.5058330000000  0.4539010000000  0.5842940000000 1.0
C      1  0.4587310000000  0.5732280000000  0.5443120000000 1.0
C      1  0.4548190000000  0.5781680000000  0.4581720000000 1.0
C      1  0.3942430000000  0.5248940000000  0.4746530000000 1.0
C      1  0.4034530000000  0.5301830000000  0.5270600000000 1.0
C      1  0.4409240000000  0.4840200000000  0.4409790000000 1.0
C      1  0.4462060000000  0.4762710000000  0.5541560000000 1.0
C      1  0.5196910000000  0.3990500000000  0.4866130000000 1.0
C      1  0.5284250000000  0.4007250000000  0.5120270000000 1.0
END
