TITL C-2441156-4686-1467 0.0243510395499478 125000 -13369.7939584853 0 0 93 (C1) n - 1
REM
REM in /home/bkarasulu/work/CARBON/AIRSS/Generating-Clusters/ReaxFF-fromJPCA2015/Units_Real/with-SteepDescent/Higher-Symm
REM
REM
REM
REM
REM
REM ./C.cell (1df0a924f5614ab8850e4351716899ee)
REM
REM compiler GCC version 9.2.1 20190827 (Red Hat 9.2.1-1)
REM options -cpp -mtune=generic -march=x86-64 -g -O0 -fpre-include=/usr/include/finclude/math-vector-fortran.h
REM seed -1694587183 -1781553043 -1499731330 -847305418 923743041 824078754 102803685 -57625085 -345417763 2004066954 2009606452 461550344 -1052240327 863187581 1386929962 552587446 1632398889 627855396 1188772251 1937242987 1605384888 1372419327 1987456532 -1409044717 -293001026 -806820832 1933925574 -394117512 -390568455 716881897 -435395055 -902566821 -1641953339
REM
CELL 1.54180   50.00000   50.00000   50.00000   90.00000   90.00000   90.00000
LATT -1
SFAC C  
C      1  0.5623020000000  0.5454560000000  0.4716190000000 1.0
C      1  0.5086140000000  0.5428840000000  0.5355640000000 1.0
C      1  0.4390990000000  0.4640490000000  0.5177380000000 1.0
C      1  0.4643950000000  0.5474380000000  0.4317480000000 1.0
C      1  0.4885980000000  0.5017120000000  0.5211090000000 1.0
C      1  0.4561860000000  0.5289100000000  0.5679130000000 1.0
C      1  0.4476510000000  0.4949180000000  0.5324310000000 1.0
C      1  0.5341920000000  0.4713860000000  0.5735670000000 1.0
C      1  0.5153860000000  0.4574840000000  0.4539030000000 1.0
C      1  0.5772490000000  0.5557650000000  0.5208570000000 1.0
C      1  0.4934920000000  0.4662150000000  0.4296350000000 1.0
C      1  0.4690120000000  0.4334910000000  0.4592240000000 1.0
C      1  0.4171290000000  0.4832660000000  0.5097980000000 1.0
C      1  0.5428740000000  0.4299600000000  0.4793260000000 1.0
C      1  0.4501760000000  0.4351490000000  0.4813400000000 1.0
C      1  0.4247200000000  0.4890080000000  0.4552190000000 1.0
C      1  0.4592760000000  0.5511010000000  0.5525980000000 1.0
C      1  0.5367840000000  0.5420170000000  0.5485670000000 1.0
C      1  0.4591030000000  0.4621590000000  0.4926280000000 1.0
C      1  0.4166500000000  0.4962830000000  0.4839450000000 1.0
C      1  0.4625100000000  0.4808820000000  0.4696160000000 1.0
C      1  0.5196310000000  0.5336560000000  0.4770720000000 1.0
C      1  0.5089690000000  0.4807680000000  0.4775020000000 1.0
C      1  0.4659210000000  0.4569290000000  0.5628730000000 1.0
C      1  0.4925580000000  0.4634440000000  0.4961990000000 1.0
C      1  0.4678740000000  0.4251130000000  0.5272570000000 1.0
C      1  0.5655280000000  0.5615060000000  0.4979780000000 1.0
C      1  0.5633540000000  0.4984870000000  0.4566350000000 1.0
C      1  0.4478340000000  0.5032450000000  0.5600190000000 1.0
C      1  0.4214830000000  0.5052350000000  0.5290040000000 1.0
C      1  0.5605500000000  0.4478230000000  0.4638940000000 1.0
C      1  0.5659910000000  0.4973130000000  0.5472280000000 1.0
C      1  0.5182840000000  0.4221140000000  0.5177500000000 1.0
C      1  0.5417270000000  0.4521110000000  0.4417590000000 1.0
C      1  0.4977100000000  0.5277750000000  0.5138350000000 1.0
C      1  0.4373880000000  0.5127470000000  0.4435330000000 1.0
C      1  0.4913990000000  0.4324510000000  0.4820680000000 1.0
C      1  0.4774980000000  0.5746940000000  0.4615920000000 1.0
C      1  0.5248160000000  0.5781020000000  0.4862000000000 1.0
C      1  0.5425020000000  0.4939870000000  0.4360030000000 1.0
C      1  0.4461410000000  0.5516610000000  0.5264840000000 1.0
C      1  0.4650370000000  0.5631870000000  0.5073010000000 1.0
C      1  0.4617140000000  0.5212560000000  0.4875950000000 1.0
C      1  0.4404540000000  0.5329510000000  0.4686750000000 1.0
C      1  0.5891030000000  0.5354980000000  0.5330380000000 1.0
C      1  0.5728790000000  0.4866690000000  0.4985250000000 1.0
C      1  0.5282680000000  0.4800170000000  0.5268440000000 1.0
C      1  0.4814070000000  0.5411360000000  0.4938750000000 1.0
C      1  0.5165830000000  0.4315270000000  0.4676450000000 1.0
C      1  0.5461300000000  0.4976730000000  0.5685840000000 1.0
C      1  0.5014950000000  0.5198890000000  0.5745720000000 1.0
C      1  0.4816710000000  0.5400670000000  0.5682760000000 1.0
C      1  0.5485390000000  0.4559300000000  0.5290250000000 1.0
C      1  0.5286060000000  0.5077980000000  0.4889630000000 1.0
C      1  0.4907350000000  0.5593270000000  0.4401800000000 1.0
C      1  0.5698880000000  0.4773760000000  0.5263770000000 1.0
C      1  0.5298600000000  0.5219260000000  0.5696300000000 1.0
C      1  0.4620510000000  0.5178850000000  0.4293690000000 1.0
C      1  0.5104030000000  0.5229820000000  0.4337860000000 1.0
C      1  0.5358590000000  0.5058460000000  0.5177670000000 1.0
C      1  0.5115290000000  0.4342120000000  0.5566000000000 1.0
C      1  0.4677210000000  0.4198510000000  0.4987960000000 1.0
C      1  0.4868860000000  0.5817030000000  0.5127630000000 1.0
C      1  0.4959130000000  0.5826080000000  0.4851940000000 1.0
C      1  0.5351230000000  0.5734030000000  0.5374310000000 1.0
C      1  0.4925340000000  0.4493710000000  0.5718750000000 1.0
C      1  0.5436060000000  0.5772840000000  0.5095550000000 1.0
C      1  0.5118330000000  0.4659080000000  0.4060960000000 1.0
C      1  0.4203380000000  0.5248710000000  0.4901030000000 1.0
C      1  0.5626630000000  0.5273100000000  0.4485670000000 1.0
C      1  0.5361200000000  0.4495970000000  0.5552290000000 1.0
C      1  0.5007890000000  0.4758570000000  0.5215270000000 1.0
C      1  0.5413460000000  0.4310140000000  0.5083860000000 1.0
C      1  0.4908130000000  0.4935710000000  0.5811200000000 1.0
C      1  0.4990490000000  0.5357900000000  0.4575050000000 1.0
C      1  0.4631610000000  0.5038720000000  0.5097060000000 1.0
C      1  0.5584610000000  0.5085200000000  0.4840110000000 1.0
C      1  0.5727050000000  0.4723170000000  0.4735390000000 1.0
C      1  0.4528800000000  0.5595250000000  0.4560460000000 1.0
C      1  0.4673450000000  0.4522140000000  0.4374130000000 1.0
C      1  0.5071160000000  0.4707430000000  0.5823020000000 1.0
C      1  0.4884320000000  0.5026950000000  0.4342710000000 1.0
C      1  0.4471380000000  0.4721230000000  0.4455470000000 1.0
C      1  0.5350760000000  0.5565310000000  0.4696010000000 1.0
C      1  0.4871170000000  0.4926290000000  0.4624570000000 1.0
C      1  0.5389030000000  0.4704930000000  0.4192620000000 1.0
C      1  0.4648370000000  0.4841250000000  0.5726440000000 1.0
C      1  0.5391640000000  0.5217460000000  0.4317720000000 1.0
C      1  0.4527080000000  0.4469450000000  0.5387180000000 1.0
C      1  0.5067340000000  0.5720930000000  0.5331800000000 1.0
C      1  0.5560610000000  0.5214160000000  0.5328860000000 1.0
C      1  0.4971110000000  0.4197990000000  0.5348160000000 1.0
C      1  0.4255510000000  0.5322270000000  0.5178280000000 1.0
END
