TITL C-2441169-1362-1067 0.0285118272284587 125000 -13383.1344269179 0 0 96 (C1) n - 1
REM
REM in /home/bkarasulu/work/CARBON/AIRSS/Generating-Clusters/ReaxFF-fromJPCA2015/Units_Real/with-SteepDescent/Higher-Symm
REM
REM
REM
REM
REM
REM ./C.cell (1df0a924f5614ab8850e4351716899ee)
REM
REM compiler GCC version 9.2.1 20190827 (Red Hat 9.2.1-1)
REM options -cpp -mtune=generic -march=x86-64 -g -O0 -fpre-include=/usr/include/finclude/math-vector-fortran.h
REM seed -953314399 -1938026023 1994237395 1696809331 222499432 567133025 569937535 149887625 927319819 2053978372 2126897681 1854436016 1277835474 1270456009 272251451 -1048834955 1915142991 988537484 54680728 2050752696 2062048600 450112619 -1290556242 -787977786 -2138361658 1917709451 782573535 1363809885 2140716431 -1204520463 -2135003371 -231491999 -1055997246
REM
CELL 1.54180   50.00000   50.00000   50.00000   90.00000   90.00000   90.00000
LATT -1
SFAC C  
C      1  0.5118590000000  0.5172000000000  0.5835150000000 1.0
C      1  0.5845170000000  0.5168400000000  0.4898290000000 1.0
C      1  0.4902680000000  0.5112760000000  0.4131100000000 1.0
C      1  0.4159550000000  0.5171450000000  0.5131230000000 1.0
C      1  0.4886140000000  0.5173770000000  0.5833340000000 1.0
C      1  0.4156700000000  0.5170890000000  0.4898570000000 1.0
C      1  0.5121510000000  0.5117970000000  0.4105600000000 1.0
C      1  0.5843220000000  0.5167340000000  0.5130600000000 1.0
C      1  0.4670970000000  0.5100390000000  0.4853780000000 1.0
C      1  0.4861460000000  0.5094740000000  0.5327980000000 1.0
C      1  0.5328970000000  0.5096260000000  0.5129940000000 1.0
C      1  0.5140050000000  0.5098770000000  0.4648710000000 1.0
C      1  0.5328210000000  0.5099740000000  0.4852600000000 1.0
C      1  0.5138130000000  0.5094170000000  0.5327030000000 1.0
C      1  0.4671390000000  0.5098040000000  0.5130830000000 1.0
C      1  0.4860530000000  0.5097520000000  0.4651630000000 1.0
C      1  0.5145330000000  0.4150770000000  0.5351190000000 1.0
C      1  0.5353430000000  0.4153790000000  0.4851800000000 1.0
C      1  0.4854590000000  0.4158640000000  0.4642810000000 1.0
C      1  0.4646830000000  0.4151730000000  0.5142620000000 1.0
C      1  0.4854690000000  0.4151400000000  0.5351680000000 1.0
C      1  0.4646580000000  0.4155850000000  0.4852230000000 1.0
C      1  0.5144740000000  0.4158770000000  0.4642650000000 1.0
C      1  0.5353770000000  0.4152260000000  0.5142740000000 1.0
C      1  0.5496790000000  0.5600270000000  0.5146720000000 1.0
C      1  0.5164170000000  0.5601720000000  0.4474360000000 1.0
C      1  0.4489430000000  0.5596020000000  0.4865930000000 1.0
C      1  0.4876000000000  0.5538670000000  0.5478670000000 1.0
C      1  0.4476250000000  0.5604020000000  0.5145210000000 1.0
C      1  0.4877760000000  0.5536660000000  0.4504860000000 1.0
C      1  0.5486780000000  0.5591850000000  0.4854590000000 1.0
C      1  0.5157700000000  0.5597280000000  0.5499150000000 1.0
C      1  0.4772500000000  0.4391920000000  0.4475790000000 1.0
C      1  0.4478090000000  0.4383130000000  0.5225450000000 1.0
C      1  0.5225170000000  0.4381790000000  0.5520720000000 1.0
C      1  0.5523800000000  0.4385950000000  0.4772700000000 1.0
C      1  0.5226590000000  0.4392730000000  0.4476630000000 1.0
C      1  0.5521800000000  0.4383090000000  0.5225620000000 1.0
C      1  0.4774210000000  0.4381850000000  0.5522370000000 1.0
C      1  0.4478950000000  0.4389320000000  0.4774970000000 1.0
C      1  0.4694580000000  0.5061460000000  0.4360830000000 1.0
C      1  0.4376540000000  0.5065690000000  0.5297810000000 1.0
C      1  0.5288350000000  0.5057590000000  0.5627110000000 1.0
C      1  0.5636080000000  0.5066790000000  0.4717570000000 1.0
C      1  0.5303700000000  0.5058160000000  0.4357660000000 1.0
C      1  0.5624310000000  0.5061020000000  0.5294110000000 1.0
C      1  0.4709150000000  0.5065230000000  0.5628670000000 1.0
C      1  0.4363560000000  0.5070690000000  0.4715580000000 1.0
C      1  0.4835740000000  0.5813570000000  0.5369690000000 1.0
C      1  0.5314540000000  0.5831070000000  0.5136120000000 1.0
C      1  0.5127470000000  0.5829420000000  0.4649440000000 1.0
C      1  0.4651040000000  0.5828860000000  0.4852260000000 1.0
C      1  0.5131310000000  0.5829440000000  0.5346450000000 1.0
C      1  0.4644950000000  0.5842160000000  0.5145560000000 1.0
C      1  0.4836450000000  0.5800060000000  0.4631400000000 1.0
C      1  0.5308960000000  0.5813050000000  0.4858560000000 1.0
C      1  0.5628260000000  0.5532370000000  0.4607410000000 1.0
C      1  0.4597560000000  0.5537520000000  0.4419190000000 1.0
C      1  0.4386200000000  0.5527650000000  0.5400610000000 1.0
C      1  0.5411230000000  0.5526420000000  0.5611060000000 1.0
C      1  0.4380850000000  0.5534930000000  0.4621480000000 1.0
C      1  0.5430690000000  0.5519390000000  0.4392040000000 1.0
C      1  0.5613520000000  0.5519940000000  0.5405540000000 1.0
C      1  0.4610270000000  0.5543140000000  0.5595250000000 1.0
C      1  0.4614160000000  0.4755270000000  0.5600560000000 1.0
C      1  0.5597860000000  0.4754230000000  0.5390870000000 1.0
C      1  0.5388210000000  0.4767070000000  0.4404990000000 1.0
C      1  0.4399590000000  0.4762820000000  0.4617800000000 1.0
C      1  0.5386780000000  0.4753180000000  0.5601300000000 1.0
C      1  0.4402990000000  0.4754300000000  0.5391680000000 1.0
C      1  0.4609940000000  0.4766850000000  0.4405580000000 1.0
C      1  0.5597380000000  0.4763440000000  0.4618040000000 1.0
C      1  0.5157680000000  0.4592480000000  0.5707150000000 1.0
C      1  0.5703580000000  0.4601150000000  0.4841050000000 1.0
C      1  0.4844280000000  0.4605010000000  0.4294880000000 1.0
C      1  0.4295300000000  0.4597360000000  0.5161150000000 1.0
C      1  0.4842950000000  0.4593870000000  0.5706870000000 1.0
C      1  0.4293800000000  0.4600510000000  0.4844670000000 1.0
C      1  0.5153140000000  0.4604400000000  0.4294590000000 1.0
C      1  0.5705260000000  0.4596790000000  0.5161060000000 1.0
C      1  0.5132020000000  0.4576340000000  0.5312890000000 1.0
C      1  0.5310600000000  0.4573590000000  0.4868600000000 1.0
C      1  0.4867770000000  0.4580910000000  0.4688940000000 1.0
C      1  0.4689060000000  0.4575770000000  0.5132510000000 1.0
C      1  0.4867810000000  0.4575580000000  0.5312680000000 1.0
C      1  0.4688120000000  0.4582360000000  0.4869120000000 1.0
C      1  0.5131760000000  0.4582850000000  0.4689020000000 1.0
C      1  0.5311480000000  0.4575960000000  0.5132420000000 1.0
C      1  0.4289750000000  0.5279400000000  0.4535690000000 1.0
C      1  0.4517240000000  0.5274270000000  0.5694520000000 1.0
C      1  0.5693660000000  0.5260510000000  0.5492200000000 1.0
C      1  0.5525810000000  0.5255540000000  0.4320560000000 1.0
C      1  0.5718350000000  0.5269660000000  0.4531260000000 1.0
C      1  0.5491680000000  0.5261010000000  0.5700170000000 1.0
C      1  0.4317920000000  0.5267000000000  0.5486310000000 1.0
C      1  0.4489520000000  0.5281230000000  0.4321660000000 1.0
END
