TITL C-2441160-1326-378 5.94180980379365e-06 125000 -6763.02792074988 0 0 48 (T23) n - 1
REM
REM in /home/bkarasulu/work/CARBON/AIRSS/Generating-Clusters/ReaxFF-fromJPCA2015/Units_Real/with-SteepDescent/Higher-Symm
REM
REM
REM
REM
REM
REM ./C.cell (1df0a924f5614ab8850e4351716899ee)
REM
REM compiler GCC version 9.2.1 20190827 (Red Hat 9.2.1-1)
REM options -cpp -mtune=generic -march=x86-64 -g -O0 -fpre-include=/usr/include/finclude/math-vector-fortran.h
REM seed -774280748 -2080967957 712980808 1501980379 -1997762092 1280115841 1480456661 -1334750369 -408523291 1325695156 1995594255 870032059 -338802700 942377677 -2126366653 -977787666 1483353442 -1421142225 1187590895 1740413925 -1233961595 -619642177 211889483 -414771311 237582961 -866060881 1835103942 1320585771 -378932778 859792612 -252404689 -923738783 1186147192
REM
CELL 1.54180   50.00000   50.00000   50.00000   90.00000   90.00000   90.00000
LATT -1
SFAC C  
C      1  0.5233730000000  0.5622720000000  0.5171930000000 1.0
C      1  0.5622720000000  0.5171920000000  0.5233730000000 1.0
C      1  0.5171920000000  0.5233730000000  0.5622720000000 1.0
C      1  0.4766270000000  0.5622720000000  0.4828080000000 1.0
C      1  0.4766270000000  0.4377280000000  0.5171920000000 1.0
C      1  0.5233730000000  0.4377280000000  0.4828070000000 1.0
C      1  0.4377280000000  0.5171930000000  0.4766270000000 1.0
C      1  0.4377280000000  0.4828080000000  0.5233730000000 1.0
C      1  0.5622720000000  0.4828070000000  0.4766270000000 1.0
C      1  0.4828080000000  0.5233730000000  0.4377280000000 1.0
C      1  0.4828070000000  0.4766270000000  0.5622720000000 1.0
C      1  0.5171930000000  0.4766270000000  0.4377280000000 1.0
C      1  0.4715500000000  0.4983090000000  0.4391080000000 1.0
C      1  0.4983090000000  0.4391080000000  0.4715500000000 1.0
C      1  0.4391080000000  0.4715500000000  0.4983090000000 1.0
C      1  0.5284500000000  0.4983090000000  0.5608920000000 1.0
C      1  0.5284500000000  0.5016910000000  0.4391080000000 1.0
C      1  0.4715500000000  0.5016910000000  0.5608920000000 1.0
C      1  0.5016910000000  0.4391080000000  0.5284500000000 1.0
C      1  0.5016910000000  0.5608920000000  0.4715500000000 1.0
C      1  0.4983090000000  0.5608920000000  0.5284500000000 1.0
C      1  0.5608920000000  0.4715500000000  0.5016910000000 1.0
C      1  0.5608920000000  0.5284500000000  0.4983090000000 1.0
C      1  0.4391080000000  0.5284500000000  0.5016910000000 1.0
C      1  0.5118180000000  0.5244810000000  0.4366980000000 1.0
C      1  0.5244800000000  0.4366980000000  0.5118180000000 1.0
C      1  0.4366980000000  0.5118180000000  0.5244800000000 1.0
C      1  0.4881820000000  0.5244800000000  0.5633020000000 1.0
C      1  0.4881820000000  0.4755200000000  0.4366980000000 1.0
C      1  0.5118180000000  0.4755190000000  0.5633020000000 1.0
C      1  0.4755190000000  0.4366980000000  0.4881820000000 1.0
C      1  0.4755200000000  0.5633020000000  0.5118180000000 1.0
C      1  0.5244810000000  0.5633020000000  0.4881820000000 1.0
C      1  0.5633020000000  0.5118180000000  0.4755200000000 1.0
C      1  0.5633020000000  0.4881820000000  0.5244810000000 1.0
C      1  0.4366980000000  0.4881820000000  0.4755190000000 1.0
C      1  0.5368840000000  0.5412520000000  0.5024430000000 1.0
C      1  0.5412520000000  0.5024420000000  0.5368840000000 1.0
C      1  0.5024420000000  0.5368840000000  0.5412520000000 1.0
C      1  0.4631160000000  0.5412520000000  0.4975580000000 1.0
C      1  0.4631160000000  0.4587480000000  0.5024420000000 1.0
C      1  0.5368840000000  0.4587480000000  0.4975580000000 1.0
C      1  0.4587480000000  0.5024430000000  0.4631160000000 1.0
C      1  0.4587480000000  0.4975580000000  0.5368840000000 1.0
C      1  0.5412520000000  0.4975580000000  0.4631160000000 1.0
C      1  0.4975580000000  0.5368840000000  0.4587480000000 1.0
C      1  0.4975570000000  0.4631160000000  0.5412520000000 1.0
C      1  0.5024420000000  0.4631160000000  0.4587480000000 1.0
END
