TITL C-2441159-1093-1397 0.0510584936230541 125000 -10085.1001775951 0 0 80 (C1) n - 1
REM
REM in /home/bkarasulu/work/CARBON/AIRSS/Generating-Clusters/ReaxFF-fromJPCA2015/Units_Real/with-SteepDescent/Higher-Symm
REM
REM
REM
REM
REM
REM ./C.cell (1df0a924f5614ab8850e4351716899ee)
REM
REM compiler GCC version 9.2.1 20190827 (Red Hat 9.2.1-1)
REM options -cpp -mtune=generic -march=x86-64 -g -O0 -fpre-include=/usr/include/finclude/math-vector-fortran.h
REM seed -1018590788 115637812 1176890996 -801466636 -70318574 -1298513825 -225241184 -393073187 -1221264533 859658884 -267075553 246944210 1601198897 1550872783 518029840 794000477 547818999 1190611574 43431780 -472180637 -1897826990 -1467677848 1676022805 895881252 -406327278 1982781741 -1534923980 1900128123 139546392 1356431793 -1967428943 500893194 -552995686
REM
CELL 1.54180   50.00000   50.00000   50.00000   90.00000   90.00000   90.00000
LATT -1
SFAC C  
C      1  0.4433240000000  0.5014290000000  0.4777480000000 1.0
C      1  0.4531260000000  0.5224370000000  0.4998770000000 1.0
C      1  0.4521060000000  0.4993140000000  0.5217580000000 1.0
C      1  0.4418300000000  0.4813750000000  0.4982940000000 1.0
C      1  0.5468590000000  0.4998900000000  0.4786850000000 1.0
C      1  0.5499940000000  0.4795940000000  0.5001660000000 1.0
C      1  0.5590380000000  0.5001980000000  0.5185670000000 1.0
C      1  0.5566510000000  0.5203790000000  0.4984960000000 1.0
C      1  0.5354370000000  0.5394360000000  0.5603380000000 1.0
C      1  0.5387910000000  0.4436080000000  0.5429900000000 1.0
C      1  0.5358160000000  0.4593710000000  0.4386870000000 1.0
C      1  0.5365330000000  0.5600170000000  0.4635470000000 1.0
C      1  0.4605170000000  0.4570100000000  0.5566670000000 1.0
C      1  0.4637930000000  0.5609120000000  0.5408400000000 1.0
C      1  0.4636540000000  0.5347480000000  0.4393170000000 1.0
C      1  0.4649930000000  0.4398760000000  0.4603490000000 1.0
C      1  0.5527110000000  0.5317830000000  0.4466050000000 1.0
C      1  0.5475970000000  0.5468520000000  0.5341940000000 1.0
C      1  0.5588570000000  0.4637810000000  0.5508350000000 1.0
C      1  0.5512400000000  0.4481410000000  0.4662120000000 1.0
C      1  0.4527330000000  0.4653640000000  0.4521680000000 1.0
C      1  0.4406980000000  0.4494980000000  0.5361590000000 1.0
C      1  0.4496080000000  0.5333450000000  0.5510030000000 1.0
C      1  0.4452480000000  0.5542940000000  0.4692150000000 1.0
C      1  0.5122740000000  0.4891440000000  0.4708030000000 1.0
C      1  0.5037130000000  0.5319320000000  0.4886710000000 1.0
C      1  0.5095210000000  0.4974940000000  0.5325490000000 1.0
C      1  0.5179640000000  0.4723650000000  0.5104800000000 1.0
C      1  0.4938020000000  0.5121250000000  0.4705260000000 1.0
C      1  0.4978880000000  0.4700920000000  0.4892850000000 1.0
C      1  0.4814500000000  0.4911860000000  0.5308740000000 1.0
C      1  0.4813220000000  0.5325100000000  0.5041550000000 1.0
C      1  0.4832280000000  0.5141830000000  0.4434360000000 1.0
C      1  0.4784360000000  0.5593230000000  0.5162070000000 1.0
C      1  0.4754140000000  0.4827900000000  0.5578280000000 1.0
C      1  0.4809720000000  0.4463570000000  0.4848680000000 1.0
C      1  0.5204420000000  0.4829410000000  0.4417470000000 1.0
C      1  0.5252780000000  0.4444620000000  0.5177000000000 1.0
C      1  0.5205360000000  0.5150290000000  0.5559400000000 1.0
C      1  0.5182110000000  0.5570360000000  0.4852770000000 1.0
C      1  0.4869790000000  0.4451500000000  0.4417130000000 1.0
C      1  0.4851210000000  0.5545920000000  0.4445590000000 1.0
C      1  0.4851550000000  0.5548050000000  0.5591470000000 1.0
C      1  0.4857160000000  0.4404980000000  0.5544980000000 1.0
C      1  0.5142830000000  0.5549070000000  0.4447910000000 1.0
C      1  0.5148260000000  0.4408270000000  0.4452730000000 1.0
C      1  0.5147210000000  0.4467880000000  0.5587700000000 1.0
C      1  0.5133310000000  0.5578060000000  0.5546500000000 1.0
C      1  0.5556220000000  0.5096730000000  0.4272590000000 1.0
C      1  0.5560970000000  0.5681170000000  0.5148210000000 1.0
C      1  0.5537360000000  0.4841790000000  0.5705360000000 1.0
C      1  0.5561830000000  0.4282250000000  0.4887970000000 1.0
C      1  0.4446360000000  0.4862450000000  0.4330660000000 1.0
C      1  0.4456730000000  0.4292200000000  0.5157770000000 1.0
C      1  0.4437410000000  0.5124890000000  0.5715150000000 1.0
C      1  0.4434120000000  0.5736090000000  0.4912240000000 1.0
C      1  0.4744390000000  0.5581790000000  0.4703870000000 1.0
C      1  0.4789350000000  0.5268420000000  0.5569770000000 1.0
C      1  0.4844590000000  0.4410970000000  0.5265460000000 1.0
C      1  0.4804290000000  0.4729750000000  0.4444970000000 1.0
C      1  0.5224760000000  0.4425630000000  0.4725100000000 1.0
C      1  0.5157330000000  0.4747720000000  0.5565890000000 1.0
C      1  0.5197440000000  0.5548680000000  0.5264670000000 1.0
C      1  0.5232720000000  0.5281820000000  0.4426790000000 1.0
C      1  0.4725720000000  0.4933300000000  0.4261640000000 1.0
C      1  0.4724160000000  0.5763810000000  0.4933890000000 1.0
C      1  0.4716220000000  0.5058980000000  0.5752760000000 1.0
C      1  0.4738380000000  0.4262070000000  0.5056540000000 1.0
C      1  0.5269780000000  0.5055140000000  0.4250680000000 1.0
C      1  0.5278990000000  0.4257110000000  0.4956510000000 1.0
C      1  0.5265120000000  0.4935400000000  0.5743730000000 1.0
C      1  0.5279330000000  0.5739950000000  0.5064980000000 1.0
C      1  0.5660140000000  0.4920490000000  0.5450260000000 1.0
C      1  0.5641650000000  0.4554520000000  0.4915980000000 1.0
C      1  0.5631530000000  0.5053150000000  0.4549000000000 1.0
C      1  0.5571680000000  0.5484710000000  0.4935270000000 1.0
C      1  0.4367850000000  0.5089280000000  0.5437930000000 1.0
C      1  0.4351790000000  0.5461000000000  0.4952240000000 1.0
C      1  0.4434860000000  0.5096630000000  0.4501790000000 1.0
C      1  0.4339550000000  0.4552180000000  0.5075640000000 1.0
END
