TITL C-2441154-10-968 0.0441553003553208 125000 -25545.6602851935 0 0 184 (C1) n - 1
REM
REM in /home/bkarasulu/work/CARBON/AIRSS/Generating-Clusters/ReaxFF-fromJPCA2015/Units_Real/with-SteepDescent/Higher-Symm
REM
REM
REM
REM
REM
REM ./C.cell (1df0a924f5614ab8850e4351716899ee)
REM
REM compiler GCC version 9.2.1 20190827 (Red Hat 9.2.1-1)
REM options -cpp -mtune=generic -march=x86-64 -g -O0 -fpre-include=/usr/include/finclude/math-vector-fortran.h
REM seed -1927083266 1783009442 179046245 1938001868 -2100456778 1889374504 -1653630979 470102690 684629513 -1228661854 -497216300 -208304090 1789541791 -615688478 -894218423 -820446703 2031707202 1567557364 -1434710274 -187472834 2058761677 -876143327 -2059688622 53921709 1716378123 1983637953 1838160676 -1520161137 -944300639 -594742422 -1872875358 -1598411581 -917586082
REM
CELL 1.54180   50.00000   50.00000   50.00000   90.00000   90.00000   90.00000
LATT -1
SFAC C  
C      1  0.4598570000000  0.5400640000000  0.4118280000000 1.0
C      1  0.4119960000000  0.5400600000000  0.4475380000000 1.0
C      1  0.3915770000000  0.5416220000000  0.5062490000000 1.0
C      1  0.4152280000000  0.5412980000000  0.5589540000000 1.0
C      1  0.4602230000000  0.5407900000000  0.5989680000000 1.0
C      1  0.5223860000000  0.5386820000000  0.6020490000000 1.0
C      1  0.5690960000000  0.5418800000000  0.5697280000000 1.0
C      1  0.6004500000000  0.5393900000000  0.5203040000000 1.0
C      1  0.5915840000000  0.5424590000000  0.4672570000000 1.0
C      1  0.5645750000000  0.5410180000000  0.4164680000000 1.0
C      1  0.5074350000000  0.5409850000000  0.3939890000000 1.0
C      1  0.4382190000000  0.4793550000000  0.5018880000000 1.0
C      1  0.4751800000000  0.4941600000000  0.5124180000000 1.0
C      1  0.4782670000000  0.4868860000000  0.5511320000000 1.0
C      1  0.5063340000000  0.4895790000000  0.5524580000000 1.0
C      1  0.5283270000000  0.4949540000000  0.5348510000000 1.0
C      1  0.5441740000000  0.4812810000000  0.5158530000000 1.0
C      1  0.5445990000000  0.4892630000000  0.4885190000000 1.0
C      1  0.5209320000000  0.4838770000000  0.4502080000000 1.0
C      1  0.4964800000000  0.4946520000000  0.4585240000000 1.0
C      1  0.4752620000000  0.4793400000000  0.4512850000000 1.0
C      1  0.4594630000000  0.4940610000000  0.4918030000000 1.0
C      1  0.5872760000000  0.5143600000000  0.5675530000000 1.0
C      1  0.6000490000000  0.5134580000000  0.5042650000000 1.0
C      1  0.5973350000000  0.5145020000000  0.4508070000000 1.0
C      1  0.5548970000000  0.5147170000000  0.4010160000000 1.0
C      1  0.4913160000000  0.5148130000000  0.3944100000000 1.0
C      1  0.4404960000000  0.5161120000000  0.4081850000000 1.0
C      1  0.3959520000000  0.5160830000000  0.4577570000000 1.0
C      1  0.3909290000000  0.5125450000000  0.5202440000000 1.0
C      1  0.4170580000000  0.5155540000000  0.5769600000000 1.0
C      1  0.4738600000000  0.5143390000000  0.6094760000000 1.0
C      1  0.5362170000000  0.5133830000000  0.5926620000000 1.0
C      1  0.5013190000000  0.5648020000000  0.4444630000000 1.0
C      1  0.4738960000000  0.5579400000000  0.4563460000000 1.0
C      1  0.4518030000000  0.5678420000000  0.4798770000000 1.0
C      1  0.4446800000000  0.5548060000000  0.5074760000000 1.0
C      1  0.4558580000000  0.5668070000000  0.5317400000000 1.0
C      1  0.4747890000000  0.5542770000000  0.5522510000000 1.0
C      1  0.5151460000000  0.5580640000000  0.5538540000000 1.0
C      1  0.5365740000000  0.5715860000000  0.5398470000000 1.0
C      1  0.5517400000000  0.5574120000000  0.5069940000000 1.0
C      1  0.5486570000000  0.5635540000000  0.4781650000000 1.0
C      1  0.5294700000000  0.5539460000000  0.4554360000000 1.0
C      1  0.3902150000000  0.5287240000000  0.4820080000000 1.0
C      1  0.4155820000000  0.5226880000000  0.5353140000000 1.0
C      1  0.4384760000000  0.5266190000000  0.5904590000000 1.0
C      1  0.4990000000000  0.5258700000000  0.6081360000000 1.0
C      1  0.5475840000000  0.5232340000000  0.5673190000000 1.0
C      1  0.5979940000000  0.5252960000000  0.5443650000000 1.0
C      1  0.5797170000000  0.5237960000000  0.4856830000000 1.0
C      1  0.5826950000000  0.5253310000000  0.4303450000000 1.0
C      1  0.5314740000000  0.5274650000000  0.3938600000000 1.0
C      1  0.4815860000000  0.5230370000000  0.4204820000000 1.0
C      1  0.4232990000000  0.5263230000000  0.4275500000000 1.0
C      1  0.4742620000000  0.4451900000000  0.5915950000000 1.0
C      1  0.5271490000000  0.4358140000000  0.5944840000000 1.0
C      1  0.5721140000000  0.4352520000000  0.5673980000000 1.0
C      1  0.5976220000000  0.4429450000000  0.5199420000000 1.0
C      1  0.5945030000000  0.4352390000000  0.4637350000000 1.0
C      1  0.5564600000000  0.4412630000000  0.4234540000000 1.0
C      1  0.5054090000000  0.4320500000000  0.4053640000000 1.0
C      1  0.4542380000000  0.4390150000000  0.4181890000000 1.0
C      1  0.4155050000000  0.4454770000000  0.4557860000000 1.0
C      1  0.4053360000000  0.4449070000000  0.5103750000000 1.0
C      1  0.4289470000000  0.4410250000000  0.5588040000000 1.0
C      1  0.5539430000000  0.4721190000000  0.5812210000000 1.0
C      1  0.5884300000000  0.4769460000000  0.5375600000000 1.0
C      1  0.5883230000000  0.4724510000000  0.4831830000000 1.0
C      1  0.5692760000000  0.4775360000000  0.4336690000000 1.0
C      1  0.5238180000000  0.4763830000000  0.4048610000000 1.0
C      1  0.4706280000000  0.4735400000000  0.4057240000000 1.0
C      1  0.4279720000000  0.4794300000000  0.4376150000000 1.0
C      1  0.3984540000000  0.4749490000000  0.4830340000000 1.0
C      1  0.4112250000000  0.4764980000000  0.5408060000000 1.0
C      1  0.4433670000000  0.4752670000000  0.5834590000000 1.0
C      1  0.4980440000000  0.4783150000000  0.5958440000000 1.0
C      1  0.5683310000000  0.4520450000000  0.4900660000000 1.0
C      1  0.5378460000000  0.4708830000000  0.4684610000000 1.0
C      1  0.5134400000000  0.4670260000000  0.4295660000000 1.0
C      1  0.4864300000000  0.4595440000000  0.4345250000000 1.0
C      1  0.4481480000000  0.4747140000000  0.4575330000000 1.0
C      1  0.4417190000000  0.4606900000000  0.4820270000000 1.0
C      1  0.4372200000000  0.4726910000000  0.5297720000000 1.0
C      1  0.4625960000000  0.4648170000000  0.5442760000000 1.0
C      1  0.5122820000000  0.4621140000000  0.5584000000000 1.0
C      1  0.5408120000000  0.4605490000000  0.5582040000000 1.0
C      1  0.5535690000000  0.4547070000000  0.5138830000000 1.0
C      1  0.5529520000000  0.6066620000000  0.5254240000000 1.0
C      1  0.5586560000000  0.6052370000000  0.4968360000000 1.0
C      1  0.5465220000000  0.6083720000000  0.4677110000000 1.0
C      1  0.5239840000000  0.6028130000000  0.4499580000000 1.0
C      1  0.4939710000000  0.6043240000000  0.4441200000000 1.0
C      1  0.4648430000000  0.6040520000000  0.4556990000000 1.0
C      1  0.4495220000000  0.5972960000000  0.4804080000000 1.0
C      1  0.4513330000000  0.5955280000000  0.5214220000000 1.0
C      1  0.4652780000000  0.6036920000000  0.5462470000000 1.0
C      1  0.4938390000000  0.6018350000000  0.5563060000000 1.0
C      1  0.5259350000000  0.5988830000000  0.5488420000000 1.0
C      1  0.5455810000000  0.4041060000000  0.5176720000000 1.0
C      1  0.5509620000000  0.4014720000000  0.4888500000000 1.0
C      1  0.5312720000000  0.3935430000000  0.4704960000000 1.0
C      1  0.5116730000000  0.3964050000000  0.4521540000000 1.0
C      1  0.4838350000000  0.3820740000000  0.4507720000000 1.0
C      1  0.4646070000000  0.3928800000000  0.4692710000000 1.0
C      1  0.4717550000000  0.3895970000000  0.4977570000000 1.0
C      1  0.4568190000000  0.3990870000000  0.5202480000000 1.0
C      1  0.4728460000000  0.4068300000000  0.5437390000000 1.0
C      1  0.4989690000000  0.3970640000000  0.5436610000000 1.0
C      1  0.5265350000000  0.3970300000000  0.5401530000000 1.0
C      1  0.4981300000000  0.5206570000000  0.4514030000000 1.0
C      1  0.4759020000000  0.5319610000000  0.4637540000000 1.0
C      1  0.4558790000000  0.5197630000000  0.4794510000000 1.0
C      1  0.4512460000000  0.5294000000000  0.5057870000000 1.0
C      1  0.4642700000000  0.5160590000000  0.5269300000000 1.0
C      1  0.4821140000000  0.5263610000000  0.5484880000000 1.0
C      1  0.5091880000000  0.5328580000000  0.5439620000000 1.0
C      1  0.5335240000000  0.5205760000000  0.5362880000000 1.0
C      1  0.5432850000000  0.5300660000000  0.5098650000000 1.0
C      1  0.5448480000000  0.5177580000000  0.4827740000000 1.0
C      1  0.5260140000000  0.5276620000000  0.4609540000000 1.0
C      1  0.4335880000000  0.5646090000000  0.5552460000000 1.0
C      1  0.4738170000000  0.5611190000000  0.5804510000000 1.0
C      1  0.5223120000000  0.5626210000000  0.5826730000000 1.0
C      1  0.5628600000000  0.5650930000000  0.5525080000000 1.0
C      1  0.5812940000000  0.5609670000000  0.5116180000000 1.0
C      1  0.5744220000000  0.5671210000000  0.4659100000000 1.0
C      1  0.5455100000000  0.5596800000000  0.4290340000000 1.0
C      1  0.5011700000000  0.5647530000000  0.4155150000000 1.0
C      1  0.4558720000000  0.5618620000000  0.4311990000000 1.0
C      1  0.4247390000000  0.5646540000000  0.4650960000000 1.0
C      1  0.4136410000000  0.5623560000000  0.5113330000000 1.0
C      1  0.4743330000000  0.4373320000000  0.5397900000000 1.0
C      1  0.5019420000000  0.4406330000000  0.5441820000000 1.0
C      1  0.5261500000000  0.4265670000000  0.5453860000000 1.0
C      1  0.5436900000000  0.4309830000000  0.5248790000000 1.0
C      1  0.5559140000000  0.4292190000000  0.4777190000000 1.0
C      1  0.5340140000000  0.4419700000000  0.4663630000000 1.0
C      1  0.5109860000000  0.4265010000000  0.4556860000000 1.0
C      1  0.4845210000000  0.4363350000000  0.4512040000000 1.0
C      1  0.4599590000000  0.4241460000000  0.4623370000000 1.0
C      1  0.4497870000000  0.4347220000000  0.4882350000000 1.0
C      1  0.4457980000000  0.4237060000000  0.5141100000000 1.0
C      1  0.4446920000000  0.4465700000000  0.5825580000000 1.0
C      1  0.5001690000000  0.4374520000000  0.5952720000000 1.0
C      1  0.5552150000000  0.4407140000000  0.5902480000000 1.0
C      1  0.5866170000000  0.4366630000000  0.5442370000000 1.0
C      1  0.6042310000000  0.4345300000000  0.4926900000000 1.0
C      1  0.5772650000000  0.4387280000000  0.4412920000000 1.0
C      1  0.5322430000000  0.4348660000000  0.4110730000000 1.0
C      1  0.4782070000000  0.4342650000000  0.4054610000000 1.0
C      1  0.4373150000000  0.4340020000000  0.4410920000000 1.0
C      1  0.4003710000000  0.4458670000000  0.4814600000000 1.0
C      1  0.4222530000000  0.4332730000000  0.5306380000000 1.0
C      1  0.3969070000000  0.4849580000000  0.5148690000000 1.0
C      1  0.4217370000000  0.4873690000000  0.5677460000000 1.0
C      1  0.4707140000000  0.4868300000000  0.5971190000000 1.0
C      1  0.5253910000000  0.4863630000000  0.5937480000000 1.0
C      1  0.5779140000000  0.4863930000000  0.5624180000000 1.0
C      1  0.5966190000000  0.4846180000000  0.5103800000000 1.0
C      1  0.5861360000000  0.4862420000000  0.4558220000000 1.0
C      1  0.5515210000000  0.4874070000000  0.4126130000000 1.0
C      1  0.4962990000000  0.4859020000000  0.3961830000000 1.0
C      1  0.4456420000000  0.4873170000000  0.4136160000000 1.0
C      1  0.4053860000000  0.4871560000000  0.4573160000000 1.0
C      1  0.4209000000000  0.5893820000000  0.5185270000000 1.0
C      1  0.4419430000000  0.5913910000000  0.5633040000000 1.0
C      1  0.4843960000000  0.5899620000000  0.5819660000000 1.0
C      1  0.5308990000000  0.5906630000000  0.5778820000000 1.0
C      1  0.5728010000000  0.5928060000000  0.5429220000000 1.0
C      1  0.5802590000000  0.5874230000000  0.5019360000000 1.0
C      1  0.5651340000000  0.5926760000000  0.4510390000000 1.0
C      1  0.5436480000000  0.5883630000000  0.4310180000000 1.0
C      1  0.4931300000000  0.5936420000000  0.4150340000000 1.0
C      1  0.4495480000000  0.5908010000000  0.4331080000000 1.0
C      1  0.4193770000000  0.5923040000000  0.4712350000000 1.0
C      1  0.5006400000000  0.4380360000000  0.4963200000000 1.0
C      1  0.5036230000000  0.4628710000000  0.4981250000000 1.0
C      1  0.4998910000000  0.5943200000000  0.5001340000000 1.0
C      1  0.5067270000000  0.5185150000000  0.4985610000000 1.0
C      1  0.5013830000000  0.5699510000000  0.4999190000000 1.0
C      1  0.5040570000000  0.5440840000000  0.4992410000000 1.0
C      1  0.4942590000000  0.4097520000000  0.4958520000000 1.0
C      1  0.5019130000000  0.4905560000000  0.5049630000000 1.0
END
