TITL C-2441154-10-1234 -1.43250282288877e-08 125000 -1347.43745939291 0 0 10 (D(inf)h) n - 1
REM
REM in /home/bkarasulu/work/CARBON/AIRSS/Generating-Clusters/ReaxFF-fromJPCA2015/Units_Real/with-SteepDescent/Higher-Symm
REM
REM
REM
REM
REM
REM ./C.cell (1df0a924f5614ab8850e4351716899ee)
REM
REM compiler GCC version 9.2.1 20190827 (Red Hat 9.2.1-1)
REM options -cpp -mtune=generic -march=x86-64 -g -O0 -fpre-include=/usr/include/finclude/math-vector-fortran.h
REM seed -1777873626 -424298473 1155451768 -1473300318 -1561296798 736647151 240768101 -443513342 -1485147890 302529564 -1951835737 547069214 980872884 1881100230 -411858866 1600828355 -2103177066 1489807822 -1351626791 14970048 -605363482 573468285 -1480178020 -53912954 1213947639 1438548233 -1102050072 -1644511283 1874150508 955767572 1636669904 -1282746438 1151766165
REM
CELL 1.54180   50.00000   50.00000   50.00000   90.00000   90.00000   90.00000
LATT -1
SFAC C  
C      1  0.5632470000000  0.5013190000000  0.4989060000000 1.0
C      1  0.4620210000000  0.5013190000000  0.4989060000000 1.0
C      1  0.6134100000000  0.5013190000000  0.4989060000000 1.0
C      1  0.4367530000000  0.5013190000000  0.4989060000000 1.0
C      1  0.3865900000000  0.5013190000000  0.4989060000000 1.0
C      1  0.5379790000000  0.5013190000000  0.4989060000000 1.0
C      1  0.5126560000000  0.5013190000000  0.4989060000000 1.0
C      1  0.4873440000000  0.5013190000000  0.4989060000000 1.0
C      1  0.4110050000000  0.5013190000000  0.4989060000000 1.0
C      1  0.5889950000000  0.5013190000000  0.4989060000000 1.0
END
