TITL C-2441167-4473-43 0.0061732127244183 125000 -6156.8747209657 0 0 44 (C1) n - 1
REM
REM in /home/bkarasulu/work/CARBON/AIRSS/Generating-Clusters/ReaxFF-fromJPCA2015/Units_Real/with-SteepDescent/Higher-Symm
REM
REM
REM
REM
REM
REM ./C.cell (1df0a924f5614ab8850e4351716899ee)
REM
REM compiler GCC version 9.2.1 20190827 (Red Hat 9.2.1-1)
REM options -cpp -mtune=generic -march=x86-64 -g -O0 -fpre-include=/usr/include/finclude/math-vector-fortran.h
REM seed -1854079681 745874643 1305813978 -1455689584 2038401965 2052346043 -1385754918 2117040643 -366112497 -928541391 501625368 966583555 256062590 -14844365 -1210179939 -424081945 -1734795865 -212072344 -1759475318 1470493245 1030720140 -1333737809 -460461335 -1639012614 1977527646 1184394168 743642080 1342866520 -566794990 -1316783142 -155842890 -355328414 -84761512
REM
CELL 1.54180   50.00000   50.00000   50.00000   90.00000   90.00000   90.00000
LATT -1
SFAC C  
C      1  0.4565570000000  0.4590790000000  0.4700410000000 1.0
C      1  0.5478750000000  0.4595700000000  0.4790870000000 1.0
C      1  0.5002150000000  0.4558200000000  0.5459260000000 1.0
C      1  0.5367570000000  0.4997320000000  0.4405230000000 1.0
C      1  0.5276100000000  0.4921110000000  0.5684170000000 1.0
C      1  0.4292770000000  0.4971890000000  0.4984600000000 1.0
C      1  0.5557120000000  0.4801050000000  0.5283220000000 1.0
C      1  0.4464870000000  0.4837960000000  0.5443950000000 1.0
C      1  0.4922950000000  0.4788130000000  0.4360040000000 1.0
C      1  0.5416990000000  0.4870400000000  0.4669370000000 1.0
C      1  0.4986550000000  0.4836200000000  0.5562520000000 1.0
C      1  0.4512910000000  0.4868370000000  0.4816990000000 1.0
C      1  0.5185610000000  0.4950180000000  0.4818300000000 1.0
C      1  0.5096950000000  0.4946570000000  0.5298670000000 1.0
C      1  0.4752930000000  0.4961140000000  0.4949100000000 1.0
C      1  0.5541470000000  0.4698780000000  0.5049220000000 1.0
C      1  0.4686010000000  0.4972120000000  0.5510310000000 1.0
C      1  0.4742320000000  0.4690640000000  0.4505740000000 1.0
C      1  0.5477300000000  0.5234260000000  0.5399060000000 1.0
C      1  0.4321790000000  0.5146690000000  0.5212450000000 1.0
C      1  0.5167090000000  0.5199930000000  0.4335040000000 1.0
C      1  0.4684600000000  0.5630010000000  0.5133520000000 1.0
C      1  0.5108470000000  0.5644710000000  0.4796340000000 1.0
C      1  0.5179190000000  0.5650450000000  0.5085400000000 1.0
C      1  0.4686590000000  0.5478150000000  0.4894570000000 1.0
C      1  0.5323450000000  0.5448230000000  0.4757260000000 1.0
C      1  0.5041800000000  0.5482090000000  0.5288090000000 1.0
C      1  0.4867490000000  0.5540420000000  0.4662290000000 1.0
C      1  0.5454740000000  0.5544990000000  0.5011690000000 1.0
C      1  0.4755730000000  0.5503650000000  0.5373590000000 1.0
C      1  0.4730530000000  0.4411560000000  0.4864550000000 1.0
C      1  0.5246990000000  0.4419860000000  0.4824910000000 1.0
C      1  0.5016970000000  0.4335530000000  0.5315890000000 1.0
C      1  0.5514310000000  0.4949260000000  0.5530650000000 1.0
C      1  0.4247530000000  0.4872650000000  0.5267800000000 1.0
C      1  0.5134380000000  0.4921930000000  0.4237280000000 1.0
C      1  0.4605670000000  0.5219380000000  0.5348970000000 1.0
C      1  0.4959760000000  0.5303430000000  0.4517170000000 1.0
C      1  0.5589390000000  0.5379050000000  0.5197010000000 1.0
C      1  0.5123360000000  0.5227420000000  0.4751910000000 1.0
C      1  0.5184280000000  0.5223740000000  0.5333360000000 1.0
C      1  0.4730100000000  0.5228840000000  0.5054010000000 1.0
C      1  0.4999060000000  0.4467260000000  0.4993510000000 1.0
C      1  0.5011420000000  0.4819100000000  0.5032950000000 1.0
END
