TITL C-2441158-471-704 0.129415164100329 125000 -23523.116939566 0 0 181 (C1) n - 1
REM
REM in /home/bkarasulu/work/CARBON/AIRSS/Generating-Clusters/ReaxFF-fromJPCA2015/Units_Real/with-SteepDescent/Higher-Symm
REM
REM
REM
REM
REM
REM ./C.cell (1df0a924f5614ab8850e4351716899ee)
REM
REM compiler GCC version 9.2.1 20190827 (Red Hat 9.2.1-1)
REM options -cpp -mtune=generic -march=x86-64 -g -O0 -fpre-include=/usr/include/finclude/math-vector-fortran.h
REM seed -833541117 118714093 1398648021 -669189432 -226856840 -1438100949 887004291 -1587730714 -998138809 -682153095 -2008856456 -473849156 415314928 769959139 1214245149 -406044688 1207755288 2080195341 -845132153 -1944059863 2004644911 773226237 -923266472 -1788450600 -945132879 218091642 859594760 609336348 2132080453 -2011463152 2070467943 62204836 -1346140544
REM
CELL 1.54180   50.00000   50.00000   50.00000   90.00000   90.00000   90.00000
LATT -1
SFAC C  
C      1  0.4686140000000  0.6065380000000  0.5184030000000 1.0
C      1  0.4752350000000  0.6091710000000  0.4896010000000 1.0
C      1  0.4895050000000  0.6023190000000  0.4645190000000 1.0
C      1  0.5176300000000  0.6043970000000  0.4736750000000 1.0
C      1  0.5332430000000  0.6045700000000  0.4970850000000 1.0
C      1  0.5248980000000  0.6087520000000  0.5239370000000 1.0
C      1  0.4963760000000  0.6114930000000  0.5254560000000 1.0
C      1  0.5609070000000  0.4626800000000  0.4134080000000 1.0
C      1  0.6060100000000  0.4620400000000  0.4936880000000 1.0
C      1  0.5694350000000  0.4603350000000  0.5791030000000 1.0
C      1  0.4831940000000  0.4627070000000  0.6037210000000 1.0
C      1  0.4049270000000  0.4627210000000  0.5505160000000 1.0
C      1  0.4049160000000  0.4613900000000  0.4588680000000 1.0
C      1  0.4707050000000  0.4650030000000  0.3968350000000 1.0
C      1  0.5514060000000  0.4857720000000  0.4516760000000 1.0
C      1  0.5711920000000  0.4849920000000  0.5115210000000 1.0
C      1  0.5372200000000  0.4856370000000  0.5633440000000 1.0
C      1  0.4701740000000  0.4839530000000  0.5646400000000 1.0
C      1  0.4285080000000  0.4829400000000  0.5196870000000 1.0
C      1  0.4435350000000  0.4800970000000  0.4543880000000 1.0
C      1  0.4916110000000  0.4862920000000  0.4279060000000 1.0
C      1  0.4580030000000  0.5836300000000  0.4470090000000 1.0
C      1  0.5100860000000  0.5833880000000  0.4331820000000 1.0
C      1  0.5739520000000  0.5717580000000  0.4643370000000 1.0
C      1  0.5502140000000  0.5856410000000  0.5295630000000 1.0
C      1  0.5139700000000  0.5815880000000  0.5666840000000 1.0
C      1  0.4500040000000  0.5717660000000  0.5608140000000 1.0
C      1  0.4379990000000  0.5827140000000  0.5018070000000 1.0
C      1  0.5848470000000  0.5015440000000  0.4323230000000 1.0
C      1  0.6046850000000  0.5033310000000  0.5224590000000 1.0
C      1  0.5396900000000  0.4993380000000  0.6020700000000 1.0
C      1  0.4527030000000  0.5017140000000  0.5972810000000 1.0
C      1  0.3928310000000  0.5032960000000  0.5252740000000 1.0
C      1  0.4203690000000  0.4988330000000  0.4179390000000 1.0
C      1  0.5030900000000  0.5003920000000  0.3905940000000 1.0
C      1  0.5235480000000  0.4068610000000  0.5526310000000 1.0
C      1  0.4743880000000  0.4120960000000  0.5505530000000 1.0
C      1  0.4387970000000  0.4095420000000  0.5102040000000 1.0
C      1  0.4663940000000  0.4064010000000  0.4691290000000 1.0
C      1  0.5019220000000  0.4072920000000  0.4369260000000 1.0
C      1  0.5440350000000  0.4138510000000  0.4655130000000 1.0
C      1  0.5562810000000  0.4090780000000  0.5177040000000 1.0
C      1  0.3973170000000  0.4718200000000  0.5236470000000 1.0
C      1  0.4258110000000  0.4635790000000  0.4368940000000 1.0
C      1  0.4998490000000  0.4708250000000  0.3975890000000 1.0
C      1  0.5782590000000  0.4722630000000  0.4361960000000 1.0
C      1  0.5987160000000  0.4705730000000  0.5219740000000 1.0
C      1  0.5412140000000  0.4673650000000  0.5890610000000 1.0
C      1  0.4556580000000  0.4710550000000  0.5917290000000 1.0
C      1  0.5117200000000  0.5026380000000  0.4768720000000 1.0
C      1  0.5383600000000  0.5212800000000  0.4896040000000 1.0
C      1  0.5323160000000  0.5179350000000  0.5204310000000 1.0
C      1  0.5034460000000  0.5032640000000  0.5259360000000 1.0
C      1  0.4785510000000  0.5213030000000  0.5341040000000 1.0
C      1  0.4703250000000  0.5143220000000  0.4866130000000 1.0
C      1  0.4881080000000  0.5166860000000  0.4648740000000 1.0
C      1  0.4352120000000  0.5238050000000  0.4248770000000 1.0
C      1  0.5158900000000  0.5222160000000  0.4067200000000 1.0
C      1  0.5841930000000  0.5233930000000  0.4535960000000 1.0
C      1  0.5882020000000  0.5218050000000  0.5364660000000 1.0
C      1  0.5246610000000  0.5236140000000  0.5941060000000 1.0
C      1  0.4432200000000  0.5246910000000  0.5795790000000 1.0
C      1  0.4045000000000  0.5234580000000  0.5070120000000 1.0
C      1  0.4186970000000  0.4265780000000  0.5234540000000 1.0
C      1  0.4335350000000  0.4287450000000  0.4617720000000 1.0
C      1  0.4953500000000  0.4260080000000  0.4161910000000 1.0
C      1  0.5566310000000  0.4299820000000  0.4449690000000 1.0
C      1  0.5783550000000  0.4259750000000  0.5070720000000 1.0
C      1  0.5415850000000  0.4254950000000  0.5663430000000 1.0
C      1  0.4713990000000  0.4311030000000  0.5745210000000 1.0
C      1  0.4122330000000  0.4876390000000  0.5627750000000 1.0
C      1  0.3973840000000  0.4887140000000  0.4642170000000 1.0
C      1  0.4534440000000  0.4875540000000  0.4013260000000 1.0
C      1  0.5486670000000  0.4876800000000  0.4048830000000 1.0
C      1  0.6053850000000  0.4879230000000  0.4805310000000 1.0
C      1  0.5800030000000  0.4868950000000  0.5769720000000 1.0
C      1  0.4988280000000  0.4870400000000  0.6049200000000 1.0
C      1  0.4437100000000  0.4585840000000  0.5247230000000 1.0
C      1  0.4592350000000  0.4690360000000  0.4750280000000 1.0
C      1  0.4837560000000  0.4612760000000  0.4373300000000 1.0
C      1  0.5338210000000  0.4624040000000  0.4615250000000 1.0
C      1  0.5531420000000  0.4617620000000  0.5083040000000 1.0
C      1  0.5262660000000  0.4672550000000  0.5449610000000 1.0
C      1  0.4783000000000  0.4664260000000  0.5430250000000 1.0
C      1  0.5292350000000  0.5678720000000  0.5234200000000 1.0
C      1  0.4946990000000  0.5729740000000  0.5459650000000 1.0
C      1  0.4683820000000  0.5844060000000  0.5412030000000 1.0
C      1  0.4601720000000  0.5669510000000  0.4915360000000 1.0
C      1  0.4757330000000  0.5726050000000  0.4667750000000 1.0
C      1  0.5233110000000  0.5779330000000  0.4593410000000 1.0
C      1  0.5479580000000  0.5748360000000  0.4782790000000 1.0
C      1  0.4666280000000  0.4692200000000  0.5180350000000 1.0
C      1  0.4657670000000  0.4872380000000  0.4954730000000 1.0
C      1  0.4848230000000  0.4610560000000  0.4640980000000 1.0
C      1  0.5088950000000  0.4759450000000  0.4660430000000 1.0
C      1  0.5440860000000  0.4608940000000  0.4845420000000 1.0
C      1  0.5305450000000  0.4714220000000  0.5193770000000 1.0
C      1  0.5025320000000  0.4803950000000  0.5448950000000 1.0
C      1  0.5245730000000  0.4433940000000  0.5841410000000 1.0
C      1  0.4484560000000  0.4464890000000  0.5744620000000 1.0
C      1  0.4068340000000  0.4455110000000  0.5061580000000 1.0
C      1  0.4415420000000  0.4395140000000  0.4357430000000 1.0
C      1  0.5154350000000  0.4440960000000  0.4095090000000 1.0
C      1  0.5785570000000  0.4453660000000  0.4549830000000 1.0
C      1  0.5830280000000  0.4463760000000  0.5319680000000 1.0
C      1  0.4673770000000  0.5015110000000  0.4265560000000 1.0
C      1  0.5354320000000  0.4944710000000  0.4306570000000 1.0
C      1  0.5776340000000  0.4933220000000  0.4864330000000 1.0
C      1  0.5616830000000  0.4994090000000  0.5554640000000 1.0
C      1  0.4962980000000  0.4937880000000  0.5748260000000 1.0
C      1  0.4342820000000  0.4947590000000  0.5452920000000 1.0
C      1  0.4194910000000  0.5048620000000  0.4739810000000 1.0
C      1  0.4963390000000  0.5282690000000  0.6019440000000 1.0
C      1  0.4164310000000  0.5314670000000  0.5656750000000 1.0
C      1  0.4058900000000  0.5294850000000  0.4769790000000 1.0
C      1  0.4663060000000  0.5253330000000  0.4095410000000 1.0
C      1  0.5449170000000  0.5284260000000  0.4110330000000 1.0
C      1  0.6042680000000  0.5316920000000  0.4758160000000 1.0
C      1  0.5653780000000  0.5251000000000  0.5705390000000 1.0
C      1  0.5267970000000  0.5417650000000  0.5385190000000 1.0
C      1  0.4967320000000  0.5434870000000  0.5471150000000 1.0
C      1  0.4588850000000  0.5395940000000  0.5221260000000 1.0
C      1  0.4577440000000  0.5387740000000  0.4943670000000 1.0
C      1  0.4882860000000  0.5429890000000  0.4513180000000 1.0
C      1  0.5145170000000  0.5487990000000  0.4620860000000 1.0
C      1  0.5493310000000  0.5488190000000  0.4920460000000 1.0
C      1  0.5852250000000  0.5509970000000  0.5313190000000 1.0
C      1  0.5319500000000  0.5628910000000  0.5822730000000 1.0
C      1  0.4583480000000  0.5515320000000  0.5789630000000 1.0
C      1  0.4157470000000  0.5636320000000  0.5112560000000 1.0
C      1  0.4320690000000  0.5516810000000  0.4380520000000 1.0
C      1  0.5045540000000  0.5618270000000  0.4120720000000 1.0
C      1  0.5709050000000  0.5501920000000  0.4458790000000 1.0
C      1  0.4567510000000  0.4105610000000  0.5296850000000 1.0
C      1  0.4469080000000  0.4133940000000  0.4796870000000 1.0
C      1  0.4897250000000  0.4143980000000  0.4614580000000 1.0
C      1  0.5171500000000  0.4118530000000  0.4595860000000 1.0
C      1  0.5535530000000  0.4176130000000  0.4917990000000 1.0
C      1  0.5385650000000  0.4192970000000  0.5366080000000 1.0
C      1  0.5003080000000  0.4070760000000  0.5395000000000 1.0
C      1  0.4776400000000  0.5076100000000  0.6102010000000 1.0
C      1  0.3983370000000  0.5121520000000  0.5527960000000 1.0
C      1  0.4000130000000  0.4956650000000  0.4368360000000 1.0
C      1  0.4741930000000  0.5054370000000  0.3881300000000 1.0
C      1  0.5679080000000  0.5095200000000  0.4104460000000 1.0
C      1  0.6134720000000  0.5120270000000  0.4959460000000 1.0
C      1  0.5662710000000  0.5071320000000  0.5934830000000 1.0
C      1  0.5613880000000  0.5069420000000  0.5280910000000 1.0
C      1  0.5196600000000  0.5097890000000  0.5684730000000 1.0
C      1  0.4577830000000  0.5072710000000  0.5535300000000 1.0
C      1  0.4265160000000  0.5045240000000  0.5010160000000 1.0
C      1  0.4475760000000  0.5080380000000  0.4490720000000 1.0
C      1  0.5111930000000  0.5083690000000  0.4329130000000 1.0
C      1  0.5594110000000  0.5073900000000  0.4714380000000 1.0
C      1  0.4171920000000  0.5731100000000  0.4836700000000 1.0
C      1  0.4536640000000  0.5669310000000  0.4258940000000 1.0
C      1  0.5295260000000  0.5684450000000  0.4207560000000 1.0
C      1  0.5951220000000  0.5588560000000  0.4807870000000 1.0
C      1  0.5665610000000  0.5680740000000  0.5454440000000 1.0
C      1  0.5056020000000  0.5677670000000  0.5876840000000 1.0
C      1  0.4239210000000  0.5576790000000  0.5556190000000 1.0
C      1  0.5700580000000  0.4429350000000  0.5562730000000 1.0
C      1  0.4962520000000  0.4413450000000  0.5895690000000 1.0
C      1  0.4295460000000  0.4453380000000  0.5488770000000 1.0
C      1  0.4158590000000  0.4449590000000  0.4792210000000 1.0
C      1  0.4679040000000  0.4431560000000  0.4198320000000 1.0
C      1  0.5426950000000  0.4416610000000  0.4205540000000 1.0
C      1  0.5889510000000  0.4424660000000  0.4813360000000 1.0
C      1  0.4328600000000  0.5482780000000  0.5289760000000 1.0
C      1  0.4225670000000  0.5506650000000  0.4655750000000 1.0
C      1  0.4801120000000  0.5480590000000  0.4216780000000 1.0
C      1  0.5442990000000  0.5474550000000  0.4336100000000 1.0
C      1  0.5767100000000  0.5507990000000  0.5029590000000 1.0
C      1  0.5494540000000  0.5485870000000  0.5625980000000 1.0
C      1  0.4872390000000  0.5472160000000  0.5810530000000 1.0
C      1  0.4999340000000  0.4554690000000  0.5009480000000 1.0
C      1  0.5044220000000  0.5710690000000  0.5057080000000 1.0
C      1  0.4983890000000  0.4320390000000  0.5025610000000 1.0
C      1  0.4987730000000  0.4038550000000  0.5079560000000 1.0
C      1  0.5033940000000  0.5457760000000  0.4895730000000 1.0
C      1  0.5088050000000  0.4833400000000  0.5049770000000 1.0
END
