TITL C-2441169-1362-1393 0.233359726780056 125000 -24028.8215685711 0 0 199 (C1) n - 1
REM
REM in /home/bkarasulu/work/CARBON/AIRSS/Generating-Clusters/ReaxFF-fromJPCA2015/Units_Real/with-SteepDescent/Higher-Symm
REM
REM
REM
REM
REM
REM ./C.cell (1df0a924f5614ab8850e4351716899ee)
REM
REM compiler GCC version 9.2.1 20190827 (Red Hat 9.2.1-1)
REM options -cpp -mtune=generic -march=x86-64 -g -O0 -fpre-include=/usr/include/finclude/math-vector-fortran.h
REM seed 1347973715 -1893936513 -356593858 1216500703 464199277 342358292 -1601058176 1484860661 1020717747 1204913065 -2010339824 -1774557084 -940511756 -50020612 -413960094 2009746569 805657756 -678210761 1600903418 -233448739 1951332516 -559891523 -45339645 238407894 1740730254 -214092725 1457603057 1340236540 1975502148 521879231 -2145460365 2028341103 -863379645
REM
CELL 1.54180   50.00000   50.00000   50.00000   90.00000   90.00000   90.00000
LATT -1
SFAC C  
C      1  0.5413810000000  0.5943550000000  0.4494250000000 1.0
C      1  0.4605010000000  0.4444190000000  0.4081460000000 1.0
C      1  0.5411390000000  0.4066860000000  0.5515790000000 1.0
C      1  0.4589640000000  0.5499430000000  0.5914090000000 1.0
C      1  0.5624050000000  0.4144430000000  0.5326310000000 1.0
C      1  0.4402640000000  0.5295880000000  0.5796060000000 1.0
C      1  0.5617760000000  0.5841880000000  0.4691060000000 1.0
C      1  0.4379140000000  0.4619100000000  0.4211440000000 1.0
C      1  0.3882950000000  0.5511610000000  0.5029770000000 1.0
C      1  0.6063190000000  0.4939550000000  0.4470070000000 1.0
C      1  0.3927520000000  0.4427010000000  0.5038450000000 1.0
C      1  0.6063750000000  0.5037690000000  0.5534150000000 1.0
C      1  0.4286600000000  0.4435520000000  0.4430280000000 1.0
C      1  0.5646630000000  0.4467260000000  0.5571870000000 1.0
C      1  0.4363920000000  0.5649950000000  0.5525400000000 1.0
C      1  0.5665040000000  0.5549650000000  0.4422290000000 1.0
C      1  0.5646390000000  0.4517300000000  0.4226630000000 1.0
C      1  0.4371000000000  0.4215980000000  0.5515050000000 1.0
C      1  0.5647410000000  0.5501110000000  0.5784390000000 1.0
C      1  0.4356510000000  0.5751980000000  0.4557940000000 1.0
C      1  0.5502170000000  0.4176060000000  0.4562430000000 1.0
C      1  0.4500310000000  0.4581340000000  0.5820230000000 1.0
C      1  0.5505240000000  0.5826600000000  0.5435900000000 1.0
C      1  0.4515770000000  0.5482350000000  0.4173820000000 1.0
C      1  0.4882850000000  0.5116880000000  0.6129550000000 1.0
C      1  0.5115470000000  0.6121810000000  0.4898140000000 1.0
C      1  0.4797960000000  0.4898040000000  0.3956790000000 1.0
C      1  0.5100920000000  0.3882170000000  0.5122860000000 1.0
C      1  0.5255000000000  0.5598190000000  0.4107710000000 1.0
C      1  0.4769870000000  0.4063410000000  0.4426050000000 1.0
C      1  0.5248420000000  0.4428320000000  0.5897160000000 1.0
C      1  0.4769570000000  0.5915560000000  0.5584120000000 1.0
C      1  0.5309690000000  0.5225500000000  0.4308700000000 1.0
C      1  0.4642930000000  0.4253100000000  0.4802080000000 1.0
C      1  0.5322260000000  0.4782780000000  0.5678350000000 1.0
C      1  0.4712980000000  0.5716360000000  0.5212620000000 1.0
C      1  0.4172730000000  0.4396240000000  0.5429830000000 1.0
C      1  0.5839850000000  0.5433280000000  0.5580860000000 1.0
C      1  0.4153260000000  0.5548270000000  0.4583400000000 1.0
C      1  0.5853820000000  0.4583000000000  0.4420350000000 1.0
C      1  0.4745090000000  0.5627710000000  0.4956580000000 1.0
C      1  0.5328940000000  0.4901320000000  0.4404820000000 1.0
C      1  0.4692750000000  0.4369020000000  0.5043850000000 1.0
C      1  0.5278080000000  0.5125630000000  0.5542800000000 1.0
C      1  0.5657860000000  0.4795260000000  0.4805230000000 1.0
C      1  0.4210020000000  0.4916310000000  0.5267200000000 1.0
C      1  0.5639270000000  0.5224890000000  0.5218930000000 1.0
C      1  0.4217730000000  0.5125650000000  0.4749240000000 1.0
C      1  0.4541460000000  0.4982590000000  0.4090740000000 1.0
C      1  0.5264140000000  0.4107750000000  0.5045620000000 1.0
C      1  0.4711820000000  0.5040250000000  0.5904830000000 1.0
C      1  0.5291090000000  0.5896030000000  0.4959990000000 1.0
C      1  0.5358970000000  0.5478770000000  0.4979800000000 1.0
C      1  0.4633350000000  0.4852330000000  0.4570410000000 1.0
C      1  0.5389670000000  0.4517310000000  0.5087970000000 1.0
C      1  0.4744120000000  0.5008230000000  0.5447380000000 1.0
C      1  0.4104980000000  0.5314350000000  0.4417030000000 1.0
C      1  0.5897130000000  0.4459480000000  0.4688550000000 1.0
C      1  0.4113090000000  0.4647090000000  0.5555170000000 1.0
C      1  0.5902650000000  0.5544420000000  0.5315230000000 1.0
C      1  0.4743820000000  0.6007220000000  0.5303070000000 1.0
C      1  0.5297520000000  0.5316530000000  0.4027540000000 1.0
C      1  0.4735610000000  0.3993680000000  0.4722690000000 1.0
C      1  0.5261730000000  0.4716810000000  0.5973150000000 1.0
C      1  0.4589200000000  0.5705860000000  0.5706450000000 1.0
C      1  0.5438020000000  0.5715720000000  0.4313420000000 1.0
C      1  0.4625330000000  0.4254400000000  0.4281970000000 1.0
C      1  0.5430940000000  0.4298280000000  0.5687380000000 1.0
C      1  0.5623340000000  0.4710300000000  0.5088050000000 1.0
C      1  0.4299320000000  0.5192290000000  0.5278240000000 1.0
C      1  0.5636560000000  0.5308630000000  0.4936170000000 1.0
C      1  0.4411730000000  0.4938280000000  0.4699080000000 1.0
C      1  0.5162170000000  0.4958300000000  0.6109830000000 1.0
C      1  0.4815800000000  0.6140590000000  0.5057370000000 1.0
C      1  0.5166500000000  0.5071580000000  0.3933180000000 1.0
C      1  0.4833690000000  0.3877920000000  0.4977490000000 1.0
C      1  0.4825980000000  0.4563370000000  0.4960830000000 1.0
C      1  0.5023330000000  0.5080840000000  0.5398970000000 1.0
C      1  0.4878850000000  0.5404000000000  0.4956850000000 1.0
C      1  0.5115380000000  0.4980710000000  0.4607920000000 1.0
C      1  0.4215450000000  0.4800540000000  0.5008850000000 1.0
C      1  0.5798970000000  0.4977390000000  0.5229700000000 1.0
C      1  0.4164350000000  0.5244450000000  0.4994820000000 1.0
C      1  0.5816570000000  0.5040070000000  0.4789980000000 1.0
C      1  0.5178030000000  0.4718470000000  0.4733220000000 1.0
C      1  0.4896640000000  0.4729940000000  0.5161350000000 1.0
C      1  0.5095800000000  0.5143050000000  0.5128800000000 1.0
C      1  0.4795780000000  0.5296470000000  0.4698100000000 1.0
C      1  0.5057620000000  0.4080320000000  0.4354800000000 1.0
C      1  0.4964040000000  0.4366770000000  0.5920610000000 1.0
C      1  0.5055280000000  0.5884550000000  0.5601220000000 1.0
C      1  0.4967290000000  0.5650050000000  0.4092060000000 1.0
C      1  0.4833950000000  0.5400990000000  0.6050020000000 1.0
C      1  0.5165320000000  0.6058740000000  0.4589910000000 1.0
C      1  0.4827860000000  0.4605850000000  0.3976810000000 1.0
C      1  0.5157540000000  0.3944890000000  0.5406860000000 1.0
C      1  0.3939910000000  0.5078380000000  0.4708940000000 1.0
C      1  0.6043890000000  0.4635350000000  0.4876300000000 1.0
C      1  0.3941820000000  0.4820990000000  0.5347440000000 1.0
C      1  0.6045030000000  0.5359380000000  0.5128810000000 1.0
C      1  0.5356420000000  0.5156510000000  0.6017590000000 1.0
C      1  0.4644060000000  0.6043860000000  0.4849980000000 1.0
C      1  0.5340880000000  0.4835880000000  0.3979950000000 1.0
C      1  0.4656610000000  0.3986900000000  0.5181060000000 1.0
C      1  0.4079780000000  0.5028000000000  0.4321940000000 1.0
C      1  0.5981190000000  0.4275810000000  0.5063620000000 1.0
C      1  0.4010290000000  0.5133770000000  0.5611100000000 1.0
C      1  0.5987420000000  0.5716730000000  0.4937230000000 1.0
C      1  0.4285340000000  0.4772030000000  0.5739740000000 1.0
C      1  0.5703790000000  0.5751450000000  0.5234110000000 1.0
C      1  0.4396780000000  0.5298050000000  0.4366940000000 1.0
C      1  0.5691690000000  0.4259970000000  0.4772890000000 1.0
C      1  0.5203350000000  0.4666660000000  0.5255510000000 1.0
C      1  0.4766620000000  0.5332800000000  0.5202870000000 1.0
C      1  0.5210920000000  0.5263860000000  0.4719460000000 1.0
C      1  0.4783860000000  0.4650450000000  0.4692660000000 1.0
C      1  0.5131640000000  0.4613280000000  0.5534490000000 1.0
C      1  0.4913120000000  0.5506470000000  0.5409470000000 1.0
C      1  0.5063150000000  0.5376910000000  0.4486000000000 1.0
C      1  0.5014600000000  0.4537520000000  0.4584740000000 1.0
C      1  0.4601480000000  0.4793450000000  0.4301740000000 1.0
C      1  0.5411860000000  0.4285470000000  0.5192890000000 1.0
C      1  0.4620940000000  0.5164470000000  0.5658420000000 1.0
C      1  0.5394070000000  0.5696060000000  0.4810570000000 1.0
C      1  0.4548980000000  0.5209630000000  0.5138590000000 1.0
C      1  0.5438500000000  0.5134390000000  0.4813420000000 1.0
C      1  0.4504430000000  0.4773710000000  0.5052270000000 1.0
C      1  0.5406020000000  0.4875500000000  0.5217150000000 1.0
C      1  0.4936790000000  0.5917010000000  0.4513210000000 1.0
C      1  0.5084320000000  0.4525790000000  0.4080560000000 1.0
C      1  0.4927270000000  0.4090370000000  0.5491460000000 1.0
C      1  0.5064130000000  0.5477490000000  0.5902960000000 1.0
C      1  0.5093720000000  0.4293330000000  0.4716370000000 1.0
C      1  0.4914670000000  0.4720120000000  0.5679710000000 1.0
C      1  0.5238370000000  0.5538630000000  0.5268980000000 1.0
C      1  0.4895010000000  0.5244030000000  0.4284110000000 1.0
C      1  0.5140980000000  0.5215370000000  0.5797780000000 1.0
C      1  0.4846370000000  0.5800090000000  0.4774000000000 1.0
C      1  0.5164820000000  0.4768170000000  0.4214180000000 1.0
C      1  0.4850550000000  0.4232130000000  0.5235190000000 1.0
C      1  0.4947090000000  0.4971250000000  0.5779710000000 1.0
C      1  0.5053760000000  0.5845270000000  0.4966960000000 1.0
C      1  0.4973860000000  0.5010160000000  0.4143290000000 1.0
C      1  0.5081790000000  0.4284290000000  0.4985500000000 1.0
C      1  0.5784030000000  0.4857000000000  0.4382180000000 1.0
C      1  0.4238220000000  0.4336350000000  0.5140260000000 1.0
C      1  0.5778190000000  0.5148690000000  0.5628810000000 1.0
C      1  0.4156940000000  0.5521880000000  0.4878820000000 1.0
C      1  0.4213710000000  0.5065120000000  0.5797120000000 1.0
C      1  0.5751610000000  0.5870920000000  0.4958380000000 1.0
C      1  0.4261810000000  0.4906750000000  0.4123500000000 1.0
C      1  0.5739570000000  0.4132800000000  0.5046790000000 1.0
C      1  0.4812740000000  0.5807570000000  0.4281660000000 1.0
C      1  0.5188730000000  0.4287220000000  0.4205750000000 1.0
C      1  0.4818920000000  0.4209750000000  0.5725720000000 1.0
C      1  0.5184630000000  0.5710950000000  0.5791750000000 1.0
C      1  0.4398610000000  0.5899840000000  0.4808680000000 1.0
C      1  0.5598890000000  0.4768340000000  0.4086040000000 1.0
C      1  0.4399030000000  0.4093860000000  0.5254500000000 1.0
C      1  0.5610440000000  0.5236660000000  0.5903610000000 1.0
C      1  0.5759520000000  0.4886280000000  0.5761180000000 1.0
C      1  0.4275630000000  0.5761350000000  0.5051150000000 1.0
C      1  0.5750890000000  0.5104450000000  0.4244590000000 1.0
C      1  0.4239470000000  0.4242530000000  0.4858730000000 1.0
C      1  0.3938310000000  0.4705670000000  0.5061740000000 1.0
C      1  0.6064540000000  0.5084100000000  0.5240740000000 1.0
C      1  0.3870360000000  0.5222660000000  0.5068420000000 1.0
C      1  0.6074870000000  0.4908530000000  0.4764950000000 1.0
C      1  0.4588220000000  0.5292700000000  0.4565350000000 1.0
C      1  0.5444820000000  0.4727430000000  0.4623280000000 1.0
C      1  0.4637240000000  0.4775200000000  0.5311180000000 1.0
C      1  0.5419350000000  0.5326700000000  0.5377630000000 1.0
C      1  0.4543530000000  0.5715560000000  0.4332680000000 1.0
C      1  0.5451750000000  0.4319450000000  0.4316010000000 1.0
C      1  0.4557150000000  0.4329720000000  0.5690240000000 1.0
C      1  0.5453920000000  0.5697960000000  0.5692530000000 1.0
C      1  0.4030630000000  0.5629600000000  0.5242070000000 1.0
C      1  0.5980850000000  0.5213600000000  0.4389300000000 1.0
C      1  0.3999370000000  0.4369900000000  0.4763470000000 1.0
C      1  0.5991340000000  0.4766050000000  0.5610690000000 1.0
C      1  0.5228410000000  0.5829330000000  0.5371110000000 1.0
C      1  0.4784340000000  0.5421170000000  0.4090520000000 1.0
C      1  0.5231720000000  0.4071580000000  0.4583620000000 1.0
C      1  0.4777650000000  0.4598240000000  0.5909390000000 1.0
C      1  0.6038550000000  0.4530460000000  0.5171090000000 1.0
C      1  0.3869990000000  0.5126410000000  0.5364190000000 1.0
C      1  0.6041530000000  0.5459420000000  0.4834980000000 1.0
C      1  0.3966290000000  0.4851910000000  0.4535590000000 1.0
C      1  0.4155590000000  0.5456020000000  0.5437760000000 1.0
C      1  0.5916480000000  0.5436190000000  0.4561720000000 1.0
C      1  0.4066320000000  0.4567630000000  0.4560750000000 1.0
C      1  0.5911240000000  0.4548300000000  0.5440730000000 1.0
C      1  0.4414590000000  0.4366310000000  0.4678480000000 1.0
C      1  0.5571060000000  0.4719100000000  0.5646760000000 1.0
C      1  0.4451110000000  0.5700000000000  0.5259980000000 1.0
C      1  0.5572070000000  0.5281650000000  0.4368000000000 1.0
C      1  0.4637420000000  0.5004020000000  0.4962480000000 1.0
C      1  0.5303330000000  0.5023370000000  0.5024420000000 1.0
C      1  0.4922210000000  0.4967050000000  0.4999480000000 1.0
END
