TITL C-2441168-9922-1070 0.0365306193601563 125000 -10563.8039392246 0 0 82 (C1) n - 1
REM
REM in /home/bkarasulu/work/CARBON/AIRSS/Generating-Clusters/ReaxFF-fromJPCA2015/Units_Real/with-SteepDescent/Higher-Symm
REM
REM
REM
REM
REM
REM ./C.cell (1df0a924f5614ab8850e4351716899ee)
REM
REM compiler GCC version 9.2.1 20190827 (Red Hat 9.2.1-1)
REM options -cpp -mtune=generic -march=x86-64 -g -O0 -fpre-include=/usr/include/finclude/math-vector-fortran.h
REM seed -334911156 -941656507 -1572208450 -1375402887 1008057005 -529892848 -977781239 -2045535221 -640533577 -981482569 246388620 538630956 1650747996 1717932303 -1214469430 1461437943 -64481885 2032359661 -866619479 1807872353 626593335 -1669882021 561282965 1077577663 -1196540252 -822531499 1886533808 1389843175 -355300219 1901855386 -389226049 794532621 1610089463
REM
CELL 1.54180   50.00000   50.00000   50.00000   90.00000   90.00000   90.00000
LATT -1
SFAC C  
C      1  0.5493070000000  0.5048160000000  0.4387770000000 1.0
C      1  0.4499730000000  0.4963720000000  0.4366790000000 1.0
C      1  0.5483660000000  0.4960890000000  0.5569470000000 1.0
C      1  0.4492920000000  0.5043250000000  0.5625220000000 1.0
C      1  0.5068060000000  0.4719980000000  0.5747550000000 1.0
C      1  0.4915730000000  0.5281340000000  0.5764200000000 1.0
C      1  0.5070650000000  0.5291230000000  0.4238380000000 1.0
C      1  0.4931050000000  0.4723070000000  0.4231190000000 1.0
C      1  0.5465680000000  0.5597270000000  0.5138450000000 1.0
C      1  0.4463950000000  0.4466950000000  0.5238740000000 1.0
C      1  0.5515790000000  0.4474990000000  0.4751060000000 1.0
C      1  0.4531030000000  0.5572930000000  0.4802930000000 1.0
C      1  0.4424770000000  0.4780980000000  0.5544360000000 1.0
C      1  0.5570130000000  0.5236550000000  0.5524650000000 1.0
C      1  0.4429110000000  0.5230290000000  0.4451950000000 1.0
C      1  0.5576530000000  0.4786630000000  0.4455830000000 1.0
C      1  0.5265050000000  0.5373920000000  0.5483610000000 1.0
C      1  0.4751180000000  0.4684800000000  0.5440260000000 1.0
C      1  0.5225890000000  0.4673250000000  0.4540900000000 1.0
C      1  0.4739670000000  0.5323380000000  0.4548860000000 1.0
C      1  0.5436690000000  0.5078040000000  0.4945930000000 1.0
C      1  0.4546970000000  0.4858550000000  0.4891920000000 1.0
C      1  0.5565160000000  0.4827290000000  0.5059700000000 1.0
C      1  0.4575570000000  0.5091600000000  0.5064520000000 1.0
C      1  0.4965580000000  0.5522890000000  0.5129190000000 1.0
C      1  0.5010670000000  0.4483170000000  0.5128940000000 1.0
C      1  0.4964710000000  0.4481930000000  0.4850560000000 1.0
C      1  0.5032390000000  0.5518750000000  0.4856410000000 1.0
C      1  0.4610110000000  0.4284620000000  0.4890410000000 1.0
C      1  0.5381570000000  0.5797380000000  0.4914160000000 1.0
C      1  0.4605570000000  0.5777060000000  0.5044480000000 1.0
C      1  0.5391170000000  0.4276090000000  0.5084920000000 1.0
C      1  0.4608850000000  0.4294310000000  0.4610030000000 1.0
C      1  0.5413790000000  0.5681610000000  0.4664400000000 1.0
C      1  0.4567530000000  0.5665710000000  0.5300630000000 1.0
C      1  0.5395110000000  0.4308180000000  0.5363630000000 1.0
C      1  0.5194210000000  0.4672330000000  0.5192590000000 1.0
C      1  0.4853290000000  0.5336180000000  0.5289250000000 1.0
C      1  0.5154010000000  0.5330530000000  0.4722940000000 1.0
C      1  0.4854910000000  0.4659440000000  0.4690170000000 1.0
C      1  0.5110520000000  0.4951660000000  0.5183340000000 1.0
C      1  0.4836770000000  0.5065540000000  0.5232860000000 1.0
C      1  0.5164880000000  0.5065040000000  0.4801720000000 1.0
C      1  0.4806340000000  0.4921540000000  0.4764610000000 1.0
C      1  0.4284140000000  0.4699170000000  0.5308220000000 1.0
C      1  0.5742980000000  0.5243470000000  0.5299080000000 1.0
C      1  0.4285390000000  0.5276400000000  0.4694000000000 1.0
C      1  0.5701970000000  0.4695670000000  0.4693360000000 1.0
C      1  0.4535400000000  0.5366580000000  0.4999860000000 1.0
C      1  0.5423250000000  0.4583630000000  0.5004960000000 1.0
C      1  0.4531170000000  0.4564300000000  0.4978400000000 1.0
C      1  0.5500660000000  0.5350250000000  0.4995600000000 1.0
C      1  0.4894510000000  0.4523390000000  0.5632590000000 1.0
C      1  0.5093020000000  0.5457060000000  0.5650970000000 1.0
C      1  0.4892910000000  0.5484020000000  0.4354150000000 1.0
C      1  0.5105300000000  0.4524470000000  0.4337770000000 1.0
C      1  0.4642820000000  0.4732340000000  0.4263660000000 1.0
C      1  0.5356140000000  0.5282960000000  0.4278220000000 1.0
C      1  0.4629020000000  0.5283490000000  0.5715090000000 1.0
C      1  0.5354010000000  0.4729420000000  0.5700250000000 1.0
C      1  0.5347720000000  0.4556310000000  0.5462830000000 1.0
C      1  0.4645690000000  0.5449120000000  0.5463150000000 1.0
C      1  0.5347370000000  0.5443930000000  0.4536080000000 1.0
C      1  0.4656390000000  0.4542210000000  0.4499640000000 1.0
C      1  0.4201040000000  0.5089640000000  0.4887950000000 1.0
C      1  0.5811870000000  0.4870600000000  0.4926650000000 1.0
C      1  0.4186590000000  0.4901630000000  0.5096380000000 1.0
C      1  0.5836250000000  0.5130200000000  0.5058550000000 1.0
C      1  0.4771970000000  0.4960840000000  0.5501530000000 1.0
C      1  0.5225080000000  0.5041490000000  0.5440770000000 1.0
C      1  0.4767840000000  0.5040320000000  0.4501250000000 1.0
C      1  0.5226520000000  0.4957630000000  0.4525520000000 1.0
C      1  0.5086150000000  0.5811150000000  0.4868390000000 1.0
C      1  0.4910150000000  0.4194100000000  0.4866170000000 1.0
C      1  0.5100160000000  0.4202850000000  0.5101940000000 1.0
C      1  0.4897400000000  0.5811210000000  0.5100030000000 1.0
C      1  0.5369400000000  0.5575550000000  0.5405290000000 1.0
C      1  0.4648750000000  0.4436410000000  0.5484860000000 1.0
C      1  0.5356020000000  0.4439140000000  0.4502660000000 1.0
C      1  0.4657130000000  0.5568020000000  0.4522170000000 1.0
C      1  0.5006700000000  0.5000300000000  0.4324030000000 1.0
C      1  0.5011100000000  0.4997670000000  0.5660280000000 1.0
END
