TITL C-2441169-1362-399 0.226917792088348 125000 -23986.5057455836 0 0 200 (C1) n - 1
REM
REM in /home/bkarasulu/work/CARBON/AIRSS/Generating-Clusters/ReaxFF-fromJPCA2015/Units_Real/with-SteepDescent/Higher-Symm
REM
REM
REM
REM
REM
REM ./C.cell (1df0a924f5614ab8850e4351716899ee)
REM
REM compiler GCC version 9.2.1 20190827 (Red Hat 9.2.1-1)
REM options -cpp -mtune=generic -march=x86-64 -g -O0 -fpre-include=/usr/include/finclude/math-vector-fortran.h
REM seed -2002244495 680129649 -1868341975 -383137430 -189505732 1405894485 925305267 -1507199748 -1185795788 -1000905557 1461249469 -803807110 -2113905928 813678715 1975309795 1973242765 -651705470 376701331 252019351 -1125864265 910853479 889768974 -943856845 -881926080 -869862125 815261940 511873528 2027231421 -735052787 1031719107 1741137644 1618578067 1639728222
REM
CELL 1.54180   50.00000   50.00000   50.00000   90.00000   90.00000   90.00000
LATT -1
SFAC C  
C      1  0.4492590000000  0.4683700000000  0.5509220000000 1.0
C      1  0.4269940000000  0.4663880000000  0.5087100000000 1.0
C      1  0.4406540000000  0.4635530000000  0.4581910000000 1.0
C      1  0.4801750000000  0.4665240000000  0.4287930000000 1.0
C      1  0.5282050000000  0.4677030000000  0.4350990000000 1.0
C      1  0.5660750000000  0.4663790000000  0.4670330000000 1.0
C      1  0.5713780000000  0.4644270000000  0.5186360000000 1.0
C      1  0.5423910000000  0.4650210000000  0.5605260000000 1.0
C      1  0.4916390000000  0.4653820000000  0.5748990000000 1.0
C      1  0.5626160000000  0.4875190000000  0.4016640000000 1.0
C      1  0.6130200000000  0.4851990000000  0.4648200000000 1.0
C      1  0.6090750000000  0.4848170000000  0.5451230000000 1.0
C      1  0.5540440000000  0.4851130000000  0.6061260000000 1.0
C      1  0.4730670000000  0.4856010000000  0.6149640000000 1.0
C      1  0.4068390000000  0.4861980000000  0.5709740000000 1.0
C      1  0.3823050000000  0.4848210000000  0.4947940000000 1.0
C      1  0.4136170000000  0.4854020000000  0.4199260000000 1.0
C      1  0.4833380000000  0.4840160000000  0.3842470000000 1.0
C      1  0.5774270000000  0.4788450000000  0.5875170000000 1.0
C      1  0.5026270000000  0.4802480000000  0.6159630000000 1.0
C      1  0.4249360000000  0.4762280000000  0.5913120000000 1.0
C      1  0.3867550000000  0.4788790000000  0.5237110000000 1.0
C      1  0.3979310000000  0.4785310000000  0.4437840000000 1.0
C      1  0.4567750000000  0.4754460000000  0.3899100000000 1.0
C      1  0.5369030000000  0.4800200000000  0.3905490000000 1.0
C      1  0.5983170000000  0.4797390000000  0.4389780000000 1.0
C      1  0.6150370000000  0.4793740000000  0.5163010000000 1.0
C      1  0.5326380000000  0.5438900000000  0.5839940000000 1.0
C      1  0.4725670000000  0.5484070000000  0.5851260000000 1.0
C      1  0.4211570000000  0.5437180000000  0.5476520000000 1.0
C      1  0.4117340000000  0.5453080000000  0.4856300000000 1.0
C      1  0.4395080000000  0.5481870000000  0.4359360000000 1.0
C      1  0.4973610000000  0.5425710000000  0.4065030000000 1.0
C      1  0.5590450000000  0.5450060000000  0.4329450000000 1.0
C      1  0.5884850000000  0.5440730000000  0.4830010000000 1.0
C      1  0.5781970000000  0.5439500000000  0.5439940000000 1.0
C      1  0.5379680000000  0.4126040000000  0.4762010000000 1.0
C      1  0.5454040000000  0.4175500000000  0.5072720000000 1.0
C      1  0.5298900000000  0.4123060000000  0.5357480000000 1.0
C      1  0.5025650000000  0.4128220000000  0.5452670000000 1.0
C      1  0.4729490000000  0.4131080000000  0.5345210000000 1.0
C      1  0.4562330000000  0.4126170000000  0.5106050000000 1.0
C      1  0.4599730000000  0.4173300000000  0.4776550000000 1.0
C      1  0.4830820000000  0.4123060000000  0.4579270000000 1.0
C      1  0.5132970000000  0.4158850000000  0.4583280000000 1.0
C      1  0.5114850000000  0.4614850000000  0.5955540000000 1.0
C      1  0.4443250000000  0.4596380000000  0.5766840000000 1.0
C      1  0.4092240000000  0.4624070000000  0.5316500000000 1.0
C      1  0.4117450000000  0.4627400000000  0.4640620000000 1.0
C      1  0.4543470000000  0.4608730000000  0.4153100000000 1.0
C      1  0.5247970000000  0.4605980000000  0.4091710000000 1.0
C      1  0.5747590000000  0.4626570000000  0.4393310000000 1.0
C      1  0.5956980000000  0.4621170000000  0.5031720000000 1.0
C      1  0.5713650000000  0.4617460000000  0.5647680000000 1.0
C      1  0.5352990000000  0.4923610000000  0.5013250000000 1.0
C      1  0.5276610000000  0.4861780000000  0.5251540000000 1.0
C      1  0.5032740000000  0.4868560000000  0.5370110000000 1.0
C      1  0.4809240000000  0.4964100000000  0.5295320000000 1.0
C      1  0.4732390000000  0.4824750000000  0.5080000000000 1.0
C      1  0.4676730000000  0.4950200000000  0.4854060000000 1.0
C      1  0.4848870000000  0.4844730000000  0.4695230000000 1.0
C      1  0.5071940000000  0.4940920000000  0.4647410000000 1.0
C      1  0.5255410000000  0.4839670000000  0.4804720000000 1.0
C      1  0.4575170000000  0.6057910000000  0.4837150000000 1.0
C      1  0.4782460000000  0.6011640000000  0.4617050000000 1.0
C      1  0.5084620000000  0.6052510000000  0.4531690000000 1.0
C      1  0.5336520000000  0.6005290000000  0.4698230000000 1.0
C      1  0.5452560000000  0.6019350000000  0.5007700000000 1.0
C      1  0.5348260000000  0.6013640000000  0.5297540000000 1.0
C      1  0.5041160000000  0.6008980000000  0.5455260000000 1.0
C      1  0.4754210000000  0.6064220000000  0.5393700000000 1.0
C      1  0.4577970000000  0.6002500000000  0.5141120000000 1.0
C      1  0.4655570000000  0.5355980000000  0.4875180000000 1.0
C      1  0.4793220000000  0.5265390000000  0.4661570000000 1.0
C      1  0.5061170000000  0.5348240000000  0.4639900000000 1.0
C      1  0.5318620000000  0.5274580000000  0.4746630000000 1.0
C      1  0.5427710000000  0.5328320000000  0.5006770000000 1.0
C      1  0.5332370000000  0.5291300000000  0.5276400000000 1.0
C      1  0.5087930000000  0.5290520000000  0.5400770000000 1.0
C      1  0.4816890000000  0.5357240000000  0.5325960000000 1.0
C      1  0.4629470000000  0.5264900000000  0.5131480000000 1.0
C      1  0.4413890000000  0.4986360000000  0.5487060000000 1.0
C      1  0.4229830000000  0.4994450000000  0.5015390000000 1.0
C      1  0.4399650000000  0.4995870000000  0.4507430000000 1.0
C      1  0.4832820000000  0.4993380000000  0.4253190000000 1.0
C      1  0.5368000000000  0.4989820000000  0.4335220000000 1.0
C      1  0.5712320000000  0.4993870000000  0.4709400000000 1.0
C      1  0.5730030000000  0.4977950000000  0.5260560000000 1.0
C      1  0.5391480000000  0.4979370000000  0.5669530000000 1.0
C      1  0.4859730000000  0.4997190000000  0.5761960000000 1.0
C      1  0.5478860000000  0.5116250000000  0.4579810000000 1.0
C      1  0.5597830000000  0.5069040000000  0.5000050000000 1.0
C      1  0.5483400000000  0.5073290000000  0.5401870000000 1.0
C      1  0.5107850000000  0.5070950000000  0.5595260000000 1.0
C      1  0.4692170000000  0.5091160000000  0.5521840000000 1.0
C      1  0.4404030000000  0.5116750000000  0.5220080000000 1.0
C      1  0.4422520000000  0.5055520000000  0.4792800000000 1.0
C      1  0.4664870000000  0.5125870000000  0.4450880000000 1.0
C      1  0.5090220000000  0.5083890000000  0.4396960000000 1.0
C      1  0.5397570000000  0.5719520000000  0.4999850000000 1.0
C      1  0.5299060000000  0.5703200000000  0.5268860000000 1.0
C      1  0.5053710000000  0.5723600000000  0.5407810000000 1.0
C      1  0.4787610000000  0.5617850000000  0.5356330000000 1.0
C      1  0.4611620000000  0.5712180000000  0.5137690000000 1.0
C      1  0.4619640000000  0.5613440000000  0.4867300000000 1.0
C      1  0.4814370000000  0.5717010000000  0.4663530000000 1.0
C      1  0.5071560000000  0.5605280000000  0.4589470000000 1.0
C      1  0.5296990000000  0.5706670000000  0.4730580000000 1.0
C      1  0.5812510000000  0.4389270000000  0.5328590000000 1.0
C      1  0.5394870000000  0.4399970000000  0.5768130000000 1.0
C      1  0.4807030000000  0.4405210000000  0.5822360000000 1.0
C      1  0.4303520000000  0.4277100000000  0.5555460000000 1.0
C      1  0.4163080000000  0.4409000000000  0.4982940000000 1.0
C      1  0.4351160000000  0.4385410000000  0.4418620000000 1.0
C      1  0.4889140000000  0.4409410000000  0.4172950000000 1.0
C      1  0.5460600000000  0.4284810000000  0.4238250000000 1.0
C      1  0.5800170000000  0.4408800000000  0.4728510000000 1.0
C      1  0.4997660000000  0.4209230000000  0.5737590000000 1.0
C      1  0.4543960000000  0.4183530000000  0.5592390000000 1.0
C      1  0.4282110000000  0.4194270000000  0.5139620000000 1.0
C      1  0.4329540000000  0.4194190000000  0.4632190000000 1.0
C      1  0.4747240000000  0.4203020000000  0.4316530000000 1.0
C      1  0.5223310000000  0.4183190000000  0.4275190000000 1.0
C      1  0.5622600000000  0.4197160000000  0.4627920000000 1.0
C      1  0.5756240000000  0.4197830000000  0.5119230000000 1.0
C      1  0.5483140000000  0.4196630000000  0.5571830000000 1.0
C      1  0.5150260000000  0.5644420000000  0.5718300000000 1.0
C      1  0.4660300000000  0.5638140000000  0.5619200000000 1.0
C      1  0.4316350000000  0.5642420000000  0.5286940000000 1.0
C      1  0.4324780000000  0.5626430000000  0.4743680000000 1.0
C      1  0.4628230000000  0.5670810000000  0.4401140000000 1.0
C      1  0.5130510000000  0.5613330000000  0.4248730000000 1.0
C      1  0.5565570000000  0.5645480000000  0.4549500000000 1.0
C      1  0.5734640000000  0.5647330000000  0.4977700000000 1.0
C      1  0.5561990000000  0.5637880000000  0.5455910000000 1.0
C      1  0.3875470000000  0.4949020000000  0.4683610000000 1.0
C      1  0.4343740000000  0.4925740000000  0.4010370000000 1.0
C      1  0.5091490000000  0.4939690000000  0.3825010000000 1.0
C      1  0.5840430000000  0.4967420000000  0.4185440000000 1.0
C      1  0.6160160000000  0.4959300000000  0.4911200000000 1.0
C      1  0.5946910000000  0.4943830000000  0.5680440000000 1.0
C      1  0.5282970000000  0.4960420000000  0.6133130000000 1.0
C      1  0.4473750000000  0.4926590000000  0.6047170000000 1.0
C      1  0.3925510000000  0.4955030000000  0.5488220000000 1.0
C      1  0.5434900000000  0.4487050000000  0.5091540000000 1.0
C      1  0.5291470000000  0.4585990000000  0.5335950000000 1.0
C      1  0.4960510000000  0.4575850000000  0.5448520000000 1.0
C      1  0.4678840000000  0.4528490000000  0.5346290000000 1.0
C      1  0.4562810000000  0.4591150000000  0.5077810000000 1.0
C      1  0.4614930000000  0.4490970000000  0.4771460000000 1.0
C      1  0.4854520000000  0.4583460000000  0.4596960000000 1.0
C      1  0.5170380000000  0.4507870000000  0.4565690000000 1.0
C      1  0.5375020000000  0.4584670000000  0.4776460000000 1.0
C      1  0.4456020000000  0.5364140000000  0.4105590000000 1.0
C      1  0.5124530000000  0.5214410000000  0.3926100000000 1.0
C      1  0.5831280000000  0.5282130000000  0.4289000000000 1.0
C      1  0.6080260000000  0.5265360000000  0.4979900000000 1.0
C      1  0.5839270000000  0.5268520000000  0.5676740000000 1.0
C      1  0.5212940000000  0.5270870000000  0.6063980000000 1.0
C      1  0.4488170000000  0.5373440000000  0.5909340000000 1.0
C      1  0.3977890000000  0.5274170000000  0.5393630000000 1.0
C      1  0.3980380000000  0.5279950000000  0.4658440000000 1.0
C      1  0.5764240000000  0.5925950000000  0.5006020000000 1.0
C      1  0.5578640000000  0.5923320000000  0.5493980000000 1.0
C      1  0.5113290000000  0.5917680000000  0.5765280000000 1.0
C      1  0.4622040000000  0.5930790000000  0.5628930000000 1.0
C      1  0.4271760000000  0.5912990000000  0.5259660000000 1.0
C      1  0.4323500000000  0.5926280000000  0.4749820000000 1.0
C      1  0.4623070000000  0.5937310000000  0.4327780000000 1.0
C      1  0.5120650000000  0.5922550000000  0.4277510000000 1.0
C      1  0.5593030000000  0.5924240000000  0.4513120000000 1.0
C      1  0.5938660000000  0.5434900000000  0.4551870000000 1.0
C      1  0.5986250000000  0.5421980000000  0.5245290000000 1.0
C      1  0.5607140000000  0.5424640000000  0.5822990000000 1.0
C      1  0.4943420000000  0.5426810000000  0.6032560000000 1.0
C      1  0.4268250000000  0.5394710000000  0.5755850000000 1.0
C      1  0.3990370000000  0.5433060000000  0.5104930000000 1.0
C      1  0.4116890000000  0.5421570000000  0.4426360000000 1.0
C      1  0.4697160000000  0.5398320000000  0.3988500000000 1.0
C      1  0.5389500000000  0.5474660000000  0.4131580000000 1.0
C      1  0.4505880000000  0.4332300000000  0.4214300000000 1.0
C      1  0.5112610000000  0.4351620000000  0.4055140000000 1.0
C      1  0.5696090000000  0.4335940000000  0.4349310000000 1.0
C      1  0.5945560000000  0.4345940000000  0.4951850000000 1.0
C      1  0.5745310000000  0.4336500000000  0.5585490000000 1.0
C      1  0.5182810000000  0.4342560000000  0.5923130000000 1.0
C      1  0.4565790000000  0.4354060000000  0.5839410000000 1.0
C      1  0.4120560000000  0.4329970000000  0.5372550000000 1.0
C      1  0.4099300000000  0.4347430000000  0.4722590000000 1.0
C      1  0.4385780000000  0.5131710000000  0.5826870000000 1.0
C      1  0.3999350000000  0.5167760000000  0.5119220000000 1.0
C      1  0.4140810000000  0.5148830000000  0.4468160000000 1.0
C      1  0.4592260000000  0.5131290000000  0.4041000000000 1.0
C      1  0.5377480000000  0.5190240000000  0.4063950000000 1.0
C      1  0.5903610000000  0.5163480000000  0.4545800000000 1.0
C      1  0.5963780000000  0.5153570000000  0.5226430000000 1.0
C      1  0.5602270000000  0.5148550000000  0.5804070000000 1.0
C      1  0.4943000000000  0.5161000000000  0.5994710000000 1.0
C      1  0.5009820000000  0.4352810000000  0.4997970000000 1.0
C      1  0.4986770000000  0.4606750000000  0.5009030000000 1.0
END
