TITL C-2441165-58-1422 0.0265962348208206 125000 -12867.4461626407 0 0 89 (C1) n - 1
REM
REM in /home/bkarasulu/work/CARBON/AIRSS/Generating-Clusters/ReaxFF-fromJPCA2015/Units_Real/with-SteepDescent/Higher-Symm
REM
REM
REM
REM
REM
REM ./C.cell (1df0a924f5614ab8850e4351716899ee)
REM
REM compiler GCC version 9.2.1 20190827 (Red Hat 9.2.1-1)
REM options -cpp -mtune=generic -march=x86-64 -g -O0 -fpre-include=/usr/include/finclude/math-vector-fortran.h
REM seed 1986004197 778831825 1090162606 720330779 643301592 570433585 -1913606348 -1952627891 -1484829165 1070262686 -1700879478 -418759445 -750266754 -889800511 1564970840 -1995150798 752997053 -914777281 -1800559977 1953947849 790239574 -1358531225 1816481603 280017518 -1526830836 -1487062031 1449281420 1395461265 -433598835 1200906122 -282731541 -177742979 503245568
REM
CELL 1.54180   50.00000   50.00000   50.00000   90.00000   90.00000   90.00000
LATT -1
SFAC C  
C      1  0.5615290000000  0.5059020000000  0.4417720000000 1.0
C      1  0.4188340000000  0.5059180000000  0.4757820000000 1.0
C      1  0.5214210000000  0.5092570000000  0.5834540000000 1.0
C      1  0.5799920000000  0.4543100000000  0.5082720000000 1.0
C      1  0.4665120000000  0.4548160000000  0.4290370000000 1.0
C      1  0.4645400000000  0.4507770000000  0.5566790000000 1.0
C      1  0.4759430000000  0.4249010000000  0.4669660000000 1.0
C      1  0.4651580000000  0.4300810000000  0.5183880000000 1.0
C      1  0.5362550000000  0.4364710000000  0.5172150000000 1.0
C      1  0.5790670000000  0.4771580000000  0.4891460000000 1.0
C      1  0.4504510000000  0.4784880000000  0.4369410000000 1.0
C      1  0.4714520000000  0.4747900000000  0.5739700000000 1.0
C      1  0.4434350000000  0.4490810000000  0.5147970000000 1.0
C      1  0.5449430000000  0.4493490000000  0.5411320000000 1.0
C      1  0.5140190000000  0.4471960000000  0.4471040000000 1.0
C      1  0.4949510000000  0.5894740000000  0.5139050000000 1.0
C      1  0.5152430000000  0.5907090000000  0.4945940000000 1.0
C      1  0.4881750000000  0.5894840000000  0.4875890000000 1.0
C      1  0.5277480000000  0.5261340000000  0.4920130000000 1.0
C      1  0.4799980000000  0.5268670000000  0.4815170000000 1.0
C      1  0.4958380000000  0.5243010000000  0.5275020000000 1.0
C      1  0.4767160000000  0.4173240000000  0.4945790000000 1.0
C      1  0.5058330000000  0.4405120000000  0.5166160000000 1.0
C      1  0.5048360000000  0.4267880000000  0.4658210000000 1.0
C      1  0.5591980000000  0.4606040000000  0.4731550000000 1.0
C      1  0.4432790000000  0.4626660000000  0.4617300000000 1.0
C      1  0.4985170000000  0.4678140000000  0.5705450000000 1.0
C      1  0.4844720000000  0.5385590000000  0.5677640000000 1.0
C      1  0.5672610000000  0.5378410000000  0.4779910000000 1.0
C      1  0.4476830000000  0.5382770000000  0.4518790000000 1.0
C      1  0.5229660000000  0.5251840000000  0.5202170000000 1.0
C      1  0.5068150000000  0.5257990000000  0.4731830000000 1.0
C      1  0.4746310000000  0.5269700000000  0.5092720000000 1.0
C      1  0.5677290000000  0.5470780000000  0.5274700000000 1.0
C      1  0.4907170000000  0.5465060000000  0.4274730000000 1.0
C      1  0.4422060000000  0.5459730000000  0.5431070000000 1.0
C      1  0.5751470000000  0.4916420000000  0.5354680000000 1.0
C      1  0.4938180000000  0.4884130000000  0.4210000000000 1.0
C      1  0.4347380000000  0.4889530000000  0.5467430000000 1.0
C      1  0.5360840000000  0.4662650000000  0.4539680000000 1.0
C      1  0.4412800000000  0.4669510000000  0.4911020000000 1.0
C      1  0.5244790000000  0.4672460000000  0.5563700000000 1.0
C      1  0.4205130000000  0.4892480000000  0.4973410000000 1.0
C      1  0.5399520000000  0.4926750000000  0.5674000000000 1.0
C      1  0.5419300000000  0.4890640000000  0.4328500000000 1.0
C      1  0.4530190000000  0.4992750000000  0.5658550000000 1.0
C      1  0.5796920000000  0.5004740000000  0.5083380000000 1.0
C      1  0.4679210000000  0.5000460000000  0.4267800000000 1.0
C      1  0.5452960000000  0.5656940000000  0.5232010000000 1.0
C      1  0.4979120000000  0.5657000000000  0.4486450000000 1.0
C      1  0.4566410000000  0.5656380000000  0.5264930000000 1.0
C      1  0.5182590000000  0.5363310000000  0.4275230000000 1.0
C      1  0.4281150000000  0.5365180000000  0.5193850000000 1.0
C      1  0.5554600000000  0.5373880000000  0.5522450000000 1.0
C      1  0.4855070000000  0.5691700000000  0.5311530000000 1.0
C      1  0.5364950000000  0.5707800000000  0.4952170000000 1.0
C      1  0.4786130000000  0.5694130000000  0.4705380000000 1.0
C      1  0.5699170000000  0.4626030000000  0.5348180000000 1.0
C      1  0.4955890000000  0.4603800000000  0.4289570000000 1.0
C      1  0.4418400000000  0.4614290000000  0.5403910000000 1.0
C      1  0.4665420000000  0.5294150000000  0.4313050000000 1.0
C      1  0.4570720000000  0.5284970000000  0.5628960000000 1.0
C      1  0.5762630000000  0.5294880000000  0.5046220000000 1.0
C      1  0.4726580000000  0.5001690000000  0.4712870000000 1.0
C      1  0.4890530000000  0.4992330000000  0.5398750000000 1.0
C      1  0.5389240000000  0.4985970000000  0.4909550000000 1.0
C      1  0.5172850000000  0.5054570000000  0.4280750000000 1.0
C      1  0.4305410000000  0.5054000000000  0.5210440000000 1.0
C      1  0.5608830000000  0.5083370000000  0.5551080000000 1.0
C      1  0.5019540000000  0.4996180000000  0.4612850000000 1.0
C      1  0.4639830000000  0.5010780000000  0.5174490000000 1.0
C      1  0.5329750000000  0.4978590000000  0.5204000000000 1.0
C      1  0.5015980000000  0.5565670000000  0.5514360000000 1.0
C      1  0.5454690000000  0.5568520000000  0.4714680000000 1.0
C      1  0.4528910000000  0.5570360000000  0.4740080000000 1.0
C      1  0.4414470000000  0.5110690000000  0.4607570000000 1.0
C      1  0.4953060000000  0.5117280000000  0.5683640000000 1.0
C      1  0.5632540000000  0.5105740000000  0.4686720000000 1.0
C      1  0.4834030000000  0.4369010000000  0.5391870000000 1.0
C      1  0.5565290000000  0.4415400000000  0.4951420000000 1.0
C      1  0.4589510000000  0.4415100000000  0.4528940000000 1.0
C      1  0.5175460000000  0.4809440000000  0.4788130000000 1.0
C      1  0.4713730000000  0.4816790000000  0.4957930000000 1.0
C      1  0.5096000000000  0.4813890000000  0.5277890000000 1.0
C      1  0.5311750000000  0.5553140000000  0.5475250000000 1.0
C      1  0.5263690000000  0.5557380000000  0.4484420000000 1.0
C      1  0.4421410000000  0.5559740000000  0.5018590000000 1.0
C      1  0.5054880000000  0.4199020000000  0.4948680000000 1.0
C      1  0.4998250000000  0.4697050000000  0.5016050000000 1.0
END
