TITL C-2441165-58-537 0.0522887959595395 125000 -13994.3903472468 0 0 103 (C1) n - 1
REM
REM in /home/bkarasulu/work/CARBON/AIRSS/Generating-Clusters/ReaxFF-fromJPCA2015/Units_Real/with-SteepDescent/Higher-Symm
REM
REM
REM
REM
REM
REM ./C.cell (1df0a924f5614ab8850e4351716899ee)
REM
REM compiler GCC version 9.2.1 20190827 (Red Hat 9.2.1-1)
REM options -cpp -mtune=generic -march=x86-64 -g -O0 -fpre-include=/usr/include/finclude/math-vector-fortran.h
REM seed -976272558 -130140522 -1753217165 -1975332695 2053255870 -1676572503 -1977991712 174963330 -1107211403 1811131843 1195071511 -1816310178 1000482817 1355589869 1462906411 486788590 1906812560 -1236668820 1430194034 -359393153 -757722079 812719668 568083049 -1872864032 -1239124338 1638923471 -301349484 -1539020984 1615898118 -1452183422 587998027 -877901364 -569215456
REM
CELL 1.54180   50.00000   50.00000   50.00000   90.00000   90.00000   90.00000
LATT -1
SFAC C  
C      1  0.5448960000000  0.4254180000000  0.5277230000000 1.0
C      1  0.4592220000000  0.4430770000000  0.5197450000000 1.0
C      1  0.5138500000000  0.5159870000000  0.5644840000000 1.0
C      1  0.4875650000000  0.5048220000000  0.5568190000000 1.0
C      1  0.5590020000000  0.4456430000000  0.4598220000000 1.0
C      1  0.4392920000000  0.4489310000000  0.4588540000000 1.0
C      1  0.5264690000000  0.5760440000000  0.4771220000000 1.0
C      1  0.4730040000000  0.5761490000000  0.4760840000000 1.0
C      1  0.5565040000000  0.4854690000000  0.5745910000000 1.0
C      1  0.4404980000000  0.4823510000000  0.5699880000000 1.0
C      1  0.4708340000000  0.4176770000000  0.5103490000000 1.0
C      1  0.5425250000000  0.4184520000000  0.5005530000000 1.0
C      1  0.5148250000000  0.4639860000000  0.5439340000000 1.0
C      1  0.4876580000000  0.4722200000000  0.5488240000000 1.0
C      1  0.5748960000000  0.5096910000000  0.5154800000000 1.0
C      1  0.4190600000000  0.5086600000000  0.5157410000000 1.0
C      1  0.4822800000000  0.5005970000000  0.5860530000000 1.0
C      1  0.5117480000000  0.5021260000000  0.5907310000000 1.0
C      1  0.4435480000000  0.5537260000000  0.5197960000000 1.0
C      1  0.5539070000000  0.5554920000000  0.5226600000000 1.0
C      1  0.4467790000000  0.5645020000000  0.4708240000000 1.0
C      1  0.5533160000000  0.5673790000000  0.4700350000000 1.0
C      1  0.4301270000000  0.5243770000000  0.4439060000000 1.0
C      1  0.5688970000000  0.5202850000000  0.4435280000000 1.0
C      1  0.5088540000000  0.4931260000000  0.5066340000000 1.0
C      1  0.4807290000000  0.4876810000000  0.5069140000000 1.0
C      1  0.5231050000000  0.5212600000000  0.5203600000000 1.0
C      1  0.4730360000000  0.5203020000000  0.5253950000000 1.0
C      1  0.5435190000000  0.4826940000000  0.4783420000000 1.0
C      1  0.4473680000000  0.4967830000000  0.4769670000000 1.0
C      1  0.4415050000000  0.5127280000000  0.5604920000000 1.0
C      1  0.5596330000000  0.5130010000000  0.5603320000000 1.0
C      1  0.5614030000000  0.4699010000000  0.5248060000000 1.0
C      1  0.4370840000000  0.4765800000000  0.5406160000000 1.0
C      1  0.4852040000000  0.5314680000000  0.4195820000000 1.0
C      1  0.5152030000000  0.5317130000000  0.4181000000000 1.0
C      1  0.4830660000000  0.5487210000000  0.5399150000000 1.0
C      1  0.5119540000000  0.5474630000000  0.5379220000000 1.0
C      1  0.4845800000000  0.5785560000000  0.5027770000000 1.0
C      1  0.5138420000000  0.5797800000000  0.5036110000000 1.0
C      1  0.5735160000000  0.4855230000000  0.4750530000000 1.0
C      1  0.4198590000000  0.4859200000000  0.4756160000000 1.0
C      1  0.5436610000000  0.4651320000000  0.5015370000000 1.0
C      1  0.4702900000000  0.4809460000000  0.4820090000000 1.0
C      1  0.4510090000000  0.5247410000000  0.4839340000000 1.0
C      1  0.5524600000000  0.5312280000000  0.4868360000000 1.0
C      1  0.5650600000000  0.4491520000000  0.5375240000000 1.0
C      1  0.4367370000000  0.4498470000000  0.5375930000000 1.0
C      1  0.4318910000000  0.5289520000000  0.5757310000000 1.0
C      1  0.5720970000000  0.5287810000000  0.5743700000000 1.0
C      1  0.5126760000000  0.4841770000000  0.4247480000000 1.0
C      1  0.4851430000000  0.4850110000000  0.4223010000000 1.0
C      1  0.4724480000000  0.5533170000000  0.4333990000000 1.0
C      1  0.5267390000000  0.5572640000000  0.4260500000000 1.0
C      1  0.4896120000000  0.5232670000000  0.4728940000000 1.0
C      1  0.5152870000000  0.5220960000000  0.4700980000000 1.0
C      1  0.4870720000000  0.5718530000000  0.4510710000000 1.0
C      1  0.5159630000000  0.5735010000000  0.4496070000000 1.0
C      1  0.4133990000000  0.5259200000000  0.4669450000000 1.0
C      1  0.5869630000000  0.5225920000000  0.4652980000000 1.0
C      1  0.5291500000000  0.5695000000000  0.5259770000000 1.0
C      1  0.4684000000000  0.5673910000000  0.5239780000000 1.0
C      1  0.5553270000000  0.4956610000000  0.4321660000000 1.0
C      1  0.4432770000000  0.5000780000000  0.4319720000000 1.0
C      1  0.4688460000000  0.5075210000000  0.4198120000000 1.0
C      1  0.5309690000000  0.5054170000000  0.4204170000000 1.0
C      1  0.4187060000000  0.4556870000000  0.4793430000000 1.0
C      1  0.5763150000000  0.4578700000000  0.4784160000000 1.0
C      1  0.4060970000000  0.5096090000000  0.4888660000000 1.0
C      1  0.5896990000000  0.5083180000000  0.4899550000000 1.0
C      1  0.5076570000000  0.4514050000000  0.4583820000000 1.0
C      1  0.4801200000000  0.4599380000000  0.4610590000000 1.0
C      1  0.4431460000000  0.4713650000000  0.4373850000000 1.0
C      1  0.5525640000000  0.4665810000000  0.4394890000000 1.0
C      1  0.5213450000000  0.4705980000000  0.5175920000000 1.0
C      1  0.4765070000000  0.4661650000000  0.5233470000000 1.0
C      1  0.5176210000000  0.4206650000000  0.5326840000000 1.0
C      1  0.4918380000000  0.4190110000000  0.5280830000000 1.0
C      1  0.5568080000000  0.4578170000000  0.5640450000000 1.0
C      1  0.4468860000000  0.4472750000000  0.5650890000000 1.0
C      1  0.5525420000000  0.5251200000000  0.5297100000000 1.0
C      1  0.4429990000000  0.5252900000000  0.5299690000000 1.0
C      1  0.5278680000000  0.4562670000000  0.5689910000000 1.0
C      1  0.4730000000000  0.4556260000000  0.5711890000000 1.0
C      1  0.4822930000000  0.4208910000000  0.4830760000000 1.0
C      1  0.5107800000000  0.4309010000000  0.4765450000000 1.0
C      1  0.5644180000000  0.5569040000000  0.4956990000000 1.0
C      1  0.4343480000000  0.5490670000000  0.4925190000000 1.0
C      1  0.5254010000000  0.5330200000000  0.4939870000000 1.0
C      1  0.4770440000000  0.5276060000000  0.4959540000000 1.0
C      1  0.5803790000000  0.4837300000000  0.5218420000000 1.0
C      1  0.4233860000000  0.4851540000000  0.5230030000000 1.0
C      1  0.5124420000000  0.5446420000000  0.5674940000000 1.0
C      1  0.4859910000000  0.5543670000000  0.5722720000000 1.0
C      1  0.5306170000000  0.4798080000000  0.5875520000000 1.0
C      1  0.4640690000000  0.4776110000000  0.5879860000000 1.0
C      1  0.4706270000000  0.4663440000000  0.4347210000000 1.0
C      1  0.5243020000000  0.4628060000000  0.4390000000000 1.0
C      1  0.5493380000000  0.5381980000000  0.4582230000000 1.0
C      1  0.4465310000000  0.5494490000000  0.4458870000000 1.0
C      1  0.4635960000000  0.4330690000000  0.4654010000000 1.0
C      1  0.5394790000000  0.4252660000000  0.4736910000000 1.0
C      1  0.5170800000000  0.4947280000000  0.4774010000000 1.0
END
