TITL C-2441165-58-1349 0.0191643510406341 125000 -8374.04286310027 0 0 65 (C1) n - 1
REM
REM in /home/bkarasulu/work/CARBON/AIRSS/Generating-Clusters/ReaxFF-fromJPCA2015/Units_Real/with-SteepDescent/Higher-Symm
REM
REM
REM
REM
REM
REM ./C.cell (1df0a924f5614ab8850e4351716899ee)
REM
REM compiler GCC version 9.2.1 20190827 (Red Hat 9.2.1-1)
REM options -cpp -mtune=generic -march=x86-64 -g -O0 -fpre-include=/usr/include/finclude/math-vector-fortran.h
REM seed -802114977 2140288647 -252925441 1300935410 1535951189 766327609 671525152 -2057406604 -1971790597 1076209397 291159254 -1215362777 -1621859454 -424883920 -1945632616 604497939 1276451483 176871441 -1654039270 -153403195 -771159955 -1621944106 1085213786 -1987566678 810716677 1577118743 537693229 1469355004 -686736176 -194857142 1179261548 1559586571 -1655316611
REM
CELL 1.54180   50.00000   50.00000   50.00000   90.00000   90.00000   90.00000
LATT -1
SFAC C  
C      1  0.5312730000000  0.4429090000000  0.5137870000000 1.0
C      1  0.4937880000000  0.4411830000000  0.4668710000000 1.0
C      1  0.4679850000000  0.4444660000000  0.5262090000000 1.0
C      1  0.5371950000000  0.5545210000000  0.5181070000000 1.0
C      1  0.4906830000000  0.5500040000000  0.4803570000000 1.0
C      1  0.4627660000000  0.5530820000000  0.5226450000000 1.0
C      1  0.5435400000000  0.5463920000000  0.4697410000000 1.0
C      1  0.4495860000000  0.5469340000000  0.4703090000000 1.0
C      1  0.5045330000000  0.5495180000000  0.5497200000000 1.0
C      1  0.5468260000000  0.4516880000000  0.4693630000000 1.0
C      1  0.4485230000000  0.4515580000000  0.4759610000000 1.0
C      1  0.5020870000000  0.4514860000000  0.5504520000000 1.0
C      1  0.4582380000000  0.5351460000000  0.5443700000000 1.0
C      1  0.5593630000000  0.5376820000000  0.5163170000000 1.0
C      1  0.4910990000000  0.5330680000000  0.4407320000000 1.0
C      1  0.4444510000000  0.4573470000000  0.5294740000000 1.0
C      1  0.5547520000000  0.4592000000000  0.5193600000000 1.0
C      1  0.4971840000000  0.4572320000000  0.4428020000000 1.0
C      1  0.4997820000000  0.4854370000000  0.5243140000000 1.0
C      1  0.5243200000000  0.4844490000000  0.4923530000000 1.0
C      1  0.4775610000000  0.4890450000000  0.4820430000000 1.0
C      1  0.5002890000000  0.5144840000000  0.5245040000000 1.0
C      1  0.5243160000000  0.5136620000000  0.4924590000000 1.0
C      1  0.4780040000000  0.5188910000000  0.4836100000000 1.0
C      1  0.4864210000000  0.5098940000000  0.4245490000000 1.0
C      1  0.4437260000000  0.5100150000000  0.5509240000000 1.0
C      1  0.5729090000000  0.5127560000000  0.5250750000000 1.0
C      1  0.4868600000000  0.4795250000000  0.4261210000000 1.0
C      1  0.4403600000000  0.4813510000000  0.5491180000000 1.0
C      1  0.5710390000000  0.4834680000000  0.5257250000000 1.0
C      1  0.4693710000000  0.5692670000000  0.4706300000000 1.0
C      1  0.4902230000000  0.5622730000000  0.5260660000000 1.0
C      1  0.5339890000000  0.5639560000000  0.4913390000000 1.0
C      1  0.4710200000000  0.4358670000000  0.4797650000000 1.0
C      1  0.4933370000000  0.4347510000000  0.5275560000000 1.0
C      1  0.5358320000000  0.4316920000000  0.4868800000000 1.0
C      1  0.5304030000000  0.4639780000000  0.5530640000000 1.0
C      1  0.5304780000000  0.4637200000000  0.4463860000000 1.0
C      1  0.4337320000000  0.4568290000000  0.5016850000000 1.0
C      1  0.5305120000000  0.5345760000000  0.5536140000000 1.0
C      1  0.5269110000000  0.5348760000000  0.4467300000000 1.0
C      1  0.4414450000000  0.5410300000000  0.4996400000000 1.0
C      1  0.5359980000000  0.5116750000000  0.5714770000000 1.0
C      1  0.5406830000000  0.5120170000000  0.4332800000000 1.0
C      1  0.4269330000000  0.5143270000000  0.5021040000000 1.0
C      1  0.5362730000000  0.4856880000000  0.5713900000000 1.0
C      1  0.5418980000000  0.4874300000000  0.4334110000000 1.0
C      1  0.4295090000000  0.4863300000000  0.4965960000000 1.0
C      1  0.5524380000000  0.5259530000000  0.4885660000000 1.0
C      1  0.4668160000000  0.5261360000000  0.4568840000000 1.0
C      1  0.4866550000000  0.5270900000000  0.5486700000000 1.0
C      1  0.5526930000000  0.4713430000000  0.4907770000000 1.0
C      1  0.4655470000000  0.4726350000000  0.4615630000000 1.0
C      1  0.4874170000000  0.4766900000000  0.5498540000000 1.0
C      1  0.4580900000000  0.5171640000000  0.5065340000000 1.0
C      1  0.5282270000000  0.5136980000000  0.5325260000000 1.0
C      1  0.5148710000000  0.5135090000000  0.4653220000000 1.0
C      1  0.4582500000000  0.4898740000000  0.5029760000000 1.0
C      1  0.5275530000000  0.4851010000000  0.5329160000000 1.0
C      1  0.5169570000000  0.4851920000000  0.4648130000000 1.0
C      1  0.4639540000000  0.4905870000000  0.5617330000000 1.0
C      1  0.5733940000000  0.4975100000000  0.5001990000000 1.0
C      1  0.4641150000000  0.4937040000000  0.4378220000000 1.0
C      1  0.5077060000000  0.4307440000000  0.4966950000000 1.0
C      1  0.5048580000000  0.5669870000000  0.4994240000000 1.0
END
