TITL C-2441167-4473-108 0.0148467470454052 125000 -13364.2656349319 0 0 94 (C1) n - 1
REM
REM in /home/bkarasulu/work/CARBON/AIRSS/Generating-Clusters/ReaxFF-fromJPCA2015/Units_Real/with-SteepDescent/Higher-Symm
REM
REM
REM
REM
REM
REM ./C.cell (1df0a924f5614ab8850e4351716899ee)
REM
REM compiler GCC version 9.2.1 20190827 (Red Hat 9.2.1-1)
REM options -cpp -mtune=generic -march=x86-64 -g -O0 -fpre-include=/usr/include/finclude/math-vector-fortran.h
REM seed 414876079 -1472082434 -286003309 860695099 1330034645 -865056571 -485580918 1678146274 -387589828 -1742178855 371519027 898795173 -458587176 -261635671 -1665906465 -1271482468 -621767929 -18332319 -1481666147 -966705436 1186361662 1509143641 1748562709 663514086 2109888569 1367815938 -1609367320 -1549240218 110828846 -257863012 -5637201 1620076780 -1331144429
REM
CELL 1.54180   50.00000   50.00000   50.00000   90.00000   90.00000   90.00000
LATT -1
SFAC C  
C      1  0.5454870000000  0.4557450000000  0.5298350000000 1.0
C      1  0.4392490000000  0.4832200000000  0.5292880000000 1.0
C      1  0.5175990000000  0.5588500000000  0.5310190000000 1.0
C      1  0.5362100000000  0.4614720000000  0.4698860000000 1.0
C      1  0.4443720000000  0.4778570000000  0.4776410000000 1.0
C      1  0.5175390000000  0.5554370000000  0.4723770000000 1.0
C      1  0.5671640000000  0.5219990000000  0.4374660000000 1.0
C      1  0.4852220000000  0.4321510000000  0.4376280000000 1.0
C      1  0.4489630000000  0.5444270000000  0.4367360000000 1.0
C      1  0.5658270000000  0.5243470000000  0.5646940000000 1.0
C      1  0.4859800000000  0.4315350000000  0.5645220000000 1.0
C      1  0.4490120000000  0.5449340000000  0.5639950000000 1.0
C      1  0.4489090000000  0.5199720000000  0.5771340000000 1.0
C      1  0.5442820000000  0.5344910000000  0.5780890000000 1.0
C      1  0.5083990000000  0.4465320000000  0.5726050000000 1.0
C      1  0.4488600000000  0.5190010000000  0.4254500000000 1.0
C      1  0.5456090000000  0.5332960000000  0.4246050000000 1.0
C      1  0.5068310000000  0.4434690000000  0.4224170000000 1.0
C      1  0.5292640000000  0.4757310000000  0.5196570000000 1.0
C      1  0.4612650000000  0.4899970000000  0.5142280000000 1.0
C      1  0.5091880000000  0.5346970000000  0.5177720000000 1.0
C      1  0.5134060000000  0.4696920000000  0.4891160000000 1.0
C      1  0.4627780000000  0.4989700000000  0.4846790000000 1.0
C      1  0.5016060000000  0.5391890000000  0.4895160000000 1.0
C      1  0.5928990000000  0.4760400000000  0.4877880000000 1.0
C      1  0.4385180000000  0.4298380000000  0.4880370000000 1.0
C      1  0.4724900000000  0.5824070000000  0.4894310000000 1.0
C      1  0.5878710000000  0.4827660000000  0.5098480000000 1.0
C      1  0.4434650000000  0.4295420000000  0.5105000000000 1.0
C      1  0.4729580000000  0.5889300000000  0.5119570000000 1.0
C      1  0.4742110000000  0.5105460000000  0.4135180000000 1.0
C      1  0.5248420000000  0.5156570000000  0.4138580000000 1.0
C      1  0.5057600000000  0.4704330000000  0.4130900000000 1.0
C      1  0.4739500000000  0.5103460000000  0.5869450000000 1.0
C      1  0.5238650000000  0.5169470000000  0.5879370000000 1.0
C      1  0.5049120000000  0.4716850000000  0.5843470000000 1.0
C      1  0.4246540000000  0.5178460000000  0.4772290000000 1.0
C      1  0.5582980000000  0.5566790000000  0.4763790000000 1.0
C      1  0.5229790000000  0.4220800000000  0.4729280000000 1.0
C      1  0.4190160000000  0.5196390000000  0.5275140000000 1.0
C      1  0.5581050000000  0.5599970000000  0.5275070000000 1.0
C      1  0.5214330000000  0.4234820000000  0.5209930000000 1.0
C      1  0.5004670000000  0.5142040000000  0.5381770000000 1.0
C      1  0.5234720000000  0.4954150000000  0.5385770000000 1.0
C      1  0.4801820000000  0.4832720000000  0.5351110000000 1.0
C      1  0.5014290000000  0.5122750000000  0.4575800000000 1.0
C      1  0.5292160000000  0.5028070000000  0.4628480000000 1.0
C      1  0.4785830000000  0.4940270000000  0.4609320000000 1.0
C      1  0.4972440000000  0.5397130000000  0.4433000000000 1.0
C      1  0.5427520000000  0.4815480000000  0.4436890000000 1.0
C      1  0.4690250000000  0.4754960000000  0.4406540000000 1.0
C      1  0.4955530000000  0.5380250000000  0.5576390000000 1.0
C      1  0.5418730000000  0.4838370000000  0.5577070000000 1.0
C      1  0.4632480000000  0.4736750000000  0.5588860000000 1.0
C      1  0.5742490000000  0.4999190000000  0.5263360000000 1.0
C      1  0.4603290000000  0.4378080000000  0.5310820000000 1.0
C      1  0.4647240000000  0.5656540000000  0.5265500000000 1.0
C      1  0.5763500000000  0.4924020000000  0.4711400000000 1.0
C      1  0.4583830000000  0.4503520000000  0.4772560000000 1.0
C      1  0.4692550000000  0.5616690000000  0.4718990000000 1.0
C      1  0.5691050000000  0.4945300000000  0.4428560000000 1.0
C      1  0.4652250000000  0.4483590000000  0.4484320000000 1.0
C      1  0.4727950000000  0.5558680000000  0.4453320000000 1.0
C      1  0.5667580000000  0.4980550000000  0.5547010000000 1.0
C      1  0.4604550000000  0.4441940000000  0.5593610000000 1.0
C      1  0.4727060000000  0.5553510000000  0.5532680000000 1.0
C      1  0.4723370000000  0.5367060000000  0.4859480000000 1.0
C      1  0.5501230000000  0.5031880000000  0.4827150000000 1.0
C      1  0.4884440000000  0.4481460000000  0.4951110000000 1.0
C      1  0.4548260000000  0.5432730000000  0.5084120000000 1.0
C      1  0.5578650000000  0.5171020000000  0.5069730000000 1.0
C      1  0.4841010000000  0.4543180000000  0.5234900000000 1.0
C      1  0.4154190000000  0.4921520000000  0.5167130000000 1.0
C      1  0.5353690000000  0.5751830000000  0.5160600000000 1.0
C      1  0.5475610000000  0.4336160000000  0.5124260000000 1.0
C      1  0.4200630000000  0.4905600000000  0.4868600000000 1.0
C      1  0.5356510000000  0.5730100000000  0.4855970000000 1.0
C      1  0.5465930000000  0.4376470000000  0.4816740000000 1.0
C      1  0.5498280000000  0.5432750000000  0.5510070000000 1.0
C      1  0.5063100000000  0.4397290000000  0.5429640000000 1.0
C      1  0.4356830000000  0.5240340000000  0.5511770000000 1.0
C      1  0.5508830000000  0.5400190000000  0.4527750000000 1.0
C      1  0.5102070000000  0.4314090000000  0.4484970000000 1.0
C      1  0.4342750000000  0.5243660000000  0.4504070000000 1.0
C      1  0.4981680000000  0.5268060000000  0.4168190000000 1.0
C      1  0.5269630000000  0.4872930000000  0.4192510000000 1.0
C      1  0.4800510000000  0.4822160000000  0.4145900000000 1.0
C      1  0.4969360000000  0.5264840000000  0.5844590000000 1.0
C      1  0.5273570000000  0.4887690000000  0.5827490000000 1.0
C      1  0.4787840000000  0.4830060000000  0.5823490000000 1.0
C      1  0.4286030000000  0.5328770000000  0.5027130000000 1.0
C      1  0.5054650000000  0.4241280000000  0.4966070000000 1.0
C      1  0.5646210000000  0.5449520000000  0.5029920000000 1.0
C      1  0.5054420000000  0.4976310000000  0.4929480000000 1.0
END
