TITL C-2441156-4686-651 -2.46060494694564e-07 125000 -5323.91521230802 0 0 35 (C7v) n - 1
REM
REM in /home/bkarasulu/work/CARBON/AIRSS/Generating-Clusters/ReaxFF-fromJPCA2015/Units_Real/with-SteepDescent/Higher-Symm
REM
REM
REM
REM
REM
REM ./C.cell (1df0a924f5614ab8850e4351716899ee)
REM
REM compiler GCC version 9.2.1 20190827 (Red Hat 9.2.1-1)
REM options -cpp -mtune=generic -march=x86-64 -g -O0 -fpre-include=/usr/include/finclude/math-vector-fortran.h
REM seed -732496868 -1792964722 -1612435834 -759861843 137927697 -1582887307 1749223174 1986065610 -1453408409 -1508830002 -550506556 -1221212341 -1205799576 523435666 -918544123 1992573730 -934057946 -611651097 1207658807 2110082127 -1322428335 -1516913726 -1809128821 -1915346995 1940623019 325922295 -409214690 1473050629 -212574863 -593004022 -1230794832 -145258201 -1013873380
REM
CELL 1.54180   50.00000   50.00000   50.00000   90.00000   90.00000   90.00000
LATT -1
SFAC C  
C      1  0.4756380000000  0.5016370000000  0.5590900000000 1.0
C      1  0.4756500000000  0.5472250000000  0.5355610000000 1.0
C      1  0.4756650000000  0.5572540000000  0.4852490000000 1.0
C      1  0.4756730000000  0.5241710000000  0.4460400000000 1.0
C      1  0.4756670000000  0.4728890000000  0.4474580000000 1.0
C      1  0.4756510000000  0.4420240000000  0.4884370000000 1.0
C      1  0.4756390000000  0.4548190000000  0.5381170000000 1.0
C      1  0.5057760000000  0.5244040000000  0.4455200000000 1.0
C      1  0.5057700000000  0.4726200000000  0.4469520000000 1.0
C      1  0.5057550000000  0.4414530000000  0.4883320000000 1.0
C      1  0.5057420000000  0.4543720000000  0.5384990000000 1.0
C      1  0.5057410000000  0.5016500000000  0.5596770000000 1.0
C      1  0.5057530000000  0.5476850000000  0.5359180000000 1.0
C      1  0.5057690000000  0.5578110000000  0.4851130000000 1.0
C      1  0.4591560000000  0.5336510000000  0.4913230000000 1.0
C      1  0.4591600000000  0.5142080000000  0.4682800000000 1.0
C      1  0.4591570000000  0.4840700000000  0.4691130000000 1.0
C      1  0.4591480000000  0.4659300000000  0.4931970000000 1.0
C      1  0.4591400000000  0.4734500000000  0.5223940000000 1.0
C      1  0.4591400000000  0.5009650000000  0.5347200000000 1.0
C      1  0.4591470000000  0.5277580000000  0.5208920000000 1.0
C      1  0.5398140000000  0.4680410000000  0.5082410000000 1.0
C      1  0.5398100000000  0.4865060000000  0.5301250000000 1.0
C      1  0.5398130000000  0.5151290000000  0.5293340000000 1.0
C      1  0.5398220000000  0.5323560000000  0.5064620000000 1.0
C      1  0.5398290000000  0.5252150000000  0.4787320000000 1.0
C      1  0.5398290000000  0.4990830000000  0.4670270000000 1.0
C      1  0.5398220000000  0.4736380000000  0.4801590000000 1.0
C      1  0.5196330000000  0.5408640000000  0.4655250000000 1.0
C      1  0.5196330000000  0.4985190000000  0.4465570000000 1.0
C      1  0.5196220000000  0.4572880000000  0.4678370000000 1.0
C      1  0.5196080000000  0.4482180000000  0.5133400000000 1.0
C      1  0.5196020000000  0.4781390000000  0.5488030000000 1.0
C      1  0.5196080000000  0.5245200000000  0.5475200000000 1.0
C      1  0.5196210000000  0.5524360000000  0.5104580000000 1.0
END
