TITL C-2441158-471-659 0.0281397362885053 125000 -9072.76559528111 0 0 69 (C1) n - 1
REM
REM in /home/bkarasulu/work/CARBON/AIRSS/Generating-Clusters/ReaxFF-fromJPCA2015/Units_Real/with-SteepDescent/Higher-Symm
REM
REM
REM
REM
REM
REM ./C.cell (1df0a924f5614ab8850e4351716899ee)
REM
REM compiler GCC version 9.2.1 20190827 (Red Hat 9.2.1-1)
REM options -cpp -mtune=generic -march=x86-64 -g -O0 -fpre-include=/usr/include/finclude/math-vector-fortran.h
REM seed -1612426455 1438304525 383282136 443925916 -123103575 35061098 -1266269353 -1509833748 -1528438816 -1601669259 -1212380860 -67461421 1739861146 -733201319 54584581 -519517408 1759484152 -1833585163 1881665474 -300199507 1086089024 -997839818 944034003 610431705 1630711232 -1922649512 -1644291473 -46703167 111784952 586856805 -1579742429 1775692525 495126390
REM
CELL 1.54180   50.00000   50.00000   50.00000   90.00000   90.00000   90.00000
LATT -1
SFAC C  
C      1  0.4498990000000  0.4716870000000  0.4507970000000 1.0
C      1  0.4500100000000  0.5492870000000  0.4717410000000 1.0
C      1  0.4494910000000  0.5288960000000  0.5490110000000 1.0
C      1  0.4496550000000  0.4500600000000  0.5281040000000 1.0
C      1  0.4493210000000  0.4713420000000  0.5493250000000 1.0
C      1  0.4502630000000  0.5491770000000  0.5278120000000 1.0
C      1  0.4491150000000  0.5285790000000  0.4502450000000 1.0
C      1  0.4498530000000  0.4505610000000  0.4714640000000 1.0
C      1  0.5170890000000  0.4627250000000  0.5592370000000 1.0
C      1  0.5180710000000  0.4370730000000  0.4606160000000 1.0
C      1  0.5168780000000  0.5389210000000  0.4398260000000 1.0
C      1  0.5168440000000  0.5592110000000  0.5371010000000 1.0
C      1  0.5165440000000  0.4637000000000  0.4415880000000 1.0
C      1  0.5175050000000  0.4392630000000  0.5384730000000 1.0
C      1  0.5172230000000  0.5387440000000  0.5597110000000 1.0
C      1  0.5168680000000  0.5593590000000  0.4624950000000 1.0
C      1  0.5146490000000  0.4825900000000  0.5330610000000 1.0
C      1  0.5148050000000  0.4646880000000  0.4884990000000 1.0
C      1  0.5058950000000  0.5077290000000  0.4739480000000 1.0
C      1  0.5153710000000  0.5331230000000  0.5147560000000 1.0
C      1  0.5113170000000  0.4802640000000  0.4661360000000 1.0
C      1  0.5052430000000  0.4748510000000  0.5090870000000 1.0
C      1  0.5062200000000  0.5094520000000  0.5264190000000 1.0
C      1  0.5149860000000  0.5329770000000  0.4853340000000 1.0
C      1  0.5393950000000  0.5661960000000  0.5143020000000 1.0
C      1  0.5382750000000  0.4849220000000  0.5648630000000 1.0
C      1  0.5381190000000  0.4341690000000  0.4814900000000 1.0
C      1  0.5378510000000  0.5184920000000  0.4364460000000 1.0
C      1  0.5398780000000  0.5656990000000  0.4847510000000 1.0
C      1  0.5392270000000  0.4849540000000  0.4359620000000 1.0
C      1  0.5379350000000  0.4380040000000  0.5180550000000 1.0
C      1  0.5382360000000  0.5177160000000  0.5624000000000 1.0
C      1  0.4642340000000  0.5714520000000  0.5148820000000 1.0
C      1  0.4643980000000  0.4853870000000  0.5703620000000 1.0
C      1  0.4649770000000  0.4289350000000  0.4847760000000 1.0
C      1  0.4645400000000  0.5155400000000  0.4294160000000 1.0
C      1  0.4648080000000  0.5706870000000  0.4849940000000 1.0
C      1  0.4641600000000  0.4852300000000  0.4287070000000 1.0
C      1  0.4654160000000  0.4295340000000  0.5145610000000 1.0
C      1  0.4647960000000  0.5154220000000  0.5702350000000 1.0
C      1  0.4640050000000  0.5129590000000  0.5306230000000 1.0
C      1  0.4648940000000  0.4694030000000  0.5128160000000 1.0
C      1  0.4657260000000  0.4873630000000  0.4690700000000 1.0
C      1  0.4664040000000  0.5309870000000  0.4870710000000 1.0
C      1  0.4654160000000  0.5131880000000  0.4685890000000 1.0
C      1  0.4655860000000  0.4693450000000  0.4871440000000 1.0
C      1  0.4651500000000  0.4870850000000  0.5309590000000 1.0
C      1  0.4657330000000  0.5302160000000  0.5133330000000 1.0
C      1  0.4925650000000  0.4258640000000  0.4728110000000 1.0
C      1  0.4927070000000  0.5263310000000  0.4270850000000 1.0
C      1  0.4919400000000  0.5734130000000  0.5252710000000 1.0
C      1  0.4918030000000  0.4751000000000  0.5733590000000 1.0
C      1  0.4934710000000  0.4273650000000  0.5252520000000 1.0
C      1  0.4933730000000  0.5261060000000  0.5723340000000 1.0
C      1  0.4926110000000  0.5733170000000  0.4744360000000 1.0
C      1  0.4915540000000  0.4752390000000  0.4256560000000 1.0
C      1  0.5515650000000  0.4864110000000  0.4615220000000 1.0
C      1  0.5482370000000  0.5368900000000  0.4841780000000 1.0
C      1  0.5515850000000  0.5154630000000  0.5371300000000 1.0
C      1  0.5521420000000  0.4619160000000  0.5156000000000 1.0
C      1  0.5494640000000  0.4852440000000  0.5368820000000 1.0
C      1  0.5485100000000  0.5370440000000  0.5157850000000 1.0
C      1  0.5518780000000  0.5155340000000  0.4618700000000 1.0
C      1  0.5485040000000  0.4623870000000  0.4857500000000 1.0
C      1  0.5032170000000  0.5003510000000  0.4257010000000 1.0
C      1  0.5039390000000  0.5736540000000  0.5001650000000 1.0
C      1  0.5033980000000  0.5001280000000  0.5733290000000 1.0
C      1  0.5027960000000  0.4320610000000  0.4983480000000 1.0
C      1  0.4985720000000  0.4988360000000  0.5015140000000 1.0
END
