TITL C-2441156-4686-1299 0.0321986721505454 125000 -7038.02994167446 0 0 59 (C1) n - 1
REM
REM in /home/bkarasulu/work/CARBON/AIRSS/Generating-Clusters/ReaxFF-fromJPCA2015/Units_Real/with-SteepDescent/Higher-Symm
REM
REM
REM
REM
REM
REM ./C.cell (1df0a924f5614ab8850e4351716899ee)
REM
REM compiler GCC version 9.2.1 20190827 (Red Hat 9.2.1-1)
REM options -cpp -mtune=generic -march=x86-64 -g -O0 -fpre-include=/usr/include/finclude/math-vector-fortran.h
REM seed 403988998 -246434544 804413573 -23022035 833856220 1802085754 -1091027350 1733050340 -1460553998 711217067 -328042734 515704079 -809413905 -1109566817 -1922192450 -27270863 -589003934 932483915 10954739 995091313 1407623563 -560000842 1700989364 -1299130034 27882472 1195018217 -77674492 1168907884 441794557 -1990042728 -1438192546 -55907758 -262215114
REM
CELL 1.54180   50.00000   50.00000   50.00000   90.00000   90.00000   90.00000
LATT -1
SFAC C  
C      1  0.4764650000000  0.4510970000000  0.5274530000000 1.0
C      1  0.5060630000000  0.4541710000000  0.5289230000000 1.0
C      1  0.5319260000000  0.4468070000000  0.5154260000000 1.0
C      1  0.5316640000000  0.4522270000000  0.4868570000000 1.0
C      1  0.5111190000000  0.4493800000000  0.4668180000000 1.0
C      1  0.4833150000000  0.4413460000000  0.4765470000000 1.0
C      1  0.4659070000000  0.4492900000000  0.5005210000000 1.0
C      1  0.4720130000000  0.4840000000000  0.5624400000000 1.0
C      1  0.5338410000000  0.4829970000000  0.5613480000000 1.0
C      1  0.5696640000000  0.4813920000000  0.5195340000000 1.0
C      1  0.5524520000000  0.4844760000000  0.4559430000000 1.0
C      1  0.5057620000000  0.4815900000000  0.4275590000000 1.0
C      1  0.4456840000000  0.4840380000000  0.4583310000000 1.0
C      1  0.4308510000000  0.4818700000000  0.5119970000000 1.0
C      1  0.4747090000000  0.5555220000000  0.5139360000000 1.0
C      1  0.4923630000000  0.5550850000000  0.5348630000000 1.0
C      1  0.5206130000000  0.5545410000000  0.5275870000000 1.0
C      1  0.5270250000000  0.5520840000000  0.4992980000000 1.0
C      1  0.5230970000000  0.5597570000000  0.4706180000000 1.0
C      1  0.4939320000000  0.5553670000000  0.4738340000000 1.0
C      1  0.4673340000000  0.5545070000000  0.4871750000000 1.0
C      1  0.5458600000000  0.4789250000000  0.4793350000000 1.0
C      1  0.5139970000000  0.4717040000000  0.4503610000000 1.0
C      1  0.4722210000000  0.4779710000000  0.4610250000000 1.0
C      1  0.4494280000000  0.4711480000000  0.4975270000000 1.0
C      1  0.4636380000000  0.4734400000000  0.5417410000000 1.0
C      1  0.5124290000000  0.4788320000000  0.5510800000000 1.0
C      1  0.5472770000000  0.4687430000000  0.5242600000000 1.0
C      1  0.4555130000000  0.5310220000000  0.4711460000000 1.0
C      1  0.4432750000000  0.5199400000000  0.5230820000000 1.0
C      1  0.4818380000000  0.5308180000000  0.5542730000000 1.0
C      1  0.5307580000000  0.5330180000000  0.5471680000000 1.0
C      1  0.5622910000000  0.5206880000000  0.4964670000000 1.0
C      1  0.5340970000000  0.5375000000000  0.4515410000000 1.0
C      1  0.4867060000000  0.5194390000000  0.4376000000000 1.0
C      1  0.4573020000000  0.5329790000000  0.4431090000000 1.0
C      1  0.4228490000000  0.5313410000000  0.5112880000000 1.0
C      1  0.4607260000000  0.5311940000000  0.5687380000000 1.0
C      1  0.5302340000000  0.5321200000000  0.5729330000000 1.0
C      1  0.5757240000000  0.5320400000000  0.5183350000000 1.0
C      1  0.5593810000000  0.5305130000000  0.4621850000000 1.0
C      1  0.5127240000000  0.5295950000000  0.4302020000000 1.0
C      1  0.4789010000000  0.4892690000000  0.4350780000000 1.0
C      1  0.4305090000000  0.4860150000000  0.4812630000000 1.0
C      1  0.4420110000000  0.4902360000000  0.5368950000000 1.0
C      1  0.4956850000000  0.4835690000000  0.5689930000000 1.0
C      1  0.5563800000000  0.4834390000000  0.5469830000000 1.0
C      1  0.5685120000000  0.4893910000000  0.4921920000000 1.0
C      1  0.5345110000000  0.4855800000000  0.4359760000000 1.0
C      1  0.4698380000000  0.5120780000000  0.5100520000000 1.0
C      1  0.4880960000000  0.5123130000000  0.5302330000000 1.0
C      1  0.5174480000000  0.5078980000000  0.5305070000000 1.0
C      1  0.5322010000000  0.5110260000000  0.5058940000000 1.0
C      1  0.5232730000000  0.4996540000000  0.4829020000000 1.0
C      1  0.5006620000000  0.5133050000000  0.4738710000000 1.0
C      1  0.4723420000000  0.5061710000000  0.4809030000000 1.0
C      1  0.5026530000000  0.5350320000000  0.4937410000000 1.0
C      1  0.4952210000000  0.4219450000000  0.4926990000000 1.0
C      1  0.5022850000000  0.4709400000000  0.5040250000000 1.0
END
