TITL C-2441163-1170-1154 0.0453747022268228 125000 -20572.0429126701 0 0 144 (C1) n - 1
REM
REM in /home/bkarasulu/work/CARBON/AIRSS/Generating-Clusters/ReaxFF-fromJPCA2015/Units_Real/with-SteepDescent/Higher-Symm
REM
REM
REM
REM
REM
REM ./C.cell (1df0a924f5614ab8850e4351716899ee)
REM
REM compiler GCC version 9.2.1 20190827 (Red Hat 9.2.1-1)
REM options -cpp -mtune=generic -march=x86-64 -g -O0 -fpre-include=/usr/include/finclude/math-vector-fortran.h
REM seed -1000582088 -1829048167 -1535002724 -375907189 -377341931 -1011408023 -584184264 -506344657 133622548 -1930680242 12831879 -1103141063 -254178452 677022796 -694121534 -2068255513 -526100719 477049133 -1018242925 -1996050419 2127877765 -1448174213 1284663827 -166113666 1431581981 1426302640 -402473658 1528596158 -521671337 -1328961492 1382145443 508005531 -1386076518
REM
CELL 1.54180   50.00000   50.00000   50.00000   90.00000   90.00000   90.00000
LATT -1
SFAC C  
C      1  0.4876550000000  0.4427580000000  0.5538270000000 1.0
C      1  0.4451410000000  0.5559930000000  0.4869120000000 1.0
C      1  0.5110680000000  0.4458700000000  0.4478620000000 1.0
C      1  0.5550830000000  0.5545550000000  0.5129340000000 1.0
C      1  0.5994980000000  0.5483730000000  0.5008630000000 1.0
C      1  0.4991460000000  0.4514450000000  0.5997160000000 1.0
C      1  0.4003700000000  0.5489150000000  0.4981670000000 1.0
C      1  0.5040190000000  0.4551970000000  0.3976720000000 1.0
C      1  0.4912280000000  0.5204980000000  0.5513820000000 1.0
C      1  0.4485480000000  0.4806170000000  0.4912220000000 1.0
C      1  0.5079660000000  0.5227860000000  0.4521200000000 1.0
C      1  0.5485400000000  0.4775580000000  0.5120780000000 1.0
C      1  0.4538810000000  0.4143330000000  0.4820860000000 1.0
C      1  0.5191940000000  0.5833020000000  0.4535190000000 1.0
C      1  0.5447800000000  0.4154300000000  0.5189810000000 1.0
C      1  0.4810790000000  0.5842200000000  0.5464020000000 1.0
C      1  0.4579950000000  0.5099870000000  0.5262540000000 1.0
C      1  0.4737070000000  0.4814050000000  0.4565870000000 1.0
C      1  0.5372110000000  0.5152190000000  0.4797620000000 1.0
C      1  0.5194960000000  0.4856370000000  0.5401260000000 1.0
C      1  0.4241400000000  0.5577870000000  0.4496430000000 1.0
C      1  0.5476890000000  0.4428440000000  0.4246690000000 1.0
C      1  0.5762170000000  0.5569730000000  0.5496050000000 1.0
C      1  0.4519450000000  0.4471590000000  0.5746290000000 1.0
C      1  0.5389930000000  0.5838830000000  0.4755820000000 1.0
C      1  0.5231470000000  0.4142340000000  0.5390830000000 1.0
C      1  0.4611750000000  0.5848100000000  0.5241100000000 1.0
C      1  0.4775160000000  0.4105860000000  0.4636130000000 1.0
C      1  0.4416500000000  0.4406760000000  0.4372590000000 1.0
C      1  0.5643700000000  0.5576470000000  0.4399270000000 1.0
C      1  0.5605200000000  0.4410090000000  0.5644880000000 1.0
C      1  0.4347820000000  0.5592330000000  0.5595890000000 1.0
C      1  0.5081160000000  0.5275920000000  0.4050200000000 1.0
C      1  0.5932480000000  0.4722440000000  0.5089490000000 1.0
C      1  0.4912860000000  0.5274520000000  0.5939950000000 1.0
C      1  0.4058370000000  0.4731270000000  0.4909860000000 1.0
C      1  0.5652510000000  0.5155160000000  0.4875160000000 1.0
C      1  0.5097910000000  0.4832210000000  0.5672330000000 1.0
C      1  0.4317740000000  0.5162450000000  0.5142890000000 1.0
C      1  0.4921810000000  0.4853780000000  0.4306760000000 1.0
C      1  0.4645750000000  0.4165910000000  0.5322990000000 1.0
C      1  0.4674380000000  0.5841160000000  0.4658210000000 1.0
C      1  0.5350030000000  0.4155250000000  0.4671900000000 1.0
C      1  0.5320990000000  0.5824500000000  0.5336040000000 1.0
C      1  0.5422990000000  0.5490790000000  0.4229160000000 1.0
C      1  0.5771610000000  0.4494770000000  0.5424660000000 1.0
C      1  0.4574590000000  0.5512430000000  0.5762360000000 1.0
C      1  0.4235380000000  0.4502040000000  0.4583270000000 1.0
C      1  0.5813540000000  0.5164740000000  0.4427110000000 1.0
C      1  0.5573650000000  0.4832470000000  0.5806990000000 1.0
C      1  0.4185940000000  0.5165930000000  0.5578710000000 1.0
C      1  0.4513890000000  0.4822910000000  0.4369740000000 1.0
C      1  0.5552410000000  0.4317650000000  0.4524170000000 1.0
C      1  0.5477510000000  0.5674050000000  0.5547890000000 1.0
C      1  0.4450150000000  0.4341600000000  0.5479310000000 1.0
C      1  0.4522460000000  0.5697420000000  0.4442590000000 1.0
C      1  0.5059150000000  0.5559840000000  0.4865760000000 1.0
C      1  0.5148800000000  0.4479300000000  0.5019030000000 1.0
C      1  0.4969880000000  0.5510230000000  0.5145810000000 1.0
C      1  0.4860960000000  0.4480490000000  0.4948020000000 1.0
C      1  0.4908430000000  0.5039260000000  0.4046710000000 1.0
C      1  0.5938480000000  0.4972990000000  0.4934750000000 1.0
C      1  0.5059690000000  0.5020890000000  0.5945680000000 1.0
C      1  0.4043140000000  0.4982650000000  0.5066810000000 1.0
C      1  0.5594980000000  0.5663000000000  0.4671230000000 1.0
C      1  0.5325140000000  0.4376950000000  0.5547830000000 1.0
C      1  0.4384270000000  0.5693780000000  0.5328110000000 1.0
C      1  0.4678270000000  0.4327270000000  0.4478180000000 1.0
C      1  0.5809620000000  0.4478790000000  0.4973180000000 1.0
C      1  0.5031030000000  0.5512030000000  0.5821160000000 1.0
C      1  0.4181290000000  0.4489230000000  0.5028760000000 1.0
C      1  0.4962350000000  0.5514090000000  0.4179690000000 1.0
C      1  0.4628170000000  0.5250970000000  0.5881690000000 1.0
C      1  0.4113260000000  0.4767380000000  0.4630490000000 1.0
C      1  0.5366030000000  0.5226450000000  0.4111050000000 1.0
C      1  0.5884600000000  0.4764020000000  0.5371340000000 1.0
C      1  0.4808900000000  0.4859670000000  0.5600020000000 1.0
C      1  0.4407950000000  0.5071080000000  0.4864400000000 1.0
C      1  0.5165650000000  0.4957740000000  0.4446820000000 1.0
C      1  0.5576550000000  0.5046910000000  0.5144070000000 1.0
C      1  0.4789200000000  0.4381570000000  0.5816350000000 1.0
C      1  0.4179140000000  0.5628550000000  0.4780330000000 1.0
C      1  0.5193830000000  0.4401790000000  0.4192390000000 1.0
C      1  0.5822200000000  0.5622830000000  0.5212650000000 1.0
C      1  0.5694190000000  0.4330120000000  0.5190440000000 1.0
C      1  0.4816420000000  0.5667460000000  0.5708440000000 1.0
C      1  0.4302360000000  0.4338200000000  0.4816250000000 1.0
C      1  0.5185340000000  0.5657920000000  0.4294610000000 1.0
C      1  0.5863290000000  0.5025970000000  0.5521530000000 1.0
C      1  0.4471670000000  0.4999620000000  0.5855060000000 1.0
C      1  0.4138120000000  0.5030310000000  0.4472560000000 1.0
C      1  0.5524400000000  0.4970950000000  0.4136010000000 1.0
C      1  0.5867720000000  0.5303080000000  0.5471780000000 1.0
C      1  0.4616360000000  0.4755010000000  0.5798580000000 1.0
C      1  0.4138250000000  0.5311060000000  0.4516110000000 1.0
C      1  0.5476110000000  0.4694450000000  0.4135120000000 1.0
C      1  0.5204450000000  0.4555710000000  0.5791310000000 1.0
C      1  0.4206250000000  0.5461950000000  0.5204270000000 1.0
C      1  0.4816330000000  0.4591960000000  0.4160580000000 1.0
C      1  0.5782260000000  0.5453620000000  0.4797640000000 1.0
C      1  0.5317090000000  0.4733550000000  0.4569860000000 1.0
C      1  0.5438530000000  0.5291480000000  0.5292330000000 1.0
C      1  0.4691850000000  0.4675280000000  0.5400710000000 1.0
C      1  0.4557040000000  0.5311580000000  0.4688550000000 1.0
C      1  0.4962900000000  0.5783040000000  0.4706000000000 1.0
C      1  0.5293110000000  0.4213900000000  0.4952920000000 1.0
C      1  0.5034350000000  0.5779070000000  0.5297390000000 1.0
C      1  0.4696350000000  0.4232870000000  0.5043180000000 1.0
C      1  0.4721370000000  0.4697700000000  0.5098610000000 1.0
C      1  0.4844820000000  0.5255530000000  0.4690890000000 1.0
C      1  0.5281580000000  0.4708410000000  0.4886430000000 1.0
C      1  0.5145430000000  0.5293800000000  0.5248300000000 1.0
C      1  0.4739920000000  0.5333640000000  0.5320590000000 1.0
C      1  0.4831620000000  0.4536270000000  0.4630300000000 1.0
C      1  0.5232770000000  0.5385760000000  0.4712680000000 1.0
C      1  0.5297910000000  0.4613330000000  0.5290010000000 1.0
C      1  0.5032840000000  0.4830210000000  0.3916610000000 1.0
C      1  0.6051550000000  0.5210780000000  0.5000720000000 1.0
C      1  0.4995390000000  0.4787500000000  0.6066640000000 1.0
C      1  0.3933810000000  0.5218600000000  0.4984090000000 1.0
C      1  0.4538240000000  0.5288050000000  0.4385920000000 1.0
C      1  0.5615950000000  0.4733230000000  0.4568200000000 1.0
C      1  0.5432760000000  0.5264880000000  0.5604410000000 1.0
C      1  0.4396490000000  0.4754550000000  0.5407000000000 1.0
C      1  0.4271570000000  0.4506150000000  0.5314520000000 1.0
C      1  0.4674060000000  0.5517690000000  0.4267510000000 1.0
C      1  0.5725410000000  0.4489360000000  0.4684780000000 1.0
C      1  0.5315780000000  0.5502420000000  0.5723870000000 1.0
C      1  0.4805860000000  0.4970060000000  0.5100580000000 1.0
C      1  0.4866980000000  0.5001490000000  0.4805970000000 1.0
C      1  0.5164460000000  0.4970680000000  0.4902050000000 1.0
C      1  0.5088370000000  0.5023980000000  0.5185120000000 1.0
C      1  0.5637920000000  0.5082400000000  0.5739040000000 1.0
C      1  0.4272430000000  0.4920280000000  0.5637610000000 1.0
C      1  0.4374970000000  0.5063580000000  0.4286330000000 1.0
C      1  0.5745760000000  0.4918020000000  0.4361630000000 1.0
C      1  0.4937050000000  0.4174240000000  0.5412210000000 1.0
C      1  0.4594110000000  0.5798220000000  0.4941150000000 1.0
C      1  0.5067420000000  0.4184600000000  0.4594180000000 1.0
C      1  0.5409260000000  0.5783290000000  0.5051460000000 1.0
C      1  0.5509350000000  0.4581050000000  0.5867310000000 1.0
C      1  0.4119590000000  0.5419750000000  0.5507790000000 1.0
C      1  0.4526470000000  0.4599120000000  0.4181250000000 1.0
C      1  0.5877400000000  0.5412750000000  0.4492220000000 1.0
END
