TITL C-2441165-58-1299 0.0760075930437424 125000 -15248.0849185476 0 0 117 (C1) n - 1
REM
REM in /home/bkarasulu/work/CARBON/AIRSS/Generating-Clusters/ReaxFF-fromJPCA2015/Units_Real/with-SteepDescent/Higher-Symm
REM
REM
REM
REM
REM
REM ./C.cell (1df0a924f5614ab8850e4351716899ee)
REM
REM compiler GCC version 9.2.1 20190827 (Red Hat 9.2.1-1)
REM options -cpp -mtune=generic -march=x86-64 -g -O0 -fpre-include=/usr/include/finclude/math-vector-fortran.h
REM seed -163319404 -423053288 1902301442 115488611 693654612 1068774959 -1510602802 1578407239 906006713 -2127560804 -1320715474 -1300785153 -1621224697 -349175048 1839313380 -782703394 1245756335 1662265765 -921777125 1134149175 -1071513709 669756284 -1332348564 -1375249439 -760042902 1651176577 324739376 -515144704 121105061 -2044190437 -822223922 367836015 500712205
REM
CELL 1.54180   50.00000   50.00000   50.00000   90.00000   90.00000   90.00000
LATT -1
SFAC C  
C      1  0.5426430000000  0.4875390000000  0.5183880000000 1.0
C      1  0.5063220000000  0.5425160000000  0.4758640000000 1.0
C      1  0.4838400000000  0.5147560000000  0.5412510000000 1.0
C      1  0.5422210000000  0.5134690000000  0.4837810000000 1.0
C      1  0.4559910000000  0.5185670000000  0.5076440000000 1.0
C      1  0.4543400000000  0.4845620000000  0.4846390000000 1.0
C      1  0.5064890000000  0.4576070000000  0.5225050000000 1.0
C      1  0.4924930000000  0.4616220000000  0.4747850000000 1.0
C      1  0.4934550000000  0.5454580000000  0.5180130000000 1.0
C      1  0.4927690000000  0.4853890000000  0.4578210000000 1.0
C      1  0.5107380000000  0.4831790000000  0.5407950000000 1.0
C      1  0.5141710000000  0.5142800000000  0.4743400000000 1.0
C      1  0.4519240000000  0.4889980000000  0.5117650000000 1.0
C      1  0.4837550000000  0.5461330000000  0.4905790000000 1.0
C      1  0.5128390000000  0.5131570000000  0.5427590000000 1.0
C      1  0.4605330000000  0.5105020000000  0.4794940000000 1.0
C      1  0.5451330000000  0.5139410000000  0.5113130000000 1.0
C      1  0.5419140000000  0.4747030000000  0.4930030000000 1.0
C      1  0.4811470000000  0.4554600000000  0.5069530000000 1.0
C      1  0.5193560000000  0.4596730000000  0.4852420000000 1.0
C      1  0.5210150000000  0.5469730000000  0.5077460000000 1.0
C      1  0.5181490000000  0.4946670000000  0.4522730000000 1.0
C      1  0.4825490000000  0.4867790000000  0.5435420000000 1.0
C      1  0.4759630000000  0.5072460000000  0.4565850000000 1.0
C      1  0.4208400000000  0.4657340000000  0.4679920000000 1.0
C      1  0.4650900000000  0.4237080000000  0.4653080000000 1.0
C      1  0.4675660000000  0.4631250000000  0.4244710000000 1.0
C      1  0.4193980000000  0.5364380000000  0.5366050000000 1.0
C      1  0.5762180000000  0.5391560000000  0.4687100000000 1.0
C      1  0.5791180000000  0.4609370000000  0.5310380000000 1.0
C      1  0.4625470000000  0.5754190000000  0.5351130000000 1.0
C      1  0.5371460000000  0.5747870000000  0.4655820000000 1.0
C      1  0.5380560000000  0.4259930000000  0.5350240000000 1.0
C      1  0.4717150000000  0.5402120000000  0.5755830000000 1.0
C      1  0.5327820000000  0.5372950000000  0.4243620000000 1.0
C      1  0.5315830000000  0.4634220000000  0.5755380000000 1.0
C      1  0.5745660000000  0.4653200000000  0.4627430000000 1.0
C      1  0.5388950000000  0.4235660000000  0.4698070000000 1.0
C      1  0.5348500000000  0.4635450000000  0.4211030000000 1.0
C      1  0.5747540000000  0.5355180000000  0.5352930000000 1.0
C      1  0.4245290000000  0.5320040000000  0.4633260000000 1.0
C      1  0.4241760000000  0.4644470000000  0.5352200000000 1.0
C      1  0.5365670000000  0.5749490000000  0.5363700000000 1.0
C      1  0.4709100000000  0.5769700000000  0.4608460000000 1.0
C      1  0.4642560000000  0.4259570000000  0.5367050000000 1.0
C      1  0.5343780000000  0.5368960000000  0.5744020000000 1.0
C      1  0.4666700000000  0.5380300000000  0.4252810000000 1.0
C      1  0.4666240000000  0.4647830000000  0.5742030000000 1.0
C      1  0.5623380000000  0.5613010000000  0.5282830000000 1.0
C      1  0.5249980000000  0.5609200000000  0.5594270000000 1.0
C      1  0.5608410000000  0.5289510000000  0.5614690000000 1.0
C      1  0.5682330000000  0.4379990000000  0.4727280000000 1.0
C      1  0.4381520000000  0.4390370000000  0.5278960000000 1.0
C      1  0.4361910000000  0.5533360000000  0.4779040000000 1.0
C      1  0.5220000000000  0.4428070000000  0.4377910000000 1.0
C      1  0.4750120000000  0.4400910000000  0.5598700000000 1.0
C      1  0.4790680000000  0.5623230000000  0.4368370000000 1.0
C      1  0.5593840000000  0.4716960000000  0.4380580000000 1.0
C      1  0.4385380000000  0.4698210000000  0.5620090000000 1.0
C      1  0.4407060000000  0.5286080000000  0.4380190000000 1.0
C      1  0.4375890000000  0.5605540000000  0.5294390000000 1.0
C      1  0.4747800000000  0.5671010000000  0.5623070000000 1.0
C      1  0.4368710000000  0.5230020000000  0.5563620000000 1.0
C      1  0.4401150000000  0.4346860000000  0.4757840000000 1.0
C      1  0.5629150000000  0.4363270000000  0.5234810000000 1.0
C      1  0.5627260000000  0.5652500000000  0.4762120000000 1.0
C      1  0.4714930000000  0.4370210000000  0.4386870000000 1.0
C      1  0.5278380000000  0.4387660000000  0.5600150000000 1.0
C      1  0.5292590000000  0.5627710000000  0.4391660000000 1.0
C      1  0.4439420000000  0.4743560000000  0.4363120000000 1.0
C      1  0.5538530000000  0.4764640000000  0.5649870000000 1.0
C      1  0.5549940000000  0.5236230000000  0.4377470000000 1.0
C      1  0.4855940000000  0.4151470000000  0.4860220000000 1.0
C      1  0.4865670000000  0.4842020000000  0.4141950000000 1.0
C      1  0.4106100000000  0.4848870000000  0.4866230000000 1.0
C      1  0.4850190000000  0.5865200000000  0.5139650000000 1.0
C      1  0.5164330000000  0.5859650000000  0.4855870000000 1.0
C      1  0.5153680000000  0.4145540000000  0.5159920000000 1.0
C      1  0.4871160000000  0.5179530000000  0.5861560000000 1.0
C      1  0.5140960000000  0.5168600000000  0.4137960000000 1.0
C      1  0.5136020000000  0.4845070000000  0.5857610000000 1.0
C      1  0.4125250000000  0.5155250000000  0.5157460000000 1.0
C      1  0.5866250000000  0.5168220000000  0.4863900000000 1.0
C      1  0.5870130000000  0.4841870000000  0.5127970000000 1.0
C      1  0.5168310000000  0.4143790000000  0.4871190000000 1.0
C      1  0.5153620000000  0.4844360000000  0.4123400000000 1.0
C      1  0.5850510000000  0.4867420000000  0.4838350000000 1.0
C      1  0.5147940000000  0.5857770000000  0.5153120000000 1.0
C      1  0.4868010000000  0.5877010000000  0.4838360000000 1.0
C      1  0.4852980000000  0.4147140000000  0.5155030000000 1.0
C      1  0.5155440000000  0.5159080000000  0.5855180000000 1.0
C      1  0.4858550000000  0.5157040000000  0.4147690000000 1.0
C      1  0.4850850000000  0.4855730000000  0.5850310000000 1.0
C      1  0.5854090000000  0.5152630000000  0.5156440000000 1.0
C      1  0.4139100000000  0.5141850000000  0.4854430000000 1.0
C      1  0.4121240000000  0.4854450000000  0.5171090000000 1.0
C      1  0.5445490000000  0.4963670000000  0.4424950000000 1.0
C      1  0.4400840000000  0.4956290000000  0.5598600000000 1.0
C      1  0.4429810000000  0.5450950000000  0.5047670000000 1.0
C      1  0.5018490000000  0.4413360000000  0.5472320000000 1.0
C      1  0.5565960000000  0.5034630000000  0.5645810000000 1.0
C      1  0.4529060000000  0.5022020000000  0.4391080000000 1.0
C      1  0.4501970000000  0.4419180000000  0.5019720000000 1.0
C      1  0.5586690000000  0.4499820000000  0.4975780000000 1.0
C      1  0.5511780000000  0.5575200000000  0.5016750000000 1.0
C      1  0.5037490000000  0.5552920000000  0.4502020000000 1.0
C      1  0.4984030000000  0.5591820000000  0.5468940000000 1.0
C      1  0.4961010000000  0.4443400000000  0.4508180000000 1.0
C      1  0.4640620000000  0.5517390000000  0.4718340000000 1.0
C      1  0.4684060000000  0.4726780000000  0.5263020000000 1.0
C      1  0.5328870000000  0.4476040000000  0.4628810000000 1.0
C      1  0.5541160000000  0.4722770000000  0.5388930000000 1.0
C      1  0.5534380000000  0.5291310000000  0.4635610000000 1.0
C      1  0.4638500000000  0.5305970000000  0.5514060000000 1.0
C      1  0.5303580000000  0.5290360000000  0.5271290000000 1.0
C      1  0.4462250000000  0.4667360000000  0.4647680000000 1.0
C      1  0.4997110000000  0.5011690000000  0.4985170000000 1.0
END
