TITL C-2441167-4473-825 0.124030388156614 125000 -18814.2909028855 0 0 146 (C1) n - 1
REM
REM in /home/bkarasulu/work/CARBON/AIRSS/Generating-Clusters/ReaxFF-fromJPCA2015/Units_Real/with-SteepDescent/Higher-Symm
REM
REM
REM
REM
REM
REM ./C.cell (1df0a924f5614ab8850e4351716899ee)
REM
REM compiler GCC version 9.2.1 20190827 (Red Hat 9.2.1-1)
REM options -cpp -mtune=generic -march=x86-64 -g -O0 -fpre-include=/usr/include/finclude/math-vector-fortran.h
REM seed 1315357849 -1852430429 -1263606298 1603934123 -2021480268 1001071889 -35588047 -1062593334 762162528 -646763352 -1613896387 -1630447554 -2034150580 -1417640475 546122756 -1180020288 -1509615519 -1043911672 -976032006 2081550794 621703969 766292333 -1079492446 -774980615 1941061645 2131103169 967971266 -1653959199 118846481 -873725074 -477021894 -1210048136 98968062
REM
CELL 1.54180   50.00000   50.00000   50.00000   90.00000   90.00000   90.00000
LATT -1
SFAC C  
C      1  0.4360880000000  0.5374260000000  0.5739930000000 1.0
C      1  0.4479840000000  0.4408960000000  0.5669790000000 1.0
C      1  0.5426730000000  0.4354190000000  0.5671840000000 1.0
C      1  0.5691660000000  0.5194420000000  0.5703860000000 1.0
C      1  0.5143900000000  0.5763660000000  0.5679640000000 1.0
C      1  0.4897040000000  0.4351310000000  0.5163050000000 1.0
C      1  0.5657920000000  0.4662650000000  0.5088230000000 1.0
C      1  0.5556260000000  0.5576610000000  0.5059040000000 1.0
C      1  0.4511040000000  0.5698400000000  0.5096030000000 1.0
C      1  0.4375190000000  0.4908810000000  0.5130350000000 1.0
C      1  0.5263400000000  0.5059480000000  0.4381070000000 1.0
C      1  0.5115230000000  0.5242810000000  0.4524250000000 1.0
C      1  0.4845670000000  0.5140240000000  0.4578270000000 1.0
C      1  0.4890400000000  0.4852030000000  0.4546400000000 1.0
C      1  0.5179400000000  0.4818820000000  0.4514530000000 1.0
C      1  0.5506290000000  0.5318050000000  0.4180130000000 1.0
C      1  0.4868480000000  0.5507940000000  0.4227280000000 1.0
C      1  0.4464390000000  0.5013860000000  0.4159480000000 1.0
C      1  0.4861840000000  0.4494100000000  0.4220380000000 1.0
C      1  0.5437000000000  0.4657200000000  0.4112320000000 1.0
C      1  0.5865920000000  0.5420230000000  0.4694920000000 1.0
C      1  0.4854510000000  0.5950390000000  0.4722840000000 1.0
C      1  0.4092500000000  0.5218710000000  0.4605600000000 1.0
C      1  0.4535310000000  0.4259870000000  0.4501720000000 1.0
C      1  0.5552440000000  0.4309150000000  0.4719540000000 1.0
C      1  0.4479060000000  0.4442840000000  0.5374060000000 1.0
C      1  0.5367640000000  0.4336980000000  0.5389130000000 1.0
C      1  0.5831250000000  0.5075530000000  0.5243310000000 1.0
C      1  0.5239100000000  0.5847760000000  0.5275690000000 1.0
C      1  0.4275370000000  0.5294400000000  0.5349140000000 1.0
C      1  0.5648750000000  0.4816500000000  0.5574110000000 1.0
C      1  0.5354560000000  0.5579490000000  0.5635860000000 1.0
C      1  0.4489130000000  0.5580490000000  0.5579180000000 1.0
C      1  0.4228450000000  0.4855880000000  0.5586450000000 1.0
C      1  0.4952980000000  0.4246340000000  0.5626870000000 1.0
C      1  0.5222530000000  0.5138910000000  0.4094890000000 1.0
C      1  0.4927970000000  0.5241670000000  0.4108100000000 1.0
C      1  0.4765760000000  0.5008440000000  0.4106350000000 1.0
C      1  0.4928850000000  0.4755660000000  0.4099660000000 1.0
C      1  0.5204320000000  0.4839940000000  0.4047430000000 1.0
C      1  0.5268850000000  0.5134550000000  0.5797780000000 1.0
C      1  0.5030410000000  0.5264120000000  0.5697110000000 1.0
C      1  0.4649810000000  0.5094360000000  0.5805140000000 1.0
C      1  0.4826560000000  0.4748400000000  0.5685860000000 1.0
C      1  0.5231490000000  0.4758210000000  0.5656340000000 1.0
C      1  0.4145810000000  0.4503320000000  0.4802220000000 1.0
C      1  0.5183220000000  0.4046580000000  0.4821670000000 1.0
C      1  0.5940690000000  0.4958340000000  0.4791030000000 1.0
C      1  0.5310430000000  0.5909900000000  0.4801380000000 1.0
C      1  0.4244660000000  0.5620180000000  0.4755560000000 1.0
C      1  0.5055560000000  0.5277640000000  0.5368600000000 1.0
C      1  0.4788640000000  0.5121250000000  0.5304680000000 1.0
C      1  0.4863440000000  0.4798460000000  0.5391520000000 1.0
C      1  0.5196700000000  0.4813360000000  0.5365790000000 1.0
C      1  0.5273600000000  0.5102800000000  0.5264130000000 1.0
C      1  0.4647090000000  0.5812100000000  0.5473530000000 1.0
C      1  0.4085490000000  0.4740800000000  0.5356590000000 1.0
C      1  0.4953810000000  0.4088990000000  0.5406600000000 1.0
C      1  0.5838620000000  0.4481250000000  0.5414840000000 1.0
C      1  0.5744020000000  0.5636990000000  0.5409890000000 1.0
C      1  0.4727490000000  0.4564700000000  0.5268760000000 1.0
C      1  0.5347830000000  0.4570650000000  0.5213860000000 1.0
C      1  0.5571410000000  0.5198130000000  0.5186960000000 1.0
C      1  0.5047500000000  0.5605830000000  0.5247710000000 1.0
C      1  0.4489840000000  0.5112610000000  0.5292620000000 1.0
C      1  0.4409410000000  0.4480220000000  0.4662920000000 1.0
C      1  0.5260570000000  0.4301590000000  0.4705960000000 1.0
C      1  0.5757240000000  0.5156290000000  0.4660730000000 1.0
C      1  0.5084480000000  0.5789280000000  0.4656250000000 1.0
C      1  0.4353140000000  0.5380060000000  0.4625640000000 1.0
C      1  0.5504840000000  0.5748230000000  0.5280260000000 1.0
C      1  0.4272680000000  0.5564920000000  0.5226060000000 1.0
C      1  0.4196240000000  0.4477900000000  0.5284730000000 1.0
C      1  0.5226820000000  0.4098280000000  0.5308400000000 1.0
C      1  0.5824710000000  0.4794760000000  0.5347760000000 1.0
C      1  0.4481080000000  0.4934740000000  0.4865480000000 1.0
C      1  0.4854880000000  0.4626310000000  0.4754120000000 1.0
C      1  0.5284950000000  0.4815720000000  0.4781340000000 1.0
C      1  0.5250490000000  0.5285780000000  0.4758980000000 1.0
C      1  0.4805420000000  0.5336620000000  0.4799500000000 1.0
C      1  0.5532790000000  0.5726950000000  0.4821030000000 1.0
C      1  0.4466350000000  0.5781880000000  0.4817080000000 1.0
C      1  0.4044300000000  0.4775960000000  0.4824900000000 1.0
C      1  0.4889800000000  0.4029110000000  0.4816540000000 1.0
C      1  0.5804100000000  0.4708400000000  0.4823960000000 1.0
C      1  0.4577840000000  0.4394000000000  0.4239900000000 1.0
C      1  0.5316190000000  0.4410860000000  0.4157400000000 1.0
C      1  0.5701250000000  0.5166130000000  0.4323410000000 1.0
C      1  0.5062440000000  0.5699370000000  0.4340650000000 1.0
C      1  0.4340670000000  0.5241680000000  0.4233540000000 1.0
C      1  0.4315130000000  0.4855770000000  0.4380240000000 1.0
C      1  0.5006080000000  0.4330070000000  0.4439540000000 1.0
C      1  0.5627240000000  0.4673240000000  0.4359940000000 1.0
C      1  0.5499920000000  0.5532180000000  0.4377820000000 1.0
C      1  0.4638690000000  0.5611600000000  0.4378670000000 1.0
C      1  0.5330360000000  0.5067470000000  0.4913320000000 1.0
C      1  0.5054260000000  0.5401540000000  0.4891980000000 1.0
C      1  0.4756830000000  0.5190250000000  0.5024280000000 1.0
C      1  0.4734130000000  0.4814480000000  0.4925170000000 1.0
C      1  0.5104990000000  0.4638540000000  0.4885490000000 1.0
C      1  0.4230650000000  0.5157000000000  0.5602730000000 1.0
C      1  0.4706850000000  0.4261470000000  0.5671110000000 1.0
C      1  0.5660540000000  0.4528990000000  0.5639200000000 1.0
C      1  0.5631390000000  0.5457600000000  0.5622990000000 1.0
C      1  0.4921230000000  0.5722100000000  0.5499560000000 1.0
C      1  0.4394850000000  0.5496300000000  0.4284200000000 1.0
C      1  0.4410070000000  0.4616630000000  0.4272020000000 1.0
C      1  0.5178210000000  0.4237820000000  0.4223230000000 1.0
C      1  0.5721210000000  0.4903160000000  0.4252320000000 1.0
C      1  0.5304380000000  0.5649810000000  0.4220480000000 1.0
C      1  0.4475370000000  0.4203710000000  0.4975920000000 1.0
C      1  0.5602100000000  0.4195940000000  0.4988150000000 1.0
C      1  0.5993460000000  0.5402710000000  0.4954440000000 1.0
C      1  0.4877100000000  0.6028190000000  0.5006640000000 1.0
C      1  0.4090470000000  0.5239450000000  0.4910270000000 1.0
C      1  0.5203900000000  0.5351230000000  0.5947100000000 1.0
C      1  0.4787970000000  0.5311210000000  0.5847350000000 1.0
C      1  0.4611560000000  0.4833410000000  0.5843060000000 1.0
C      1  0.5047130000000  0.4626520000000  0.5831880000000 1.0
C      1  0.5362040000000  0.4879970000000  0.5873390000000 1.0
C      1  0.4388610000000  0.5210870000000  0.4862380000000 1.0
C      1  0.4597170000000  0.4440160000000  0.4874130000000 1.0
C      1  0.5169440000000  0.4422860000000  0.5024350000000 1.0
C      1  0.5578960000000  0.5141090000000  0.4906990000000 1.0
C      1  0.4987660000000  0.5643000000000  0.4967010000000 1.0
C      1  0.5831890000000  0.5544430000000  0.5145340000000 1.0
C      1  0.4684240000000  0.5893870000000  0.5195140000000 1.0
C      1  0.4079050000000  0.4900490000000  0.5101030000000 1.0
C      1  0.4745300000000  0.4110820000000  0.5062840000000 1.0
C      1  0.5754170000000  0.4385930000000  0.5154320000000 1.0
C      1  0.4098540000000  0.4928600000000  0.4585310000000 1.0
C      1  0.4793570000000  0.4151880000000  0.4572500000000 1.0
C      1  0.5700980000000  0.4539670000000  0.4613680000000 1.0
C      1  0.5665180000000  0.5600900000000  0.4613000000000 1.0
C      1  0.4643910000000  0.5811880000000  0.4596770000000 1.0
C      1  0.6016100000000  0.5117510000000  0.5022440000000 1.0
C      1  0.5169510000000  0.6000310000000  0.5040320000000 1.0
C      1  0.4105860000000  0.5523150000000  0.4990360000000 1.0
C      1  0.4207350000000  0.4338250000000  0.5031180000000 1.0
C      1  0.5358170000000  0.4048920000000  0.5057180000000 1.0
C      1  0.5260050000000  0.5618900000000  0.5903420000000 1.0
C      1  0.4582490000000  0.5488960000000  0.5842540000000 1.0
C      1  0.4395510000000  0.4686170000000  0.5744840000000 1.0
C      1  0.5157260000000  0.4357860000000  0.5788390000000 1.0
C      1  0.5649400000000  0.4952140000000  0.5829440000000 1.0
C      1  0.4951110000000  0.4993390000000  0.4943030000000 1.0
END
