TITL C-2441158-471-449 0.0761955621473522 125000 -25525.7565676881 0 0 180 (C1) n - 1
REM
REM in /home/bkarasulu/work/CARBON/AIRSS/Generating-Clusters/ReaxFF-fromJPCA2015/Units_Real/with-SteepDescent/Higher-Symm
REM
REM
REM
REM
REM
REM ./C.cell (1df0a924f5614ab8850e4351716899ee)
REM
REM compiler GCC version 9.2.1 20190827 (Red Hat 9.2.1-1)
REM options -cpp -mtune=generic -march=x86-64 -g -O0 -fpre-include=/usr/include/finclude/math-vector-fortran.h
REM seed 1544405663 1775181929 1828666531 -640367123 1615215815 -958952325 -750554530 -320151298 1690333667 984685052 2066512133 1562822659 729173308 -803442651 188185706 1808006377 252187903 1980902542 -1377633150 -2003512291 -2120223257 -549387000 1607512857 -471168602 -1875443444 -1311078932 1471626583 1383053275 -314029028 51350260 384226469 1454450754 1148603155
REM
CELL 1.54180   50.00000   50.00000   50.00000   90.00000   90.00000   90.00000
LATT -1
SFAC C  
C      1  0.4722130000000  0.4351210000000  0.4255200000000 1.0
C      1  0.4263120000000  0.4907550000000  0.4281930000000 1.0
C      1  0.4581830000000  0.5580980000000  0.4224810000000 1.0
C      1  0.5308200000000  0.5670070000000  0.4176330000000 1.0
C      1  0.5768030000000  0.5096090000000  0.4248410000000 1.0
C      1  0.5450190000000  0.4423520000000  0.4225520000000 1.0
C      1  0.4709490000000  0.4333770000000  0.5801340000000 1.0
C      1  0.4246560000000  0.4913140000000  0.5736090000000 1.0
C      1  0.4587850000000  0.5578780000000  0.5738360000000 1.0
C      1  0.5309290000000  0.5670170000000  0.5830890000000 1.0
C      1  0.5740680000000  0.5080920000000  0.5729640000000 1.0
C      1  0.5428050000000  0.4423420000000  0.5767870000000 1.0
C      1  0.4776770000000  0.5187850000000  0.4292100000000 1.0
C      1  0.5006540000000  0.5337840000000  0.4376750000000 1.0
C      1  0.5242970000000  0.5160560000000  0.4397690000000 1.0
C      1  0.5174540000000  0.4862800000000  0.4360510000000 1.0
C      1  0.4901700000000  0.4806220000000  0.4293270000000 1.0
C      1  0.4715880000000  0.4962050000000  0.4431220000000 1.0
C      1  0.4831490000000  0.5195790000000  0.5640600000000 1.0
C      1  0.5106300000000  0.5254250000000  0.5712850000000 1.0
C      1  0.5314550000000  0.5098700000000  0.5573490000000 1.0
C      1  0.5199420000000  0.4850670000000  0.5685470000000 1.0
C      1  0.4936000000000  0.4760260000000  0.5606640000000 1.0
C      1  0.4701690000000  0.4929470000000  0.5594270000000 1.0
C      1  0.5144680000000  0.4018100000000  0.4703470000000 1.0
C      1  0.4224120000000  0.4376820000000  0.4688970000000 1.0
C      1  0.4092680000000  0.5333340000000  0.4805750000000 1.0
C      1  0.4774620000000  0.6052080000000  0.4846500000000 1.0
C      1  0.5728820000000  0.5505090000000  0.4800340000000 1.0
C      1  0.5908310000000  0.4662010000000  0.4784150000000 1.0
C      1  0.5147540000000  0.4007850000000  0.5287430000000 1.0
C      1  0.4302070000000  0.4509490000000  0.5253800000000 1.0
C      1  0.4091370000000  0.5325460000000  0.5210700000000 1.0
C      1  0.4761370000000  0.6057380000000  0.5129650000000 1.0
C      1  0.5756110000000  0.5574020000000  0.5312200000000 1.0
C      1  0.5906390000000  0.4663050000000  0.5184470000000 1.0
C      1  0.5997580000000  0.5511360000000  0.5155560000000 1.0
C      1  0.6026060000000  0.4398680000000  0.5131590000000 1.0
C      1  0.4963440000000  0.3842290000000  0.5141780000000 1.0
C      1  0.4015870000000  0.4492020000000  0.5159960000000 1.0
C      1  0.3987610000000  0.5596880000000  0.5156030000000 1.0
C      1  0.5028330000000  0.6157580000000  0.5154570000000 1.0
C      1  0.6011960000000  0.5511260000000  0.4856570000000 1.0
C      1  0.6018850000000  0.4400140000000  0.4838960000000 1.0
C      1  0.4952310000000  0.3836520000000  0.4838850000000 1.0
C      1  0.4009290000000  0.4476640000000  0.4862690000000 1.0
C      1  0.3975420000000  0.5597030000000  0.4862410000000 1.0
C      1  0.5048550000000  0.6162640000000  0.4859370000000 1.0
C      1  0.5220410000000  0.4532040000000  0.4836060000000 1.0
C      1  0.4727600000000  0.4582730000000  0.4880270000000 1.0
C      1  0.4491820000000  0.5051430000000  0.4831250000000 1.0
C      1  0.4803050000000  0.5496390000000  0.4872510000000 1.0
C      1  0.5285670000000  0.5460400000000  0.4869600000000 1.0
C      1  0.5529710000000  0.4993910000000  0.4858920000000 1.0
C      1  0.5202010000000  0.4535710000000  0.5128330000000 1.0
C      1  0.4737390000000  0.4523110000000  0.5154530000000 1.0
C      1  0.4479610000000  0.4994840000000  0.5107750000000 1.0
C      1  0.4774410000000  0.5467800000000  0.5166130000000 1.0
C      1  0.5280720000000  0.5462800000000  0.5155920000000 1.0
C      1  0.5516690000000  0.4927880000000  0.5136670000000 1.0
C      1  0.5588540000000  0.4862780000000  0.5827660000000 1.0
C      1  0.5170470000000  0.4457420000000  0.5912250000000 1.0
C      1  0.4612630000000  0.4574220000000  0.5942450000000 1.0
C      1  0.4418190000000  0.5130500000000  0.5834850000000 1.0
C      1  0.4804120000000  0.5543050000000  0.5929280000000 1.0
C      1  0.5395210000000  0.5421520000000  0.5957320000000 1.0
C      1  0.5577520000000  0.4882620000000  0.4171640000000 1.0
C      1  0.5194980000000  0.4462180000000  0.4078240000000 1.0
C      1  0.4613360000000  0.4563200000000  0.4097470000000 1.0
C      1  0.4398650000000  0.5133970000000  0.4169890000000 1.0
C      1  0.4813190000000  0.5547760000000  0.4029570000000 1.0
C      1  0.5391860000000  0.5430120000000  0.4020870000000 1.0
C      1  0.4198310000000  0.5740010000000  0.5299110000000 1.0
C      1  0.5200750000000  0.5966410000000  0.5296690000000 1.0
C      1  0.6105630000000  0.5287040000000  0.5304170000000 1.0
C      1  0.5825840000000  0.4271330000000  0.5295850000000 1.0
C      1  0.4739070000000  0.4006330000000  0.5232920000000 1.0
C      1  0.3925090000000  0.4715610000000  0.5324940000000 1.0
C      1  0.4169060000000  0.5721690000000  0.4686110000000 1.0
C      1  0.5247930000000  0.5981300000000  0.4750260000000 1.0
C      1  0.6081440000000  0.5284790000000  0.4678230000000 1.0
C      1  0.5809400000000  0.4255060000000  0.4699840000000 1.0
C      1  0.4680750000000  0.3889560000000  0.4787690000000 1.0
C      1  0.3911150000000  0.4704490000000  0.4710400000000 1.0
C      1  0.4420380000000  0.4555380000000  0.4553370000000 1.0
C      1  0.4311470000000  0.5451870000000  0.4627910000000 1.0
C      1  0.4970730000000  0.5632860000000  0.4423860000000 1.0
C      1  0.5489030000000  0.5347600000000  0.4435280000000 1.0
C      1  0.5701310000000  0.4544310000000  0.4625420000000 1.0
C      1  0.5082970000000  0.4243030000000  0.4517920000000 1.0
C      1  0.4470330000000  0.4607020000000  0.5506970000000 1.0
C      1  0.4302460000000  0.5450720000000  0.5372740000000 1.0
C      1  0.4980900000000  0.5797660000000  0.5529490000000 1.0
C      1  0.5565930000000  0.5429460000000  0.5504690000000 1.0
C      1  0.5689160000000  0.4540720000000  0.5367330000000 1.0
C      1  0.5076670000000  0.4231070000000  0.5477150000000 1.0
C      1  0.5499250000000  0.4516390000000  0.4856260000000 1.0
C      1  0.4826000000000  0.4320970000000  0.4814170000000 1.0
C      1  0.4335220000000  0.4822050000000  0.4765100000000 1.0
C      1  0.4510050000000  0.5481880000000  0.4859850000000 1.0
C      1  0.5145870000000  0.5718330000000  0.4864080000000 1.0
C      1  0.5677320000000  0.5239890000000  0.4929090000000 1.0
C      1  0.5485890000000  0.4520310000000  0.5145280000000 1.0
C      1  0.4833900000000  0.4263510000000  0.5103160000000 1.0
C      1  0.4314710000000  0.4770550000000  0.5058790000000 1.0
C      1  0.4501130000000  0.5465570000000  0.5146230000000 1.0
C      1  0.5132690000000  0.5711210000000  0.5162510000000 1.0
C      1  0.5701800000000  0.5131350000000  0.5203310000000 1.0
C      1  0.5140170000000  0.5228050000000  0.5234810000000 1.0
C      1  0.5277290000000  0.4981250000000  0.5273510000000 1.0
C      1  0.5111540000000  0.4770500000000  0.5220490000000 1.0
C      1  0.4868130000000  0.4741460000000  0.5293290000000 1.0
C      1  0.4705490000000  0.5001520000000  0.5292220000000 1.0
C      1  0.4873550000000  0.5251790000000  0.5318340000000 1.0
C      1  0.5160930000000  0.5220550000000  0.4791520000000 1.0
C      1  0.5288170000000  0.4996260000000  0.4722590000000 1.0
C      1  0.5129580000000  0.4762030000000  0.4673330000000 1.0
C      1  0.4863920000000  0.4795860000000  0.4761280000000 1.0
C      1  0.4734080000000  0.5031100000000  0.4702530000000 1.0
C      1  0.4903410000000  0.5247820000000  0.4770540000000 1.0
C      1  0.5585900000000  0.5739930000000  0.4681940000000 1.0
C      1  0.6030560000000  0.4878760000000  0.4667560000000 1.0
C      1  0.5434430000000  0.4073260000000  0.4667960000000 1.0
C      1  0.4392350000000  0.4145230000000  0.4653210000000 1.0
C      1  0.3952520000000  0.5113240000000  0.4684400000000 1.0
C      1  0.4598830000000  0.5912560000000  0.4667000000000 1.0
C      1  0.5613290000000  0.5824620000000  0.5365200000000 1.0
C      1  0.6049480000000  0.4878550000000  0.5315440000000 1.0
C      1  0.5427290000000  0.4063750000000  0.5333330000000 1.0
C      1  0.4401620000000  0.4233920000000  0.5336800000000 1.0
C      1  0.3963840000000  0.5119040000000  0.5333770000000 1.0
C      1  0.4572810000000  0.5926340000000  0.5297930000000 1.0
C      1  0.5896000000000  0.5097690000000  0.5436760000000 1.0
C      1  0.5348470000000  0.4267310000000  0.5533440000000 1.0
C      1  0.4573490000000  0.4340570000000  0.5542140000000 1.0
C      1  0.4068660000000  0.4911940000000  0.5501220000000 1.0
C      1  0.4701330000000  0.5759260000000  0.5514400000000 1.0
C      1  0.5428920000000  0.5678220000000  0.5561780000000 1.0
C      1  0.5933370000000  0.5096190000000  0.4498990000000 1.0
C      1  0.5365780000000  0.4267420000000  0.4456400000000 1.0
C      1  0.4624350000000  0.4319240000000  0.4561770000000 1.0
C      1  0.4106210000000  0.4899840000000  0.4564140000000 1.0
C      1  0.4693540000000  0.5731900000000  0.4452700000000 1.0
C      1  0.5434610000000  0.5633760000000  0.4450440000000 1.0
C      1  0.5480260000000  0.5977590000000  0.5159890000000 1.0
C      1  0.6177610000000  0.5061840000000  0.5136830000000 1.0
C      1  0.5654870000000  0.4080460000000  0.5158900000000 1.0
C      1  0.4454690000000  0.4001700000000  0.5176520000000 1.0
C      1  0.3831120000000  0.4937630000000  0.5161120000000 1.0
C      1  0.4344710000000  0.5908120000000  0.5121510000000 1.0
C      1  0.5513180000000  0.5963760000000  0.4870350000000 1.0
C      1  0.6163410000000  0.5061490000000  0.4844460000000 1.0
C      1  0.5656200000000  0.4073370000000  0.4859710000000 1.0
C      1  0.4427240000000  0.3949940000000  0.4875090000000 1.0
C      1  0.3827450000000  0.4931390000000  0.4867060000000 1.0
C      1  0.4352230000000  0.5899670000000  0.4820680000000 1.0
C      1  0.5079740000000  0.4700950000000  0.6048930000000 1.0
C      1  0.4789780000000  0.4784930000000  0.6038950000000 1.0
C      1  0.4676640000000  0.5062570000000  0.6006540000000 1.0
C      1  0.4861660000000  0.5284380000000  0.6051470000000 1.0
C      1  0.5173770000000  0.5220460000000  0.6009060000000 1.0
C      1  0.5284970000000  0.4903700000000  0.5971680000000 1.0
C      1  0.5128770000000  0.4722170000000  0.3966900000000 1.0
C      1  0.4816720000000  0.4779370000000  0.4005750000000 1.0
C      1  0.4701880000000  0.5094830000000  0.4017530000000 1.0
C      1  0.4908460000000  0.5291630000000  0.3932020000000 1.0
C      1  0.5200620000000  0.5219460000000  0.3949910000000 1.0
C      1  0.5317680000000  0.4945470000000  0.3991250000000 1.0
C      1  0.5613450000000  0.4622310000000  0.5682490000000 1.0
C      1  0.4991680000000  0.4294640000000  0.5747260000000 1.0
C      1  0.4379690000000  0.4658390000000  0.5780950000000 1.0
C      1  0.4403330000000  0.5371250000000  0.5683270000000 1.0
C      1  0.5018880000000  0.5718320000000  0.5804470000000 1.0
C      1  0.5622500000000  0.5334050000000  0.5787280000000 1.0
C      1  0.5611210000000  0.4641900000000  0.4313280000000 1.0
C      1  0.5001130000000  0.4301730000000  0.4234890000000 1.0
C      1  0.4387700000000  0.4650180000000  0.4259050000000 1.0
C      1  0.4397080000000  0.5381850000000  0.4313970000000 1.0
C      1  0.5021460000000  0.5719570000000  0.4146140000000 1.0
C      1  0.5630330000000  0.5348660000000  0.4179020000000 1.0
END
