TITL C-2441169-1362-933 2.37766588965005e-06 125000 -9192.22045146664 0 0 61 (C1) n - 1
REM
REM in /home/bkarasulu/work/CARBON/AIRSS/Generating-Clusters/ReaxFF-fromJPCA2015/Units_Real/with-SteepDescent/Higher-Symm
REM
REM
REM
REM
REM
REM ./C.cell (1df0a924f5614ab8850e4351716899ee)
REM
REM compiler GCC version 9.2.1 20190827 (Red Hat 9.2.1-1)
REM options -cpp -mtune=generic -march=x86-64 -g -O0 -fpre-include=/usr/include/finclude/math-vector-fortran.h
REM seed 796411298 -878082387 -1585408850 990616207 1799337247 -520560377 -36490063 -1064439812 671541583 28813501 -2070853783 -1716974766 1418917244 1956863198 -1957784210 292431636 353057024 -1591371232 1511979335 -71297913 207833854 683694682 -1602478912 -799052792 -825308711 -2102673298 1953175522 1568384075 -679569909 900516715 -4632793 -497982089 1914277585
REM
CELL 1.54180   50.00000   50.00000   50.00000   90.00000   90.00000   90.00000
LATT -1
SFAC C  
C      1  0.4516750000000  0.4585000000000  0.5140440000000 1.0
C      1  0.4853900000000  0.4590580000000  0.4497940000000 1.0
C      1  0.5446530000000  0.4588690000000  0.4853320000000 1.0
C      1  0.5129920000000  0.4590220000000  0.5448130000000 1.0
C      1  0.4493570000000  0.4589490000000  0.4856510000000 1.0
C      1  0.4848220000000  0.4595680000000  0.5447780000000 1.0
C      1  0.5442200000000  0.4592720000000  0.5134900000000 1.0
C      1  0.5137320000000  0.4585400000000  0.4521780000000 1.0
C      1  0.4118150000000  0.4820930000000  0.5206520000000 1.0
C      1  0.4918370000000  0.4819830000000  0.4084730000000 1.0
C      1  0.5845860000000  0.4804500000000  0.4859000000000 1.0
C      1  0.5143140000000  0.4803040000000  0.5847540000000 1.0
C      1  0.4079840000000  0.4817860000000  0.4921810000000 1.0
C      1  0.4851870000000  0.4811860000000  0.5846760000000 1.0
C      1  0.5838640000000  0.4812250000000  0.5150130000000 1.0
C      1  0.5203160000000  0.4822640000000  0.4123300000000 1.0
C      1  0.4714260000000  0.5418410000000  0.4509320000000 1.0
C      1  0.5478290000000  0.5457620000000  0.4724540000000 1.0
C      1  0.5282480000000  0.5468900000000  0.5491240000000 1.0
C      1  0.4514400000000  0.5440480000000  0.5283930000000 1.0
C      1  0.4719280000000  0.5446330000000  0.5477570000000 1.0
C      1  0.5480260000000  0.5457740000000  0.5274600000000 1.0
C      1  0.5282180000000  0.5449750000000  0.4516480000000 1.0
C      1  0.4501310000000  0.5418570000000  0.4717420000000 1.0
C      1  0.4381840000000  0.5225880000000  0.5159840000000 1.0
C      1  0.4871390000000  0.5216350000000  0.4371540000000 1.0
C      1  0.5615890000000  0.5246480000000  0.4857880000000 1.0
C      1  0.5142120000000  0.5249950000000  0.5623460000000 1.0
C      1  0.4365030000000  0.5215340000000  0.4874190000000 1.0
C      1  0.4854320000000  0.5240420000000  0.5614940000000 1.0
C      1  0.5611290000000  0.5241050000000  0.5143760000000 1.0
C      1  0.5156580000000  0.5227880000000  0.4386580000000 1.0
C      1  0.4273140000000  0.4726790000000  0.4746520000000 1.0
C      1  0.5334790000000  0.4744890000000  0.4377570000000 1.0
C      1  0.5604520000000  0.4754440000000  0.5319050000000 1.0
C      1  0.4675220000000  0.4754500000000  0.5616760000000 1.0
C      1  0.4372860000000  0.4744650000000  0.5339100000000 1.0
C      1  0.5317920000000  0.4744930000000  0.5616070000000 1.0
C      1  0.5620730000000  0.4742200000000  0.4676090000000 1.0
C      1  0.4743600000000  0.4728020000000  0.4277970000000 1.0
C      1  0.5339140000000  0.5659060000000  0.5136500000000 1.0
C      1  0.4850590000000  0.5666100000000  0.5343800000000 1.0
C      1  0.4629640000000  0.5650090000000  0.4847700000000 1.0
C      1  0.5133100000000  0.5664380000000  0.4649570000000 1.0
C      1  0.5339100000000  0.5662660000000  0.4860810000000 1.0
C      1  0.4841980000000  0.5649610000000  0.4640320000000 1.0
C      1  0.4636810000000  0.5660670000000  0.5139050000000 1.0
C      1  0.5140530000000  0.5679930000000  0.5343000000000 1.0
C      1  0.5288670000000  0.5019560000000  0.5724840000000 1.0
C      1  0.4283800000000  0.5016320000000  0.5315930000000 1.0
C      1  0.4752970000000  0.5000470000000  0.4222820000000 1.0
C      1  0.5723530000000  0.5018350000000  0.4712330000000 1.0
C      1  0.5312920000000  0.5017210000000  0.4290020000000 1.0
C      1  0.4216900000000  0.4999060000000  0.4756240000000 1.0
C      1  0.4719050000000  0.5017820000000  0.5717800000000 1.0
C      1  0.5709500000000  0.5018390000000  0.5282090000000 1.0
C      1  0.5193250000000  0.4496000000000  0.4779740000000 1.0
C      1  0.4776130000000  0.4499170000000  0.5197550000000 1.0
C      1  0.4749830000000  0.4524390000000  0.4753360000000 1.0
C      1  0.5186310000000  0.4506950000000  0.5189730000000 1.0
C      1  0.4953870000000  0.4421560000000  0.4956940000000 1.0
END
