TITL C-2441156-4686-254 -0.000361245764666124 125000 -1232.67714943054 0 0 10 (C1) n - 1
REM
REM in /home/bkarasulu/work/CARBON/AIRSS/Generating-Clusters/ReaxFF-fromJPCA2015/Units_Real/with-SteepDescent/Higher-Symm
REM
REM
REM
REM
REM
REM ./C.cell (1df0a924f5614ab8850e4351716899ee)
REM
REM compiler GCC version 9.2.1 20190827 (Red Hat 9.2.1-1)
REM options -cpp -mtune=generic -march=x86-64 -g -O0 -fpre-include=/usr/include/finclude/math-vector-fortran.h
REM seed -2145412952 -882756972 -49300845 897506297 -114700314 1149100400 1584123621 -1617683273 -1644443260 757522793 1719203777 -1027328134 -2103286489 1889955602 -3672363 -565990882 1187527194 1577319407 -1005825453 -705799942 741611340 1577215084 1928196668 -787069714 -572599481 306110860 1577528496 -1789260762 1601999878 -839375115 1950604981 -1962519276 1635146854
REM
CELL 1.54180   50.00000   50.00000   50.00000   90.00000   90.00000   90.00000
LATT -1
SFAC C  
C      1  0.5127920000000  0.4865760000000  0.5205160000000 1.0
C      1  0.4936720000000  0.5332240000000  0.5388580000000 1.0
C      1  0.4822900000000  0.5082660000000  0.4891980000000 1.0
C      1  0.5240220000000  0.4792660000000  0.4915020000000 1.0
C      1  0.5470580000000  0.4698290000000  0.4867350000000 1.0
C      1  0.5026820000000  0.4891350000000  0.4457230000000 1.0
C      1  0.4920560000000  0.5058150000000  0.5192850000000 1.0
C      1  0.5031490000000  0.4921030000000  0.4705950000000 1.0
C      1  0.4609860000000  0.5195860000000  0.4812230000000 1.0
C      1  0.4812930000000  0.5162000000000  0.5563650000000 1.0
END
