TITL C-2441156-4686-442 0.0171049978464464 125000 -6933.68110219724 0 0 51 (Cs) n - 1
REM
REM in /home/bkarasulu/work/CARBON/AIRSS/Generating-Clusters/ReaxFF-fromJPCA2015/Units_Real/with-SteepDescent/Higher-Symm
REM
REM
REM
REM
REM
REM ./C.cell (1df0a924f5614ab8850e4351716899ee)
REM
REM compiler GCC version 9.2.1 20190827 (Red Hat 9.2.1-1)
REM options -cpp -mtune=generic -march=x86-64 -g -O0 -fpre-include=/usr/include/finclude/math-vector-fortran.h
REM seed 219590755 -1406845650 -257838635 -1240595143 420692756 272085065 1852590906 1276527824 -1781651156 -1690824426 1759241654 -1704724296 1099586474 -243552670 -403881762 -1884437255 -1635967291 -504874954 -947552090 -1375305844 1407304282 -505086575 -111622416 565887339 1383497024 783514561 63647295 -791554122 1887561343 -505772237 -296395948 -1034758970 1967475538
REM
CELL 1.54180   50.00000   50.00000   50.00000   90.00000   90.00000   90.00000
LATT -1
SFAC C  
C      1  0.4526030000000  0.4489840000000  0.4851300000000 1.0
C      1  0.5676050000000  0.4845350000000  0.4851930000000 1.0
C      1  0.4794510000000  0.5657950000000  0.4853160000000 1.0
C      1  0.4526120000000  0.4489880000000  0.5140810000000 1.0
C      1  0.5675860000000  0.4845380000000  0.5140020000000 1.0
C      1  0.4794410000000  0.5658020000000  0.5138970000000 1.0
C      1  0.4526150000000  0.5510120000000  0.4851270000000 1.0
C      1  0.5676020000000  0.5154650000000  0.4851900000000 1.0
C      1  0.4794460000000  0.4342060000000  0.4853100000000 1.0
C      1  0.4526030000000  0.5510200000000  0.5140740000000 1.0
C      1  0.5675820000000  0.5154640000000  0.5140000000000 1.0
C      1  0.4794600000000  0.4342270000000  0.5138860000000 1.0
C      1  0.5071040000000  0.4423480000000  0.5198270000000 1.0
C      1  0.5471000000000  0.5355730000000  0.5196460000000 1.0
C      1  0.4455290000000  0.5230550000000  0.5198430000000 1.0
C      1  0.5070860000000  0.4423570000000  0.4793990000000 1.0
C      1  0.5471140000000  0.5355680000000  0.4795460000000 1.0
C      1  0.4455360000000  0.5230440000000  0.4793700000000 1.0
C      1  0.5070770000000  0.5576430000000  0.5198210000000 1.0
C      1  0.5471020000000  0.4644300000000  0.5196480000000 1.0
C      1  0.4455370000000  0.4769510000000  0.5198270000000 1.0
C      1  0.5070880000000  0.5576440000000  0.4793920000000 1.0
C      1  0.5471190000000  0.4644320000000  0.4795460000000 1.0
C      1  0.4455490000000  0.4769500000000  0.4793830000000 1.0
C      1  0.5026220000000  0.5336140000000  0.5332480000000 1.0
C      1  0.4707850000000  0.4849620000000  0.5324910000000 1.0
C      1  0.5270930000000  0.4808810000000  0.5332030000000 1.0
C      1  0.5026200000000  0.5336110000000  0.4659700000000 1.0
C      1  0.4708040000000  0.4849610000000  0.4667250000000 1.0
C      1  0.5271110000000  0.4808820000000  0.4660060000000 1.0
C      1  0.5026240000000  0.4663630000000  0.5332560000000 1.0
C      1  0.4707950000000  0.5150320000000  0.5324900000000 1.0
C      1  0.5271060000000  0.5191090000000  0.5332100000000 1.0
C      1  0.5026270000000  0.4663820000000  0.4659680000000 1.0
C      1  0.4708090000000  0.5150320000000  0.4667240000000 1.0
C      1  0.5271120000000  0.5191150000000  0.4660050000000 1.0
C      1  0.5250940000000  0.4856910000000  0.5629140000000 1.0
C      1  0.5002670000000  0.5290430000000  0.5620250000000 1.0
C      1  0.4754560000000  0.4856190000000  0.5622710000000 1.0
C      1  0.5250920000000  0.4856810000000  0.4362910000000 1.0
C      1  0.5002650000000  0.5290370000000  0.4371940000000 1.0
C      1  0.4754630000000  0.4856090000000  0.4369260000000 1.0
C      1  0.5250990000000  0.5143030000000  0.5629180000000 1.0
C      1  0.5002620000000  0.4709520000000  0.5620260000000 1.0
C      1  0.4754590000000  0.5143770000000  0.5622690000000 1.0
C      1  0.5250920000000  0.5143190000000  0.4362900000000 1.0
C      1  0.5002640000000  0.4709610000000  0.4371950000000 1.0
C      1  0.4754620000000  0.5143890000000  0.4369280000000 1.0
C      1  0.4370360000000  0.5000480000000  0.4996020000000 1.0
C      1  0.5300260000000  0.4455190000000  0.4996080000000 1.0
C      1  0.5300100000000  0.5544770000000  0.4996130000000 1.0
END
