TITL C-2441164-471-490 0.0434584892092769 125000 -25016.9794409545 0 0 169 (C1) n - 1
REM
REM in /home/bkarasulu/work/CARBON/AIRSS/Generating-Clusters/ReaxFF-fromJPCA2015/Units_Real/with-SteepDescent/Higher-Symm
REM
REM
REM
REM
REM
REM ./C.cell (1df0a924f5614ab8850e4351716899ee)
REM
REM compiler GCC version 9.2.1 20190827 (Red Hat 9.2.1-1)
REM options -cpp -mtune=generic -march=x86-64 -g -O0 -fpre-include=/usr/include/finclude/math-vector-fortran.h
REM seed 562374035 -960240826 -302008563 -349183337 -858400955 -76773359 -1595488835 181365515 2028948604 1763152933 -1696703123 -1495233855 1575997151 -1917979456 -320953312 -1091210045 -1005510500 2048245089 -233317845 -1895880951 -526409115 -1033099945 1440933640 1996061119 -353179464 821003321 1753597780 1238835070 -668146469 -1046252312 989775532 -358919665 -1722716105
REM
CELL 1.54180   50.00000   50.00000   50.00000   90.00000   90.00000   90.00000
LATT -1
SFAC C  
C      1  0.3975960000000  0.5287520000000  0.4766330000000 1.0
C      1  0.6039310000000  0.5276560000000  0.4736780000000 1.0
C      1  0.3967090000000  0.4798260000000  0.4749330000000 1.0
C      1  0.6073570000000  0.4778900000000  0.4741250000000 1.0
C      1  0.6012170000000  0.4685240000000  0.5218760000000 1.0
C      1  0.4014780000000  0.4681340000000  0.5192000000000 1.0
C      1  0.5737230000000  0.5638850000000  0.5433580000000 1.0
C      1  0.4267090000000  0.5656190000000  0.5482930000000 1.0
C      1  0.5982210000000  0.5108990000000  0.5618200000000 1.0
C      1  0.4193530000000  0.5256520000000  0.5721740000000 1.0
C      1  0.5572180000000  0.4836510000000  0.4690830000000 1.0
C      1  0.4572750000000  0.5005140000000  0.4804480000000 1.0
C      1  0.4554840000000  0.5565030000000  0.4092680000000 1.0
C      1  0.5446450000000  0.5568540000000  0.4122770000000 1.0
C      1  0.4680210000000  0.5950330000000  0.5486250000000 1.0
C      1  0.5323430000000  0.5947250000000  0.5472860000000 1.0
C      1  0.5702480000000  0.5414560000000  0.5027910000000 1.0
C      1  0.4278710000000  0.5410810000000  0.5104150000000 1.0
C      1  0.4413300000000  0.5406790000000  0.5630020000000 1.0
C      1  0.5618780000000  0.5393470000000  0.5550940000000 1.0
C      1  0.4797010000000  0.5216420000000  0.4495710000000 1.0
C      1  0.5205550000000  0.5086990000000  0.4583700000000 1.0
C      1  0.4373070000000  0.5517660000000  0.4635530000000 1.0
C      1  0.5762740000000  0.5647700000000  0.4585850000000 1.0
C      1  0.4907560000000  0.4377170000000  0.4045960000000 1.0
C      1  0.5136090000000  0.4353510000000  0.4041040000000 1.0
C      1  0.5247090000000  0.4849760000000  0.5506850000000 1.0
C      1  0.4695120000000  0.4854260000000  0.5455790000000 1.0
C      1  0.5568090000000  0.5871080000000  0.5332180000000 1.0
C      1  0.4414290000000  0.5880000000000  0.5363150000000 1.0
C      1  0.5157130000000  0.5832080000000  0.5693460000000 1.0
C      1  0.4859700000000  0.5842890000000  0.5696200000000 1.0
C      1  0.5758030000000  0.4546070000000  0.5299440000000 1.0
C      1  0.4299900000000  0.4550730000000  0.5296810000000 1.0
C      1  0.4438190000000  0.4585440000000  0.5031090000000 1.0
C      1  0.5569320000000  0.4629960000000  0.5108810000000 1.0
C      1  0.5414560000000  0.4373060000000  0.4127390000000 1.0
C      1  0.4695550000000  0.4492580000000  0.4202420000000 1.0
C      1  0.5281110000000  0.4549380000000  0.5089950000000 1.0
C      1  0.4714760000000  0.4493280000000  0.4994950000000 1.0
C      1  0.4597120000000  0.5399590000000  0.5860110000000 1.0
C      1  0.5484940000000  0.5398120000000  0.5815660000000 1.0
C      1  0.4871360000000  0.4656580000000  0.4842510000000 1.0
C      1  0.5147800000000  0.4626200000000  0.4759800000000 1.0
C      1  0.5142570000000  0.5202590000000  0.3948660000000 1.0
C      1  0.4848930000000  0.5201420000000  0.3914220000000 1.0
C      1  0.6032210000000  0.5214590000000  0.5351810000000 1.0
C      1  0.4038620000000  0.5169600000000  0.5483610000000 1.0
C      1  0.4221270000000  0.5443590000000  0.4406660000000 1.0
C      1  0.5832380000000  0.5469470000000  0.4374050000000 1.0
C      1  0.5154380000000  0.5916810000000  0.5237340000000 1.0
C      1  0.4863520000000  0.5925380000000  0.5268210000000 1.0
C      1  0.4881590000000  0.5481290000000  0.4403290000000 1.0
C      1  0.5141410000000  0.5582970000000  0.4536520000000 1.0
C      1  0.5116800000000  0.5306860000000  0.4975410000000 1.0
C      1  0.4836580000000  0.5311470000000  0.4989640000000 1.0
C      1  0.5452150000000  0.4210650000000  0.4377030000000 1.0
C      1  0.4463170000000  0.4139720000000  0.4618130000000 1.0
C      1  0.4335490000000  0.5382530000000  0.4161850000000 1.0
C      1  0.5664080000000  0.5373710000000  0.4169840000000 1.0
C      1  0.4265130000000  0.4589360000000  0.4387670000000 1.0
C      1  0.5667880000000  0.4607680000000  0.4480550000000 1.0
C      1  0.5625410000000  0.4330880000000  0.5458380000000 1.0
C      1  0.4395260000000  0.4287560000000  0.5433480000000 1.0
C      1  0.5912080000000  0.5016260000000  0.4337340000000 1.0
C      1  0.4081950000000  0.5038740000000  0.4331250000000 1.0
C      1  0.4427580000000  0.4581760000000  0.5876910000000 1.0
C      1  0.5506550000000  0.4625370000000  0.5915380000000 1.0
C      1  0.5257410000000  0.4965320000000  0.4087720000000 1.0
C      1  0.4721070000000  0.4983800000000  0.4069180000000 1.0
C      1  0.4351460000000  0.4106260000000  0.4880600000000 1.0
C      1  0.5672700000000  0.4203100000000  0.4832280000000 1.0
C      1  0.4771080000000  0.5716330000000  0.5082110000000 1.0
C      1  0.5209560000000  0.5706200000000  0.5029150000000 1.0
C      1  0.4107640000000  0.5444790000000  0.5371330000000 1.0
C      1  0.5911720000000  0.5475640000000  0.5272590000000 1.0
C      1  0.4799250000000  0.4877520000000  0.6080480000000 1.0
C      1  0.5082710000000  0.4875380000000  0.6103880000000 1.0
C      1  0.5524970000000  0.4847090000000  0.5527450000000 1.0
C      1  0.4416720000000  0.4784590000000  0.5435050000000 1.0
C      1  0.4459550000000  0.4342790000000  0.5706220000000 1.0
C      1  0.5527100000000  0.4394760000000  0.5723040000000 1.0
C      1  0.4889780000000  0.5457560000000  0.5483720000000 1.0
C      1  0.5155370000000  0.5452130000000  0.5467260000000 1.0
C      1  0.4566830000000  0.5930850000000  0.4796900000000 1.0
C      1  0.5410150000000  0.5967280000000  0.4792600000000 1.0
C      1  0.5878300000000  0.4362800000000  0.4905110000000 1.0
C      1  0.4236080000000  0.4394420000000  0.4855580000000 1.0
C      1  0.5268650000000  0.4265230000000  0.5723030000000 1.0
C      1  0.4735880000000  0.4243360000000  0.5717880000000 1.0
C      1  0.4779100000000  0.4955570000000  0.4354750000000 1.0
C      1  0.5199250000000  0.4897470000000  0.4366500000000 1.0
C      1  0.6093400000000  0.5027590000000  0.4886600000000 1.0
C      1  0.3935740000000  0.5036420000000  0.4922800000000 1.0
C      1  0.4865720000000  0.4262120000000  0.5046760000000 1.0
C      1  0.5135170000000  0.4278790000000  0.5065300000000 1.0
C      1  0.5249480000000  0.4634250000000  0.6043510000000 1.0
C      1  0.4680540000000  0.4623400000000  0.6017770000000 1.0
C      1  0.5602580000000  0.4324450000000  0.4575390000000 1.0
C      1  0.4310080000000  0.4381580000000  0.4575780000000 1.0
C      1  0.5533400000000  0.4871800000000  0.4057710000000 1.0
C      1  0.4446050000000  0.4886570000000  0.4035830000000 1.0
C      1  0.5249630000000  0.5557310000000  0.5728900000000 1.0
C      1  0.4803420000000  0.5560410000000  0.5744630000000 1.0
C      1  0.5776400000000  0.4881170000000  0.5645390000000 1.0
C      1  0.4173890000000  0.4882400000000  0.5550480000000 1.0
C      1  0.4024610000000  0.5273320000000  0.4480790000000 1.0
C      1  0.5987720000000  0.5259420000000  0.4461330000000 1.0
C      1  0.4503950000000  0.5613880000000  0.5065270000000 1.0
C      1  0.5480690000000  0.5622200000000  0.5007030000000 1.0
C      1  0.5530550000000  0.5829380000000  0.4559960000000 1.0
C      1  0.4513460000000  0.5776340000000  0.4558860000000 1.0
C      1  0.4684300000000  0.5686270000000  0.4338530000000 1.0
C      1  0.5354040000000  0.5716680000000  0.4360240000000 1.0
C      1  0.5122100000000  0.4403620000000  0.5930700000000 1.0
C      1  0.4848460000000  0.4400720000000  0.5923780000000 1.0
C      1  0.4644480000000  0.5286550000000  0.4747870000000 1.0
C      1  0.5224820000000  0.5341000000000  0.4701370000000 1.0
C      1  0.4250040000000  0.4809080000000  0.5823880000000 1.0
C      1  0.5644040000000  0.4885050000000  0.5916320000000 1.0
C      1  0.5648510000000  0.4881060000000  0.4969090000000 1.0
C      1  0.4402770000000  0.4888420000000  0.4995610000000 1.0
C      1  0.4804870000000  0.4903090000000  0.4941320000000 1.0
C      1  0.5296050000000  0.4877760000000  0.4760430000000 1.0
C      1  0.5161920000000  0.4145260000000  0.5484060000000 1.0
C      1  0.4866090000000  0.4131740000000  0.5485790000000 1.0
C      1  0.4405160000000  0.5882650000000  0.5054490000000 1.0
C      1  0.5572910000000  0.5895020000000  0.5030910000000 1.0
C      1  0.5557890000000  0.4613890000000  0.4188380000000 1.0
C      1  0.4433350000000  0.4620320000000  0.4153400000000 1.0
C      1  0.5497370000000  0.5214140000000  0.5335950000000 1.0
C      1  0.4520360000000  0.5227890000000  0.5383770000000 1.0
C      1  0.4826830000000  0.4660160000000  0.4410810000000 1.0
C      1  0.5113690000000  0.4632730000000  0.4464360000000 1.0
C      1  0.5206730000000  0.4019780000000  0.4995860000000 1.0
C      1  0.4821280000000  0.4000490000000  0.4913740000000 1.0
C      1  0.6063430000000  0.4968310000000  0.5169290000000 1.0
C      1  0.3969440000000  0.4963090000000  0.5203010000000 1.0
C      1  0.4371620000000  0.5108540000000  0.5174910000000 1.0
C      1  0.5610590000000  0.5137760000000  0.5087980000000 1.0
C      1  0.4804260000000  0.5001020000000  0.5670730000000 1.0
C      1  0.5077730000000  0.5024110000000  0.5689560000000 1.0
C      1  0.4337050000000  0.5077190000000  0.5898190000000 1.0
C      1  0.5484460000000  0.5137080000000  0.5953910000000 1.0
C      1  0.5477740000000  0.4062040000000  0.5048700000000 1.0
C      1  0.4560450000000  0.4004800000000  0.5059540000000 1.0
C      1  0.4269690000000  0.5101890000000  0.4120670000000 1.0
C      1  0.5711150000000  0.5089680000000  0.4143390000000 1.0
C      1  0.5257450000000  0.5312840000000  0.5240250000000 1.0
C      1  0.4756190000000  0.5318980000000  0.5269210000000 1.0
C      1  0.5121510000000  0.5830650000000  0.4771370000000 1.0
C      1  0.4840230000000  0.5877610000000  0.4853790000000 1.0
C      1  0.4605810000000  0.4116760000000  0.5329250000000 1.0
C      1  0.5423450000000  0.4154270000000  0.5325660000000 1.0
C      1  0.4642480000000  0.5106450000000  0.5914230000000 1.0
C      1  0.5196450000000  0.5106690000000  0.5950070000000 1.0
C      1  0.5266200000000  0.5470960000000  0.3904330000000 1.0
C      1  0.4720340000000  0.5468820000000  0.3864570000000 1.0
C      1  0.5933780000000  0.4766950000000  0.4488380000000 1.0
C      1  0.4085250000000  0.4795370000000  0.4480410000000 1.0
C      1  0.4751750000000  0.4094510000000  0.4636340000000 1.0
C      1  0.5211970000000  0.4229020000000  0.4499950000000 1.0
C      1  0.4866370000000  0.4840490000000  0.5217220000000 1.0
C      1  0.5131260000000  0.4740430000000  0.5260960000000 1.0
C      1  0.3995430000000  0.4574560000000  0.4927590000000 1.0
C      1  0.6066740000000  0.4561690000000  0.4953180000000 1.0
C      1  0.5861690000000  0.5486760000000  0.4799690000000 1.0
C      1  0.4165630000000  0.5480470000000  0.4843150000000 1.0
C      1  0.4945970000000  0.4275350000000  0.4527090000000 1.0
END
