TITL C-2441154-10-1096 1.37076914535862e-08 125000 -2653.03322101693 0 0 18 (C3v) n - 1
REM
REM in /home/bkarasulu/work/CARBON/AIRSS/Generating-Clusters/ReaxFF-fromJPCA2015/Units_Real/with-SteepDescent/Higher-Symm
REM
REM
REM
REM
REM
REM ./C.cell (1df0a924f5614ab8850e4351716899ee)
REM
REM compiler GCC version 9.2.1 20190827 (Red Hat 9.2.1-1)
REM options -cpp -mtune=generic -march=x86-64 -g -O0 -fpre-include=/usr/include/finclude/math-vector-fortran.h
REM seed 1340239165 -1616588693 1923623707 51642392 715675853 2073499092 1917499007 399964844 -1865848033 1788013260 2121032105 -842849767 1443539048 189299348 1286928087 1772455347 787104931 856877261 661117312 2109437491 -308128370 729809505 -1122119193 750953643 1839861631 340002386 1582411872 -1315875496 1076867979 1462472696 -1556573313 397839088 2011692105
REM
CELL 1.54180   50.00000   50.00000   50.00000   90.00000   90.00000   90.00000
LATT -1
SFAC C  
C      1  0.4761950000000  0.5283630000000  0.4821520000000 1.0
C      1  0.5272220000000  0.5285350000000  0.4884060000000 1.0
C      1  0.4962920000000  0.5284160000000  0.5294700000000 1.0
C      1  0.4903880000000  0.5005280000000  0.5375650000000 1.0
C      1  0.4722710000000  0.5004870000000  0.4728960000000 1.0
C      1  0.5373340000000  0.5007030000000  0.4895400000000 1.0
C      1  0.4997720000000  0.5005850000000  0.4612270000000 1.0
C      1  0.5336900000000  0.5006810000000  0.5191910000000 1.0
C      1  0.4665320000000  0.5004520000000  0.5195830000000 1.0
C      1  0.4725760000000  0.5283410000000  0.5115930000000 1.0
C      1  0.5035350000000  0.5284600000000  0.4705510000000 1.0
C      1  0.5235990000000  0.5285130000000  0.5178830000000 1.0
C      1  0.5204020000000  0.4830480000000  0.4730040000000 1.0
C      1  0.5132600000000  0.4830050000000  0.5311080000000 1.0
C      1  0.4665120000000  0.4828570000000  0.4958710000000 1.0
C      1  0.5103750000000  0.4590480000000  0.4864080000000 1.0
C      1  0.5067810000000  0.4590260000000  0.5156390000000 1.0
C      1  0.4832630000000  0.4589520000000  0.4979120000000 1.0
END
