TITL C-2441164-471-1046 0.0781619017665999 125000 -17629.5537612916 0 0 131 (C1) n - 1
REM
REM in /home/bkarasulu/work/CARBON/AIRSS/Generating-Clusters/ReaxFF-fromJPCA2015/Units_Real/with-SteepDescent/Higher-Symm
REM
REM
REM
REM
REM
REM ./C.cell (1df0a924f5614ab8850e4351716899ee)
REM
REM compiler GCC version 9.2.1 20190827 (Red Hat 9.2.1-1)
REM options -cpp -mtune=generic -march=x86-64 -g -O0 -fpre-include=/usr/include/finclude/math-vector-fortran.h
REM seed 105792240 1693216987 -1501636304 1287650628 55327997 876691653 2125989379 -1458711089 -376226411 4319867 634838106 -1257313452 2100074185 -1473666540 -1961995308 1369664738 1713142636 2134511265 -899444157 2018586491 -94689916 951063301 -1087350647 1426298889 614676555 1420373271 -1728756473 -226534496 1624240460 1465772546 1910785405 -1159373232 -313203234
REM
CELL 1.54180   50.00000   50.00000   50.00000   90.00000   90.00000   90.00000
LATT -1
SFAC C  
C      1  0.5601280000000  0.5250970000000  0.4400140000000 1.0
C      1  0.4392780000000  0.4720790000000  0.5627260000000 1.0
C      1  0.5058860000000  0.6020180000000  0.4651230000000 1.0
C      1  0.4949080000000  0.4024730000000  0.5278810000000 1.0
C      1  0.4451090000000  0.5403010000000  0.5463040000000 1.0
C      1  0.5597830000000  0.4579370000000  0.4484750000000 1.0
C      1  0.5521030000000  0.5063020000000  0.5104700000000 1.0
C      1  0.4497820000000  0.4975090000000  0.4919370000000 1.0
C      1  0.4558720000000  0.5861540000000  0.5554450000000 1.0
C      1  0.5473900000000  0.4139470000000  0.4486680000000 1.0
C      1  0.5739000000000  0.4656520000000  0.5040120000000 1.0
C      1  0.4248360000000  0.5342710000000  0.4971510000000 1.0
C      1  0.5224000000000  0.4995200000000  0.5460430000000 1.0
C      1  0.4786820000000  0.4967720000000  0.4557610000000 1.0
C      1  0.5384200000000  0.5500580000000  0.4935280000000 1.0
C      1  0.4702300000000  0.4592190000000  0.5073140000000 1.0
C      1  0.4311000000000  0.4370320000000  0.4746180000000 1.0
C      1  0.5707400000000  0.5646530000000  0.5260810000000 1.0
C      1  0.5346470000000  0.5378150000000  0.5388400000000 1.0
C      1  0.4698520000000  0.4453220000000  0.4645240000000 1.0
C      1  0.5737940000000  0.5117700000000  0.4868890000000 1.0
C      1  0.4250780000000  0.4882080000000  0.5148990000000 1.0
C      1  0.5513590000000  0.4585590000000  0.4200000000000 1.0
C      1  0.4501040000000  0.5403730000000  0.5789680000000 1.0
C      1  0.5874480000000  0.4745450000000  0.5293990000000 1.0
C      1  0.4140150000000  0.5246330000000  0.4707880000000 1.0
C      1  0.6006510000000  0.5266240000000  0.5319060000000 1.0
C      1  0.4000250000000  0.4729630000000  0.4681740000000 1.0
C      1  0.5118420000000  0.4667040000000  0.4716040000000 1.0
C      1  0.4916100000000  0.5364700000000  0.5322990000000 1.0
C      1  0.4225230000000  0.5167890000000  0.5473050000000 1.0
C      1  0.5734990000000  0.4813460000000  0.4563350000000 1.0
C      1  0.4168370000000  0.4578490000000  0.5141930000000 1.0
C      1  0.5826250000000  0.5421140000000  0.4855780000000 1.0
C      1  0.4808300000000  0.4936950000000  0.5818730000000 1.0
C      1  0.5218860000000  0.5061460000000  0.4223030000000 1.0
C      1  0.5015320000000  0.5255340000000  0.5063410000000 1.0
C      1  0.4991560000000  0.4524920000000  0.4977550000000 1.0
C      1  0.4868770000000  0.4229370000000  0.4577110000000 1.0
C      1  0.5024890000000  0.5661310000000  0.5440510000000 1.0
C      1  0.5002080000000  0.4410960000000  0.4141560000000 1.0
C      1  0.5016380000000  0.5548780000000  0.5874120000000 1.0
C      1  0.4840910000000  0.5878280000000  0.5410350000000 1.0
C      1  0.5233170000000  0.4064610000000  0.4476660000000 1.0
C      1  0.5555920000000  0.4333230000000  0.5367850000000 1.0
C      1  0.4486800000000  0.5654930000000  0.4580450000000 1.0
C      1  0.4296590000000  0.4914140000000  0.4286320000000 1.0
C      1  0.5703180000000  0.5075240000000  0.5714940000000 1.0
C      1  0.4466730000000  0.4170890000000  0.5109820000000 1.0
C      1  0.5554720000000  0.5870000000000  0.4829310000000 1.0
C      1  0.4751630000000  0.5490390000000  0.5874940000000 1.0
C      1  0.5217800000000  0.4577800000000  0.4097100000000 1.0
C      1  0.5292030000000  0.5997590000000  0.4823470000000 1.0
C      1  0.4698100000000  0.4054810000000  0.5190490000000 1.0
C      1  0.5249580000000  0.5047020000000  0.5917860000000 1.0
C      1  0.4670450000000  0.4986230000000  0.4117940000000 1.0
C      1  0.4507870000000  0.4764610000000  0.4143570000000 1.0
C      1  0.5477160000000  0.5218710000000  0.5838370000000 1.0
C      1  0.4368440000000  0.4914300000000  0.5417840000000 1.0
C      1  0.5561710000000  0.5044710000000  0.4620170000000 1.0
C      1  0.4964000000000  0.5586110000000  0.4264930000000 1.0
C      1  0.5118530000000  0.4323140000000  0.5739440000000 1.0
C      1  0.4926980000000  0.5213690000000  0.4604110000000 1.0
C      1  0.5041700000000  0.4788990000000  0.5425710000000 1.0
C      1  0.4946720000000  0.4403080000000  0.5393160000000 1.0
C      1  0.5060080000000  0.5619930000000  0.4651880000000 1.0
C      1  0.4186350000000  0.4712030000000  0.4450590000000 1.0
C      1  0.5840630000000  0.5275080000000  0.5562170000000 1.0
C      1  0.4927310000000  0.4707570000000  0.4498730000000 1.0
C      1  0.5113900000000  0.5255670000000  0.5519790000000 1.0
C      1  0.5313710000000  0.5297830000000  0.5104900000000 1.0
C      1  0.4723400000000  0.4859230000000  0.5005420000000 1.0
C      1  0.5193820000000  0.5664790000000  0.5685780000000 1.0
C      1  0.4792170000000  0.4288170000000  0.4274340000000 1.0
C      1  0.5433890000000  0.4287310000000  0.4863270000000 1.0
C      1  0.4548310000000  0.5739460000000  0.5122070000000 1.0
C      1  0.4458380000000  0.4460560000000  0.5510500000000 1.0
C      1  0.5544400000000  0.5521180000000  0.4480750000000 1.0
C      1  0.5511810000000  0.5098450000000  0.4167660000000 1.0
C      1  0.4514480000000  0.4914690000000  0.5816160000000 1.0
C      1  0.4698320000000  0.5474910000000  0.4197460000000 1.0
C      1  0.5336510000000  0.4507320000000  0.5787030000000 1.0
C      1  0.5973680000000  0.4996880000000  0.5284120000000 1.0
C      1  0.4037730000000  0.4999280000000  0.4716630000000 1.0
C      1  0.4970830000000  0.4161540000000  0.5561260000000 1.0
C      1  0.5013510000000  0.5815160000000  0.4437590000000 1.0
C      1  0.4417840000000  0.5680270000000  0.5378260000000 1.0
C      1  0.5599010000000  0.4345510000000  0.4636560000000 1.0
C      1  0.4557610000000  0.4386340000000  0.4892230000000 1.0
C      1  0.5498270000000  0.5723150000000  0.5076070000000 1.0
C      1  0.5038470000000  0.5825710000000  0.4886550000000 1.0
C      1  0.5065420000000  0.4285680000000  0.5154940000000 1.0
C      1  0.4144000000000  0.5164610000000  0.5183430000000 1.0
C      1  0.5843590000000  0.4835580000000  0.4829330000000 1.0
C      1  0.5352120000000  0.4357950000000  0.5181410000000 1.0
C      1  0.4670000000000  0.5607380000000  0.4769040000000 1.0
C      1  0.4391790000000  0.4466850000000  0.4475100000000 1.0
C      1  0.5604240000000  0.5492790000000  0.5506430000000 1.0
C      1  0.5125130000000  0.4175530000000  0.4694650000000 1.0
C      1  0.4813860000000  0.5844720000000  0.5127040000000 1.0
C      1  0.4512080000000  0.5009010000000  0.4635410000000 1.0
C      1  0.5496300000000  0.4970490000000  0.5380980000000 1.0
C      1  0.4642970000000  0.5279730000000  0.5292900000000 1.0
C      1  0.5311350000000  0.4867460000000  0.4754760000000 1.0
C      1  0.4415160000000  0.5645090000000  0.4879620000000 1.0
C      1  0.5639980000000  0.4346080000000  0.5084670000000 1.0
C      1  0.5129700000000  0.4739090000000  0.5143810000000 1.0
C      1  0.4793620000000  0.5359540000000  0.4827580000000 1.0
C      1  0.4995910000000  0.5166800000000  0.5835800000000 1.0
C      1  0.5093090000000  0.4803850000000  0.4237210000000 1.0
C      1  0.4310510000000  0.4362880000000  0.5275590000000 1.0
C      1  0.5700370000000  0.5635850000000  0.4702310000000 1.0
C      1  0.5431980000000  0.5507240000000  0.5765680000000 1.0
C      1  0.4572430000000  0.4477070000000  0.4240430000000 1.0
C      1  0.5629730000000  0.4836990000000  0.4171440000000 1.0
C      1  0.4364530000000  0.5155860000000  0.5770360000000 1.0
C      1  0.4473100000000  0.5455260000000  0.4377250000000 1.0
C      1  0.5548880000000  0.4517670000000  0.5586190000000 1.0
C      1  0.5676270000000  0.4786330000000  0.5533330000000 1.0
C      1  0.4346430000000  0.5188360000000  0.4469830000000 1.0
C      1  0.5312580000000  0.5490270000000  0.4661030000000 1.0
C      1  0.4694860000000  0.4521580000000  0.5358380000000 1.0
C      1  0.4095250000000  0.4514600000000  0.4874580000000 1.0
C      1  0.5902520000000  0.5485980000000  0.5125090000000 1.0
C      1  0.4815130000000  0.5218980000000  0.4116900000000 1.0
C      1  0.5198680000000  0.4758790000000  0.5870360000000 1.0
C      1  0.4556560000000  0.5245930000000  0.5014730000000 1.0
C      1  0.5419160000000  0.4800130000000  0.5013050000000 1.0
C      1  0.4961570000000  0.4708470000000  0.5699500000000 1.0
C      1  0.5060270000000  0.5290220000000  0.4347040000000 1.0
C      1  0.4974300000000  0.4969780000000  0.5020620000000 1.0
END
