TITL C-2441158-471-356 0.0058188322292893 125000 -7036.42255976919 0 0 51 (C1) n - 1
REM
REM in /home/bkarasulu/work/CARBON/AIRSS/Generating-Clusters/ReaxFF-fromJPCA2015/Units_Real/with-SteepDescent/Higher-Symm
REM
REM
REM
REM
REM
REM ./C.cell (1df0a924f5614ab8850e4351716899ee)
REM
REM compiler GCC version 9.2.1 20190827 (Red Hat 9.2.1-1)
REM options -cpp -mtune=generic -march=x86-64 -g -O0 -fpre-include=/usr/include/finclude/math-vector-fortran.h
REM seed -216039795 -1339066246 1509094292 766940717 -2008000033 327703084 -1834417201 -2126845103 -124311317 1454916921 -1350846382 108377927 515492892 1835015648 39681577 738070281 -1079906941 -1119424204 -777891607 1728629995 -1454038644 926767380 -67310109 1908924195 -800377303 -647337576 1740764401 -721309000 1316557608 -2082358410 -275558357 1017700353 -1036110080
REM
CELL 1.54180   50.00000   50.00000   50.00000   90.00000   90.00000   90.00000
LATT -1
SFAC C  
C      1  0.5213550000000  0.5383020000000  0.4463040000000 1.0
C      1  0.5338880000000  0.4994830000000  0.4574200000000 1.0
C      1  0.5047880000000  0.4602530000000  0.4460220000000 1.0
C      1  0.4729340000000  0.4837720000000  0.4564100000000 1.0
C      1  0.4745140000000  0.5288700000000  0.4443070000000 1.0
C      1  0.5205420000000  0.5058540000000  0.4830540000000 1.0
C      1  0.5124030000000  0.4794420000000  0.4909330000000 1.0
C      1  0.4846910000000  0.4840000000000  0.4835320000000 1.0
C      1  0.4758230000000  0.5096660000000  0.4907150000000 1.0
C      1  0.4990200000000  0.5252360000000  0.4880530000000 1.0
C      1  0.5668110000000  0.4884800000000  0.4984360000000 1.0
C      1  0.5153730000000  0.4338870000000  0.4916820000000 1.0
C      1  0.4435250000000  0.4621370000000  0.4911320000000 1.0
C      1  0.4467100000000  0.5431070000000  0.4936190000000 1.0
C      1  0.5214210000000  0.5662720000000  0.4935080000000 1.0
C      1  0.4576050000000  0.5081340000000  0.4493280000000 1.0
C      1  0.4949150000000  0.5475840000000  0.4467810000000 1.0
C      1  0.5462250000000  0.5261500000000  0.4517420000000 1.0
C      1  0.5301410000000  0.4705890000000  0.4513360000000 1.0
C      1  0.4771410000000  0.4551760000000  0.4500280000000 1.0
C      1  0.5533410000000  0.5039640000000  0.5509380000000 1.0
C      1  0.5131920000000  0.4546790000000  0.5625300000000 1.0
C      1  0.4639610000000  0.4829660000000  0.5558240000000 1.0
C      1  0.4553690000000  0.5325770000000  0.5602090000000 1.0
C      1  0.5112790000000  0.5452360000000  0.5530320000000 1.0
C      1  0.5321080000000  0.4336090000000  0.5142220000000 1.0
C      1  0.4505430000000  0.4485870000000  0.5148580000000 1.0
C      1  0.4324840000000  0.5296250000000  0.5136150000000 1.0
C      1  0.5057330000000  0.5728380000000  0.5154660000000 1.0
C      1  0.5720920000000  0.5158880000000  0.4976490000000 1.0
C      1  0.4838690000000  0.5575530000000  0.5250990000000 1.0
C      1  0.5536130000000  0.5288770000000  0.5175980000000 1.0
C      1  0.5478250000000  0.4534540000000  0.5266140000000 1.0
C      1  0.4773950000000  0.4485990000000  0.5223090000000 1.0
C      1  0.4309280000000  0.5031370000000  0.5214430000000 1.0
C      1  0.4857690000000  0.4374520000000  0.4965120000000 1.0
C      1  0.4362950000000  0.4908890000000  0.4961900000000 1.0
C      1  0.4708090000000  0.5582830000000  0.4989890000000 1.0
C      1  0.5458750000000  0.5492750000000  0.4975960000000 1.0
C      1  0.5581700000000  0.4632410000000  0.5001300000000 1.0
C      1  0.4660790000000  0.4475000000000  0.4769030000000 1.0
C      1  0.4481310000000  0.5140350000000  0.4788550000000 1.0
C      1  0.4960410000000  0.5545870000000  0.4795480000000 1.0
C      1  0.5602970000000  0.5348900000000  0.4768710000000 1.0
C      1  0.5315500000000  0.4580030000000  0.4805980000000 1.0
C      1  0.4859880000000  0.4767040000000  0.5374330000000 1.0
C      1  0.4519410000000  0.5099150000000  0.5458010000000 1.0
C      1  0.4963960000000  0.5295360000000  0.5390030000000 1.0
C      1  0.5362170000000  0.5077110000000  0.5327650000000 1.0
C      1  0.5243070000000  0.4638290000000  0.5413830000000 1.0
C      1  0.5044380000000  0.5004600000000  0.5342090000000 1.0
END
