TITL C-2441156-4686-948 0.0410035244365942 125000 -17459.1567108496 0 0 123 (C1) n - 1
REM
REM in /home/bkarasulu/work/CARBON/AIRSS/Generating-Clusters/ReaxFF-fromJPCA2015/Units_Real/with-SteepDescent/Higher-Symm
REM
REM
REM
REM
REM
REM ./C.cell (1df0a924f5614ab8850e4351716899ee)
REM
REM compiler GCC version 9.2.1 20190827 (Red Hat 9.2.1-1)
REM options -cpp -mtune=generic -march=x86-64 -g -O0 -fpre-include=/usr/include/finclude/math-vector-fortran.h
REM seed -1776846605 -2111988515 1384751032 1324618947 -545675306 2000473569 72704490 -2098347443 266187211 -160176414 1251877842 -470401320 67232620 -585095811 -264310860 1244065106 -1824717080 -1439866373 2022962636 -1565586880 1264556551 52655784 338061084 135401862 327543427 704955925 -1239329047 -2085737317 -738381264 642820088 -1227094500 1741841220 -783970840
REM
CELL 1.54180   50.00000   50.00000   50.00000   90.00000   90.00000   90.00000
LATT -1
SFAC C  
C      1  0.4736740000000  0.4164060000000  0.4703540000000 1.0
C      1  0.5279620000000  0.5788030000000  0.5315370000000 1.0
C      1  0.4833010000000  0.5586610000000  0.5773360000000 1.0
C      1  0.5297010000000  0.4559960000000  0.4302140000000 1.0
C      1  0.4109430000000  0.4672470000000  0.4773640000000 1.0
C      1  0.5746200000000  0.5251360000000  0.5207240000000 1.0
C      1  0.4569100000000  0.4197650000000  0.5157640000000 1.0
C      1  0.5444430000000  0.5735750000000  0.4849010000000 1.0
C      1  0.4533210000000  0.5331310000000  0.4324310000000 1.0
C      1  0.5440220000000  0.4681740000000  0.5813340000000 1.0
C      1  0.4629120000000  0.5568170000000  0.5329490000000 1.0
C      1  0.5209780000000  0.4429290000000  0.4697150000000 1.0
C      1  0.5675720000000  0.5515930000000  0.5154820000000 1.0
C      1  0.4279420000000  0.4444270000000  0.4862510000000 1.0
C      1  0.4849830000000  0.4344380000000  0.4271720000000 1.0
C      1  0.5087380000000  0.5735090000000  0.5782770000000 1.0
C      1  0.5055380000000  0.5818750000000  0.5510860000000 1.0
C      1  0.4931950000000  0.4184290000000  0.4471660000000 1.0
C      1  0.5863560000000  0.4606690000000  0.4919540000000 1.0
C      1  0.4181620000000  0.5356520000000  0.5116950000000 1.0
C      1  0.4750340000000  0.5958800000000  0.5025550000000 1.0
C      1  0.5261860000000  0.4057510000000  0.4930600000000 1.0
C      1  0.4825000000000  0.5718860000000  0.4449900000000 1.0
C      1  0.5263260000000  0.4293710000000  0.5534900000000 1.0
C      1  0.4263910000000  0.5438650000000  0.4838610000000 1.0
C      1  0.5706750000000  0.4523000000000  0.5150190000000 1.0
C      1  0.4476380000000  0.4845750000000  0.5085410000000 1.0
C      1  0.5435200000000  0.5102660000000  0.4829480000000 1.0
C      1  0.5007410000000  0.5917550000000  0.4910710000000 1.0
C      1  0.5036890000000  0.4027910000000  0.5093900000000 1.0
C      1  0.5353720000000  0.5068110000000  0.5937150000000 1.0
C      1  0.4668360000000  0.5056410000000  0.4051990000000 1.0
C      1  0.4666800000000  0.4768670000000  0.5954280000000 1.0
C      1  0.5314450000000  0.5258020000000  0.4070310000000 1.0
C      1  0.4337030000000  0.5412200000000  0.5352240000000 1.0
C      1  0.5722640000000  0.4507120000000  0.4691640000000 1.0
C      1  0.5691200000000  0.4615660000000  0.5412270000000 1.0
C      1  0.4324890000000  0.5202290000000  0.4679890000000 1.0
C      1  0.5582700000000  0.4264460000000  0.4794040000000 1.0
C      1  0.4484520000000  0.5874250000000  0.4940280000000 1.0
C      1  0.4312800000000  0.4658320000000  0.5282340000000 1.0
C      1  0.5689110000000  0.5292110000000  0.4685780000000 1.0
C      1  0.4837460000000  0.4842480000000  0.4155200000000 1.0
C      1  0.5175430000000  0.5137630000000  0.5754420000000 1.0
C      1  0.4126620000000  0.4812910000000  0.4517870000000 1.0
C      1  0.5843890000000  0.5139290000000  0.5465390000000 1.0
C      1  0.5058960000000  0.4188400000000  0.5341460000000 1.0
C      1  0.5012270000000  0.5738000000000  0.4677500000000 1.0
C      1  0.5343200000000  0.4812750000000  0.4187930000000 1.0
C      1  0.4784630000000  0.5295880000000  0.5766460000000 1.0
C      1  0.4770500000000  0.4238490000000  0.5365300000000 1.0
C      1  0.5291610000000  0.5700500000000  0.4625500000000 1.0
C      1  0.4273580000000  0.5171430000000  0.5472890000000 1.0
C      1  0.5639570000000  0.4780640000000  0.4609920000000 1.0
C      1  0.5321120000000  0.4293470000000  0.4922830000000 1.0
C      1  0.4645970000000  0.5728550000000  0.5103610000000 1.0
C      1  0.5327170000000  0.5609350000000  0.5826480000000 1.0
C      1  0.4718330000000  0.4549190000000  0.4140430000000 1.0
C      1  0.5892920000000  0.4841580000000  0.5416180000000 1.0
C      1  0.4075100000000  0.5061600000000  0.4638030000000 1.0
C      1  0.5979710000000  0.4884380000000  0.4884890000000 1.0
C      1  0.4053990000000  0.5081650000000  0.5134030000000 1.0
C      1  0.4523260000000  0.5018160000000  0.4836600000000 1.0
C      1  0.5521680000000  0.5096950000000  0.5117450000000 1.0
C      1  0.4887340000000  0.4964950000000  0.4461030000000 1.0
C      1  0.5193840000000  0.4980060000000  0.5500510000000 1.0
C      1  0.5558110000000  0.4313970000000  0.5068180000000 1.0
C      1  0.4387350000000  0.5678640000000  0.4752450000000 1.0
C      1  0.5477800000000  0.4506460000000  0.5579550000000 1.0
C      1  0.4594560000000  0.5558640000000  0.4555750000000 1.0
C      1  0.4951170000000  0.5122470000000  0.5933260000000 1.0
C      1  0.5097930000000  0.4896120000000  0.4042110000000 1.0
C      1  0.4565030000000  0.4813890000000  0.5668700000000 1.0
C      1  0.5487330000000  0.5089650000000  0.4229000000000 1.0
C      1  0.4909290000000  0.5547280000000  0.4236010000000 1.0
C      1  0.5110070000000  0.4395640000000  0.5766450000000 1.0
C      1  0.5555200000000  0.5308260000000  0.4413430000000 1.0
C      1  0.4443300000000  0.4591320000000  0.5534670000000 1.0
C      1  0.4345340000000  0.4386500000000  0.5130340000000 1.0
C      1  0.5638280000000  0.5533750000000  0.4882240000000 1.0
C      1  0.4685070000000  0.4441480000000  0.5540300000000 1.0
C      1  0.5377960000000  0.5539470000000  0.4423320000000 1.0
C      1  0.5068690000000  0.5171160000000  0.4512930000000 1.0
C      1  0.4737240000000  0.4906650000000  0.5447500000000 1.0
C      1  0.4618840000000  0.4589120000000  0.4558870000000 1.0
C      1  0.5255970000000  0.5389180000000  0.5667480000000 1.0
C      1  0.5507130000000  0.5623460000000  0.5357310000000 1.0
C      1  0.4516660000000  0.4357060000000  0.4703560000000 1.0
C      1  0.5159420000000  0.4807940000000  0.5130360000000 1.0
C      1  0.4761270000000  0.5231260000000  0.4936740000000 1.0
C      1  0.4791040000000  0.5449810000000  0.4757630000000 1.0
C      1  0.5116450000000  0.4733440000000  0.5410010000000 1.0
C      1  0.5660380000000  0.5176740000000  0.5678670000000 1.0
C      1  0.4317670000000  0.4827990000000  0.4318420000000 1.0
C      1  0.5223700000000  0.4314460000000  0.4429780000000 1.0
C      1  0.4779490000000  0.5718530000000  0.5522870000000 1.0
C      1  0.5178500000000  0.4633820000000  0.5927240000000 1.0
C      1  0.4748110000000  0.5336360000000  0.4111250000000 1.0
C      1  0.4960610000000  0.4680270000000  0.4977780000000 1.0
C      1  0.5093950000000  0.5313390000000  0.5196080000000 1.0
C      1  0.4950230000000  0.4830720000000  0.5993040000000 1.0
C      1  0.5053390000000  0.5168390000000  0.3997770000000 1.0
C      1  0.5805180000000  0.5012410000000  0.4686890000000 1.0
C      1  0.4159200000000  0.4936560000000  0.5362690000000 1.0
C      1  0.4811410000000  0.5334920000000  0.5265780000000 1.0
C      1  0.5129170000000  0.4701400000000  0.4731500000000 1.0
C      1  0.4707920000000  0.4851340000000  0.4650290000000 1.0
C      1  0.5304980000000  0.5153910000000  0.5301020000000 1.0
C      1  0.5154450000000  0.5415760000000  0.4302800000000 1.0
C      1  0.4949290000000  0.4550880000000  0.5573340000000 1.0
C      1  0.4478680000000  0.4588690000000  0.4296390000000 1.0
C      1  0.5517480000000  0.5478950000000  0.5621340000000 1.0
C      1  0.5179160000000  0.5195160000000  0.4772710000000 1.0
C      1  0.4740090000000  0.4785520000000  0.5165920000000 1.0
C      1  0.5380890000000  0.4846310000000  0.4702090000000 1.0
C      1  0.4760430000000  0.5177980000000  0.5503090000000 1.0
C      1  0.4446080000000  0.5077120000000  0.4236720000000 1.0
C      1  0.5592040000000  0.4954240000000  0.5848280000000 1.0
C      1  0.4764410000000  0.4076710000000  0.4974750000000 1.0
C      1  0.5258340000000  0.5862910000000  0.5040180000000 1.0
C      1  0.4006460000000  0.4923040000000  0.4891630000000 1.0
C      1  0.6003890000000  0.4903190000000  0.5167480000000 1.0
C      1  0.5038560000000  0.5113670000000  0.4992520000000 1.0
END
