TITL C-2441157-2117-638 0.109109558306303 125000 -7461.45526443147 0 0 75 (Cs) n - 1
REM
REM in /home/bkarasulu/work/CARBON/AIRSS/Generating-Clusters/ReaxFF-fromJPCA2015/Units_Real/with-SteepDescent/Higher-Symm
REM
REM
REM
REM
REM
REM ./C.cell (1df0a924f5614ab8850e4351716899ee)
REM
REM compiler GCC version 9.2.1 20190827 (Red Hat 9.2.1-1)
REM options -cpp -mtune=generic -march=x86-64 -g -O0 -fpre-include=/usr/include/finclude/math-vector-fortran.h
REM seed 1880642927 1291331803 1977247439 141089131 -1526084278 -1308394461 1796766368 -912112723 1869003159 1204800850 801251351 1689760956 1079237947 -14649380 -701724217 -1647716244 -803832893 358011930 1860531743 -903553495 846439088 871015471 720781649 -329816460 -964454066 419689210 514927529 1154393617 1819926593 72448346 -1434114617 -1367610102 1423812024
REM
CELL 1.54180   50.00000   50.00000   50.00000   90.00000   90.00000   90.00000
LATT -1
SFAC C  
C      1  0.4267070000000  0.4847020000000  0.5162880000000 1.0
C      1  0.5237940000000  0.5713840000000  0.5153790000000 1.0
C      1  0.5500260000000  0.4437560000000  0.5156660000000 1.0
C      1  0.4267070000000  0.4846890000000  0.4843690000000 1.0
C      1  0.5238510000000  0.5713610000000  0.4851950000000 1.0
C      1  0.5498500000000  0.4437620000000  0.4849280000000 1.0
C      1  0.5732590000000  0.4846740000000  0.5162250000000 1.0
C      1  0.4761760000000  0.5714500000000  0.5152320000000 1.0
C      1  0.4499120000000  0.4436070000000  0.5151170000000 1.0
C      1  0.5732640000000  0.4846840000000  0.4844820000000 1.0
C      1  0.4761860000000  0.5714780000000  0.4855310000000 1.0
C      1  0.4498720000000  0.4436220000000  0.4855270000000 1.0
C      1  0.4855470000000  0.5583020000000  0.4595310000000 1.0
C      1  0.5573070000000  0.4833280000000  0.4593840000000 1.0
C      1  0.4564890000000  0.4582260000000  0.4594470000000 1.0
C      1  0.4854230000000  0.5582540000000  0.5411440000000 1.0
C      1  0.5573180000000  0.4833760000000  0.5412360000000 1.0
C      1  0.4565120000000  0.4582490000000  0.5411870000000 1.0
C      1  0.5146020000000  0.5581620000000  0.4595980000000 1.0
C      1  0.4425810000000  0.4834740000000  0.4594600000000 1.0
C      1  0.5434680000000  0.4583380000000  0.4595840000000 1.0
C      1  0.5146160000000  0.5584750000000  0.5411240000000 1.0
C      1  0.4425830000000  0.4834900000000  0.5412220000000 1.0
C      1  0.5434970000000  0.4581690000000  0.5409110000000 1.0
C      1  0.4854510000000  0.4599050000000  0.4493120000000 1.0
C      1  0.4724260000000  0.5325510000000  0.4493760000000 1.0
C      1  0.5421370000000  0.5073260000000  0.4494870000000 1.0
C      1  0.4854580000000  0.4598790000000  0.5514010000000 1.0
C      1  0.4724410000000  0.5326540000000  0.5512420000000 1.0
C      1  0.5421780000000  0.5073170000000  0.5512340000000 1.0
C      1  0.5148850000000  0.4598450000000  0.4494580000000 1.0
C      1  0.5275250000000  0.5327700000000  0.4494400000000 1.0
C      1  0.4578330000000  0.5073090000000  0.4494470000000 1.0
C      1  0.5147240000000  0.4598710000000  0.5512080000000 1.0
C      1  0.5275230000000  0.5325720000000  0.5512060000000 1.0
C      1  0.4578530000000  0.5073160000000  0.5511750000000 1.0
C      1  0.5694800000000  0.5569000000000  0.4854420000000 1.0
C      1  0.5144520000000  0.4115110000000  0.4852360000000 1.0
C      1  0.4160930000000  0.5318290000000  0.4851530000000 1.0
C      1  0.5695800000000  0.5569120000000  0.5151500000000 1.0
C      1  0.5143680000000  0.4114550000000  0.5153880000000 1.0
C      1  0.4160980000000  0.5317920000000  0.5155120000000 1.0
C      1  0.4304220000000  0.5569430000000  0.4855310000000 1.0
C      1  0.4854520000000  0.4114320000000  0.4855350000000 1.0
C      1  0.5839200000000  0.5317710000000  0.4851810000000 1.0
C      1  0.4304670000000  0.5569370000000  0.5151490000000 1.0
C      1  0.4855440000000  0.4113440000000  0.5152100000000 1.0
C      1  0.5839490000000  0.5319110000000  0.5154880000000 1.0
C      1  0.5404340000000  0.5481050000000  0.5137010000000 1.0
C      1  0.5217460000000  0.4405750000000  0.5136240000000 1.0
C      1  0.4374480000000  0.5110660000000  0.5133970000000 1.0
C      1  0.5405320000000  0.5484360000000  0.4870620000000 1.0
C      1  0.5217590000000  0.4403560000000  0.4872830000000 1.0
C      1  0.4374460000000  0.5110580000000  0.4872740000000 1.0
C      1  0.4594600000000  0.5481640000000  0.5137270000000 1.0
C      1  0.4784870000000  0.4408150000000  0.5138200000000 1.0
C      1  0.5625240000000  0.5110580000000  0.5133510000000 1.0
C      1  0.4595000000000  0.5481070000000  0.4868610000000 1.0
C      1  0.4785240000000  0.4408320000000  0.4867970000000 1.0
C      1  0.5625170000000  0.5110610000000  0.4872670000000 1.0
C      1  0.5133410000000  0.5222190000000  0.5275920000000 1.0
C      1  0.5123320000000  0.4774470000000  0.5276830000000 1.0
C      1  0.4742300000000  0.5001800000000  0.5271870000000 1.0
C      1  0.5133220000000  0.5222820000000  0.4731580000000 1.0
C      1  0.5123190000000  0.4774530000000  0.4729770000000 1.0
C      1  0.4742400000000  0.5001600000000  0.4734910000000 1.0
C      1  0.4866650000000  0.5223610000000  0.5276400000000 1.0
C      1  0.4875260000000  0.4772800000000  0.5279190000000 1.0
C      1  0.5257790000000  0.5002090000000  0.5272130000000 1.0
C      1  0.4866640000000  0.5223880000000  0.4729620000000 1.0
C      1  0.4875700000000  0.4772890000000  0.4727330000000 1.0
C      1  0.5258080000000  0.5002560000000  0.4733930000000 1.0
C      1  0.5001280000000  0.5391560000000  0.5003310000000 1.0
C      1  0.4647390000000  0.4812440000000  0.5003200000000 1.0
C      1  0.5351530000000  0.4813810000000  0.5003380000000 1.0
END
