TITL C-2441168-9922-1365 0.0108260455334773 125000 -14728.8159863547 0 0 101 (C1) n - 1
REM
REM in /home/bkarasulu/work/CARBON/AIRSS/Generating-Clusters/ReaxFF-fromJPCA2015/Units_Real/with-SteepDescent/Higher-Symm
REM
REM
REM
REM
REM
REM ./C.cell (1df0a924f5614ab8850e4351716899ee)
REM
REM compiler GCC version 9.2.1 20190827 (Red Hat 9.2.1-1)
REM options -cpp -mtune=generic -march=x86-64 -g -O0 -fpre-include=/usr/include/finclude/math-vector-fortran.h
REM seed 158022041 -1456240790 -538842039 -618190085 2044966302 775800321 -756197466 1164635757 -1179320771 1236399686 -1111299608 1830028877 1678401083 1291342727 1228372186 281034593 895835418 -1621519864 -1715513271 238390664 697855712 -1633044595 -143601395 -156908956 -479536403 -758375168 -1278112480 -459612006 901957975 1574153026 -34764997 -1852484366 -1154228417
REM
CELL 1.54180   50.00000   50.00000   50.00000   90.00000   90.00000   90.00000
LATT -1
SFAC C  
C      1  0.5737180000000  0.5450830000000  0.4952610000000 1.0
C      1  0.5624370000000  0.5535910000000  0.5440950000000 1.0
C      1  0.5147310000000  0.5415540000000  0.5625560000000 1.0
C      1  0.4658190000000  0.5560180000000  0.5705700000000 1.0
C      1  0.4435480000000  0.5476410000000  0.5283710000000 1.0
C      1  0.4245420000000  0.5548890000000  0.4800940000000 1.0
C      1  0.4630060000000  0.5468470000000  0.4507820000000 1.0
C      1  0.5046770000000  0.5539490000000  0.4240400000000 1.0
C      1  0.5409450000000  0.5417740000000  0.4561150000000 1.0
C      1  0.5489550000000  0.4555730000000  0.5433960000000 1.0
C      1  0.5102310000000  0.4473820000000  0.5543580000000 1.0
C      1  0.4623150000000  0.4416830000000  0.5637980000000 1.0
C      1  0.4453390000000  0.4478940000000  0.5188820000000 1.0
C      1  0.4310460000000  0.4397790000000  0.4704940000000 1.0
C      1  0.4718210000000  0.4485370000000  0.4446060000000 1.0
C      1  0.5152090000000  0.4415520000000  0.4302730000000 1.0
C      1  0.5463960000000  0.4514210000000  0.4599290000000 1.0
C      1  0.5723640000000  0.4501090000000  0.5036170000000 1.0
C      1  0.5593640000000  0.5566580000000  0.4729040000000 1.0
C      1  0.5644240000000  0.5613360000000  0.5165420000000 1.0
C      1  0.5380930000000  0.5607460000000  0.5539800000000 1.0
C      1  0.4937990000000  0.5620420000000  0.5639050000000 1.0
C      1  0.4539780000000  0.5679610000000  0.5466740000000 1.0
C      1  0.4340010000000  0.5637670000000  0.5071790000000 1.0
C      1  0.4458800000000  0.5664260000000  0.4641400000000 1.0
C      1  0.4812030000000  0.5637130000000  0.4366530000000 1.0
C      1  0.5257380000000  0.5626250000000  0.4386760000000 1.0
C      1  0.4899250000000  0.4442160000000  0.4206750000000 1.0
C      1  0.5422160000000  0.4453440000000  0.4330160000000 1.0
C      1  0.5808190000000  0.4534120000000  0.4804980000000 1.0
C      1  0.5744500000000  0.4500960000000  0.5319460000000 1.0
C      1  0.5331740000000  0.4520760000000  0.5703230000000 1.0
C      1  0.4889840000000  0.4467970000000  0.5730830000000 1.0
C      1  0.4408380000000  0.4435190000000  0.5462180000000 1.0
C      1  0.4238490000000  0.4438790000000  0.4984990000000 1.0
C      1  0.4437970000000  0.4442860000000  0.4453430000000 1.0
C      1  0.5316570000000  0.4819970000000  0.5260720000000 1.0
C      1  0.5071090000000  0.4688780000000  0.5355690000000 1.0
C      1  0.4827410000000  0.4837120000000  0.5315940000000 1.0
C      1  0.4611310000000  0.4723030000000  0.5148960000000 1.0
C      1  0.4639470000000  0.4849620000000  0.4892130000000 1.0
C      1  0.4828560000000  0.4679460000000  0.4716060000000 1.0
C      1  0.5053510000000  0.4864100000000  0.4639590000000 1.0
C      1  0.5299780000000  0.4736740000000  0.4718070000000 1.0
C      1  0.5395710000000  0.4851370000000  0.4962140000000 1.0
C      1  0.5017640000000  0.5046010000000  0.4183240000000 1.0
C      1  0.5534150000000  0.5014700000000  0.4325270000000 1.0
C      1  0.5812470000000  0.5034980000000  0.4713520000000 1.0
C      1  0.5771410000000  0.5069660000000  0.5465490000000 1.0
C      1  0.5389540000000  0.5046510000000  0.5775800000000 1.0
C      1  0.4633660000000  0.5042940000000  0.5803230000000 1.0
C      1  0.4253620000000  0.5041620000000  0.5404210000000 1.0
C      1  0.4174460000000  0.5027290000000  0.4815770000000 1.0
C      1  0.4489780000000  0.5036950000000  0.4357140000000 1.0
C      1  0.5264590000000  0.4622130000000  0.4153730000000 1.0
C      1  0.5723270000000  0.4573490000000  0.4567970000000 1.0
C      1  0.5892510000000  0.4695120000000  0.5162810000000 1.0
C      1  0.5592440000000  0.4630520000000  0.5672770000000 1.0
C      1  0.4994460000000  0.4699980000000  0.5858470000000 1.0
C      1  0.4441550000000  0.4635220000000  0.5652590000000 1.0
C      1  0.4119160000000  0.4685400000000  0.5055190000000 1.0
C      1  0.4257180000000  0.4632410000000  0.4549690000000 1.0
C      1  0.4688730000000  0.4642430000000  0.4202350000000 1.0
C      1  0.5348600000000  0.5135820000000  0.4985550000000 1.0
C      1  0.5299420000000  0.5110100000000  0.5258560000000 1.0
C      1  0.5101260000000  0.5252470000000  0.5381560000000 1.0
C      1  0.4843490000000  0.5128740000000  0.5328410000000 1.0
C      1  0.4650190000000  0.5271530000000  0.5167000000000 1.0
C      1  0.4632960000000  0.5138010000000  0.4906700000000 1.0
C      1  0.4775980000000  0.5273160000000  0.4689180000000 1.0
C      1  0.5018610000000  0.5145240000000  0.4654820000000 1.0
C      1  0.5231000000000  0.5277790000000  0.4764250000000 1.0
C      1  0.4209770000000  0.5273170000000  0.4768630000000 1.0
C      1  0.4579820000000  0.5303580000000  0.4325920000000 1.0
C      1  0.5094600000000  0.5289220000000  0.4213460000000 1.0
C      1  0.5583700000000  0.5251930000000  0.4459510000000 1.0
C      1  0.5842530000000  0.5166010000000  0.4962620000000 1.0
C      1  0.5656240000000  0.5300680000000  0.5520530000000 1.0
C      1  0.5165560000000  0.5163410000000  0.5842940000000 1.0
C      1  0.4604910000000  0.5285270000000  0.5744550000000 1.0
C      1  0.4255460000000  0.5304330000000  0.5302560000000 1.0
C      1  0.4433350000000  0.4924380000000  0.5615380000000 1.0
C      1  0.4125650000000  0.4943240000000  0.5152710000000 1.0
C      1  0.4295980000000  0.4919350000000  0.4567300000000 1.0
C      1  0.4719580000000  0.4928650000000  0.4218990000000 1.0
C      1  0.5279500000000  0.4916350000000  0.4203810000000 1.0
C      1  0.5749260000000  0.4874790000000  0.4491400000000 1.0
C      1  0.5849970000000  0.4983930000000  0.5197680000000 1.0
C      1  0.5625720000000  0.4927190000000  0.5700930000000 1.0
C      1  0.4942760000000  0.4971620000000  0.5890290000000 1.0
C      1  0.4573520000000  0.5813440000000  0.5044060000000 1.0
C      1  0.4653260000000  0.5835470000000  0.4764640000000 1.0
C      1  0.4890620000000  0.5808520000000  0.4594540000000 1.0
C      1  0.5179040000000  0.5796820000000  0.4612560000000 1.0
C      1  0.5388480000000  0.5762410000000  0.4814050000000 1.0
C      1  0.5415270000000  0.5782060000000  0.5100210000000 1.0
C      1  0.5252650000000  0.5779560000000  0.5342490000000 1.0
C      1  0.4973030000000  0.5797000000000  0.5419060000000 1.0
C      1  0.4705260000000  0.5843160000000  0.5301200000000 1.0
C      1  0.4945450000000  0.4472090000000  0.4905250000000 1.0
C      1  0.5039510000000  0.4308740000000  0.5048520000000 1.0
END
