TITL C-2441162-9305-142 0.0065773085263495 125000 -14074.4470594096 0 0 96 (C1) n - 1
REM
REM in /home/bkarasulu/work/CARBON/AIRSS/Generating-Clusters/ReaxFF-fromJPCA2015/Units_Real/with-SteepDescent/Higher-Symm
REM
REM
REM
REM
REM
REM ./C.cell (1df0a924f5614ab8850e4351716899ee)
REM
REM compiler GCC version 9.2.1 20190827 (Red Hat 9.2.1-1)
REM options -cpp -mtune=generic -march=x86-64 -g -O0 -fpre-include=/usr/include/finclude/math-vector-fortran.h
REM seed 537675041 -749718563 878015455 -950929695 1668796850 -1247223397 -1600896385 -273669685 282081022 895528109 -2053378203 -129339494 -1489307454 -1801840720 -1524526500 926347614 249734818 1516959243 -2007752787 2139411803 -701178454 -291702626 1641372496 -988938774 -1620834855 -1842870046 -1878144870 1599024505 -1623724358 1561905832 -624871 1617383 300574172
REM
CELL 1.54180   50.00000   50.00000   50.00000   90.00000   90.00000   90.00000
LATT -1
SFAC C  
C      1  0.4500990000000  0.5581450000000  0.5361230000000 1.0
C      1  0.5026070000000  0.5058380000000  0.4614630000000 1.0
C      1  0.5546810000000  0.5385510000000  0.5379990000000 1.0
C      1  0.5597500000000  0.5270250000000  0.5663960000000 1.0
C      1  0.5105830000000  0.4838910000000  0.5726350000000 1.0
C      1  0.5536590000000  0.5153560000000  0.5170840000000 1.0
C      1  0.4586640000000  0.4724430000000  0.4494490000000 1.0
C      1  0.4630040000000  0.4217930000000  0.4528290000000 1.0
C      1  0.4283990000000  0.4786270000000  0.5370320000000 1.0
C      1  0.4427230000000  0.5325690000000  0.4483890000000 1.0
C      1  0.5362220000000  0.4359050000000  0.5464100000000 1.0
C      1  0.5355100000000  0.4973330000000  0.5818870000000 1.0
C      1  0.4905460000000  0.5773880000000  0.5067160000000 1.0
C      1  0.4263490000000  0.4620160000000  0.5123260000000 1.0
C      1  0.5630130000000  0.4402610000000  0.4837610000000 1.0
C      1  0.4675030000000  0.5537850000000  0.5590310000000 1.0
C      1  0.4839600000000  0.5249370000000  0.4713910000000 1.0
C      1  0.5800840000000  0.4839790000000  0.5127640000000 1.0
C      1  0.5283320000000  0.5695120000000  0.4721640000000 1.0
C      1  0.5069100000000  0.5616160000000  0.5240990000000 1.0
C      1  0.5169180000000  0.4436280000000  0.5665680000000 1.0
C      1  0.5067210000000  0.4607130000000  0.5254350000000 1.0
C      1  0.5743510000000  0.5590690000000  0.4848530000000 1.0
C      1  0.4466790000000  0.4457000000000  0.4517010000000 1.0
C      1  0.5036740000000  0.4592480000000  0.4648510000000 1.0
C      1  0.4245400000000  0.4961420000000  0.4720660000000 1.0
C      1  0.4345530000000  0.5342480000000  0.5265820000000 1.0
C      1  0.5635370000000  0.4934230000000  0.5347890000000 1.0
C      1  0.4278970000000  0.5253900000000  0.4731270000000 1.0
C      1  0.4666110000000  0.4453890000000  0.5435140000000 1.0
C      1  0.5292930000000  0.4738940000000  0.4796990000000 1.0
C      1  0.5398100000000  0.4271200000000  0.4903370000000 1.0
C      1  0.5517970000000  0.5763510000000  0.4879460000000 1.0
C      1  0.4725530000000  0.4967550000000  0.5371240000000 1.0
C      1  0.5498700000000  0.4533680000000  0.5246990000000 1.0
C      1  0.4843450000000  0.4539130000000  0.4848000000000 1.0
C      1  0.4745390000000  0.5088450000000  0.4932270000000 1.0
C      1  0.4875080000000  0.4812870000000  0.4180910000000 1.0
C      1  0.4748670000000  0.5181700000000  0.5191740000000 1.0
C      1  0.4327250000000  0.5082230000000  0.5410180000000 1.0
C      1  0.4864490000000  0.5416390000000  0.5344700000000 1.0
C      1  0.5146770000000  0.4271270000000  0.5292360000000 1.0
C      1  0.5318090000000  0.5397800000000  0.4278280000000 1.0
C      1  0.5804090000000  0.5085630000000  0.4953040000000 1.0
C      1  0.5760510000000  0.5537930000000  0.5248350000000 1.0
C      1  0.5390940000000  0.4445750000000  0.4389720000000 1.0
C      1  0.5268380000000  0.5137810000000  0.5051830000000 1.0
C      1  0.5361730000000  0.5269900000000  0.5837440000000 1.0
C      1  0.4712800000000  0.5061840000000  0.4137320000000 1.0
C      1  0.4766590000000  0.5713040000000  0.4612840000000 1.0
C      1  0.4458340000000  0.5122850000000  0.4276270000000 1.0
C      1  0.4510030000000  0.5811380000000  0.4697760000000 1.0
C      1  0.5581010000000  0.5270180000000  0.4549340000000 1.0
C      1  0.4587960000000  0.4777140000000  0.5752830000000 1.0
C      1  0.5651580000000  0.4504790000000  0.4532420000000 1.0
C      1  0.4864710000000  0.4289250000000  0.4348620000000 1.0
C      1  0.4369790000000  0.4781420000000  0.4912150000000 1.0
C      1  0.4864780000000  0.4288640000000  0.4983680000000 1.0
C      1  0.4892560000000  0.4817420000000  0.4493890000000 1.0
C      1  0.5558780000000  0.5744230000000  0.5182590000000 1.0
C      1  0.5705550000000  0.4797200000000  0.4510940000000 1.0
C      1  0.4441060000000  0.4620790000000  0.5558380000000 1.0
C      1  0.4629050000000  0.5775250000000  0.5173110000000 1.0
C      1  0.5098110000000  0.5355080000000  0.4211920000000 1.0
C      1  0.5441530000000  0.4715210000000  0.4468940000000 1.0
C      1  0.5302170000000  0.4645330000000  0.5080750000000 1.0
C      1  0.4291320000000  0.5665820000000  0.4852700000000 1.0
C      1  0.5428980000000  0.5506000000000  0.4516880000000 1.0
C      1  0.5732310000000  0.4555920000000  0.5071630000000 1.0
C      1  0.5057260000000  0.5284080000000  0.5480760000000 1.0
C      1  0.5727120000000  0.5054000000000  0.4651540000000 1.0
C      1  0.4851780000000  0.4531540000000  0.4201990000000 1.0
C      1  0.5155400000000  0.4179320000000  0.5019010000000 1.0
C      1  0.4410580000000  0.4365970000000  0.5036510000000 1.0
C      1  0.4709990000000  0.5432960000000  0.4494220000000 1.0
C      1  0.4887390000000  0.4437360000000  0.5670140000000 1.0
C      1  0.4771330000000  0.4711690000000  0.5243830000000 1.0
C      1  0.4444100000000  0.4279340000000  0.4751790000000 1.0
C      1  0.4862240000000  0.4681250000000  0.5820540000000 1.0
C      1  0.5142650000000  0.4826330000000  0.5437980000000 1.0
C      1  0.5856020000000  0.5391450000000  0.5012100000000 1.0
C      1  0.5152370000000  0.5075530000000  0.5311980000000 1.0
C      1  0.4895720000000  0.5604050000000  0.5768960000000 1.0
C      1  0.4548730000000  0.5029550000000  0.5601730000000 1.0
C      1  0.5003100000000  0.5755200000000  0.4781600000000 1.0
C      1  0.5126220000000  0.4368930000000  0.4466260000000 1.0
C      1  0.4647240000000  0.4288620000000  0.5183230000000 1.0
C      1  0.4687810000000  0.4770840000000  0.4951120000000 1.0
C      1  0.5599340000000  0.4980250000000  0.5641410000000 1.0
C      1  0.4444720000000  0.5882990000000  0.4975020000000 1.0
C      1  0.5135040000000  0.5417250000000  0.5713090000000 1.0
C      1  0.5339780000000  0.5616960000000  0.5318470000000 1.0
C      1  0.4829850000000  0.5315940000000  0.4202730000000 1.0
C      1  0.4361340000000  0.4901340000000  0.4452280000000 1.0
C      1  0.5220020000000  0.5011740000000  0.4809790000000 1.0
C      1  0.4274950000000  0.5405810000000  0.4985730000000 1.0
END
