TITL C-2441165-58-1458 0.0309852231168142 125000 -28284.6906497752 0 0 189 (C1) n - 1
REM
REM in /home/bkarasulu/work/CARBON/AIRSS/Generating-Clusters/ReaxFF-fromJPCA2015/Units_Real/with-SteepDescent/Higher-Symm
REM
REM
REM
REM
REM
REM ./C.cell (1df0a924f5614ab8850e4351716899ee)
REM
REM compiler GCC version 9.2.1 20190827 (Red Hat 9.2.1-1)
REM options -cpp -mtune=generic -march=x86-64 -g -O0 -fpre-include=/usr/include/finclude/math-vector-fortran.h
REM seed -1995911542 -126271655 354279140 -193970546 -2017776178 1082461507 1206680944 1126399850 -230782066 1431660585 -546633690 1464911599 -1232219995 1410988897 -162953998 402527455 -2046961017 1119605838 1088221667 -1492530615 -692421093 1237020644 1055371292 1847731078 625049153 573709380 -1947397228 -1118752170 1309945917 -714413456 1930033399 -823716108 -76197015
REM
CELL 1.54180   50.00000   50.00000   50.00000   90.00000   90.00000   90.00000
LATT -1
SFAC C  
C      1  0.5119060000000  0.5510250000000  0.5631310000000 1.0
C      1  0.5418770000000  0.5696020000000  0.5157830000000 1.0
C      1  0.5717130000000  0.5157460000000  0.5486860000000 1.0
C      1  0.4854600000000  0.5485700000000  0.4289720000000 1.0
C      1  0.4902640000000  0.4518580000000  0.5665730000000 1.0
C      1  0.5126880000000  0.4545380000000  0.4415290000000 1.0
C      1  0.4484610000000  0.5627710000000  0.4874630000000 1.0
C      1  0.4499340000000  0.4261760000000  0.5167330000000 1.0
C      1  0.5545470000000  0.4396160000000  0.4873100000000 1.0
C      1  0.4293370000000  0.5129660000000  0.4574270000000 1.0
C      1  0.4412730000000  0.4878230000000  0.5505730000000 1.0
C      1  0.5688020000000  0.4793940000000  0.4566870000000 1.0
C      1  0.5194970000000  0.4513620000000  0.5674590000000 1.0
C      1  0.5480800000000  0.4373420000000  0.5159980000000 1.0
C      1  0.5689040000000  0.4868110000000  0.5523520000000 1.0
C      1  0.4807340000000  0.4547460000000  0.4438340000000 1.0
C      1  0.4840310000000  0.5487200000000  0.5561470000000 1.0
C      1  0.5145660000000  0.5509090000000  0.4313310000000 1.0
C      1  0.4448140000000  0.4286950000000  0.4879040000000 1.0
C      1  0.4509860000000  0.5556930000000  0.5152340000000 1.0
C      1  0.5520930000000  0.5643100000000  0.4884510000000 1.0
C      1  0.4318540000000  0.4834180000000  0.4529810000000 1.0
C      1  0.4453190000000  0.5155130000000  0.5477490000000 1.0
C      1  0.5603610000000  0.5073210000000  0.4512170000000 1.0
C      1  0.5567410000000  0.4342680000000  0.5921860000000 1.0
C      1  0.4382010000000  0.5885920000000  0.5521040000000 1.0
C      1  0.5882110000000  0.5504000000000  0.4408380000000 1.0
C      1  0.4503690000000  0.4406820000000  0.4074400000000 1.0
C      1  0.4455580000000  0.5598320000000  0.5884590000000 1.0
C      1  0.5551330000000  0.5624510000000  0.4094330000000 1.0
C      1  0.5639760000000  0.5907950000000  0.4470030000000 1.0
C      1  0.5612100000000  0.4085070000000  0.5537190000000 1.0
C      1  0.4385280000000  0.4091470000000  0.4425410000000 1.0
C      1  0.4101940000000  0.5474560000000  0.5605270000000 1.0
C      1  0.4112570000000  0.4460120000000  0.4319890000000 1.0
C      1  0.5915750000000  0.4453680000000  0.5609060000000 1.0
C      1  0.5512770000000  0.5605190000000  0.5898970000000 1.0
C      1  0.4343300000000  0.4110350000000  0.5578820000000 1.0
C      1  0.5901100000000  0.4431670000000  0.4339770000000 1.0
C      1  0.4444350000000  0.5635570000000  0.4089650000000 1.0
C      1  0.4465360000000  0.4422170000000  0.5904890000000 1.0
C      1  0.5491640000000  0.4380150000000  0.4092930000000 1.0
C      1  0.5604110000000  0.4098520000000  0.4461870000000 1.0
C      1  0.5617270000000  0.5906800000000  0.5550760000000 1.0
C      1  0.4374900000000  0.5894210000000  0.4480420000000 1.0
C      1  0.4110360000000  0.4540330000000  0.5614710000000 1.0
C      1  0.4089500000000  0.5531550000000  0.4379460000000 1.0
C      1  0.5911830000000  0.5554200000000  0.5650620000000 1.0
C      1  0.6147500000000  0.5124480000000  0.5280880000000 1.0
C      1  0.5135110000000  0.5221770000000  0.6037720000000 1.0
C      1  0.5268570000000  0.6172480000000  0.5142930000000 1.0
C      1  0.3819450000000  0.5128010000000  0.4729290000000 1.0
C      1  0.3953800000000  0.4835860000000  0.5240560000000 1.0
C      1  0.6162800000000  0.4861070000000  0.4707860000000 1.0
C      1  0.4842810000000  0.5276110000000  0.3839660000000 1.0
C      1  0.4862150000000  0.4739260000000  0.6143810000000 1.0
C      1  0.5126120000000  0.4704520000000  0.3870480000000 1.0
C      1  0.4735200000000  0.6075380000000  0.4851310000000 1.0
C      1  0.4727450000000  0.3854200000000  0.5150960000000 1.0
C      1  0.5275480000000  0.3948460000000  0.4879390000000 1.0
C      1  0.6080540000000  0.4838580000000  0.5239330000000 1.0
C      1  0.5156210000000  0.4708580000000  0.6133810000000 1.0
C      1  0.5242370000000  0.3914480000000  0.5161320000000 1.0
C      1  0.3857790000000  0.4835840000000  0.4718260000000 1.0
C      1  0.3899480000000  0.5121640000000  0.5261000000000 1.0
C      1  0.6082240000000  0.5134850000000  0.4757180000000 1.0
C      1  0.4857150000000  0.4731220000000  0.3945910000000 1.0
C      1  0.4871880000000  0.5293320000000  0.6116060000000 1.0
C      1  0.5141180000000  0.5264990000000  0.3853660000000 1.0
C      1  0.4749980000000  0.3890270000000  0.4859550000000 1.0
C      1  0.4731920000000  0.6098320000000  0.5131350000000 1.0
C      1  0.5256000000000  0.6141350000000  0.4848290000000 1.0
C      1  0.5430870000000  0.4788770000000  0.5414180000000 1.0
C      1  0.4806510000000  0.5591120000000  0.5253360000000 1.0
C      1  0.5600220000000  0.5360080000000  0.4867770000000 1.0
C      1  0.4656430000000  0.4810470000000  0.4440100000000 1.0
C      1  0.4754180000000  0.5185960000000  0.5585170000000 1.0
C      1  0.5330020000000  0.5146330000000  0.4586170000000 1.0
C      1  0.5233300000000  0.5419670000000  0.4584740000000 1.0
C      1  0.5208600000000  0.4401650000000  0.5339550000000 1.0
C      1  0.4798950000000  0.4441630000000  0.4721840000000 1.0
C      1  0.4414100000000  0.5248580000000  0.5180520000000 1.0
C      1  0.4560400000000  0.4541930000000  0.4795730000000 1.0
C      1  0.5552920000000  0.4708680000000  0.5165540000000 1.0
C      1  0.5382720000000  0.5157410000000  0.5566520000000 1.0
C      1  0.4822060000000  0.4612020000000  0.5400390000000 1.0
C      1  0.5444940000000  0.4652340000000  0.4760150000000 1.0
C      1  0.4603700000000  0.5186000000000  0.4693770000000 1.0
C      1  0.4557770000000  0.4690340000000  0.5382800000000 1.0
C      1  0.5190550000000  0.4807190000000  0.4340400000000 1.0
C      1  0.5196410000000  0.4489920000000  0.4700570000000 1.0
C      1  0.5279690000000  0.5371570000000  0.5464380000000 1.0
C      1  0.4842420000000  0.5571740000000  0.4614750000000 1.0
C      1  0.4441720000000  0.4600520000000  0.5169030000000 1.0
C      1  0.4622690000000  0.5465120000000  0.4705730000000 1.0
C      1  0.5285750000000  0.5394040000000  0.5188110000000 1.0
C      1  0.4673920000000  0.5902270000000  0.5563290000000 1.0
C      1  0.5918270000000  0.5581370000000  0.4688380000000 1.0
C      1  0.5600390000000  0.4632170000000  0.5929070000000 1.0
C      1  0.5354600000000  0.5936540000000  0.4407490000000 1.0
C      1  0.5323890000000  0.4068680000000  0.5597050000000 1.0
C      1  0.4677030000000  0.4091650000000  0.4407090000000 1.0
C      1  0.4082250000000  0.5534860000000  0.5318960000000 1.0
C      1  0.4083820000000  0.4409730000000  0.4606740000000 1.0
C      1  0.5914170000000  0.4422420000000  0.5315860000000 1.0
C      1  0.4448990000000  0.4698230000000  0.4063600000000 1.0
C      1  0.4411180000000  0.5307850000000  0.5908340000000 1.0
C      1  0.5577040000000  0.5329200000000  0.4092550000000 1.0
C      1  0.4638040000000  0.4106080000000  0.5597390000000 1.0
C      1  0.5935970000000  0.4406100000000  0.4631160000000 1.0
C      1  0.5580390000000  0.5320430000000  0.5919050000000 1.0
C      1  0.5312790000000  0.4100300000000  0.4418800000000 1.0
C      1  0.5327440000000  0.5926340000000  0.5580110000000 1.0
C      1  0.4655640000000  0.5922060000000  0.4401260000000 1.0
C      1  0.4076200000000  0.4443080000000  0.5337120000000 1.0
C      1  0.4069210000000  0.5566230000000  0.4668160000000 1.0
C      1  0.5896520000000  0.5576920000000  0.5357190000000 1.0
C      1  0.4423680000000  0.5342870000000  0.4110280000000 1.0
C      1  0.4407470000000  0.4707920000000  0.5930250000000 1.0
C      1  0.5560730000000  0.4662820000000  0.4088710000000 1.0
C      1  0.4239230000000  0.4720640000000  0.4269940000000 1.0
C      1  0.4721940000000  0.4327380000000  0.4247370000000 1.0
C      1  0.4260750000000  0.4188050000000  0.4675840000000 1.0
C      1  0.5806220000000  0.4697130000000  0.5730330000000 1.0
C      1  0.5740000000000  0.5259030000000  0.4326980000000 1.0
C      1  0.4235230000000  0.5229530000000  0.5695220000000 1.0
C      1  0.5305900000000  0.4272590000000  0.5802440000000 1.0
C      1  0.5301100000000  0.5729510000000  0.4201970000000 1.0
C      1  0.4698180000000  0.5689650000000  0.5750000000000 1.0
C      1  0.5704730000000  0.4223860000000  0.5297400000000 1.0
C      1  0.5720040000000  0.5793220000000  0.4729070000000 1.0
C      1  0.4289890000000  0.5732100000000  0.5292730000000 1.0
C      1  0.4235890000000  0.5283640000000  0.4324610000000 1.0
C      1  0.4703140000000  0.5724080000000  0.4193810000000 1.0
C      1  0.4276270000000  0.5764210000000  0.4728230000000 1.0
C      1  0.5803680000000  0.5295410000000  0.5733930000000 1.0
C      1  0.5759790000000  0.4685950000000  0.4294970000000 1.0
C      1  0.4224270000000  0.4799660000000  0.5710750000000 1.0
C      1  0.5268520000000  0.5713930000000  0.5772380000000 1.0
C      1  0.5253840000000  0.4318700000000  0.4243710000000 1.0
C      1  0.4712520000000  0.4322600000000  0.5779870000000 1.0
C      1  0.5672400000000  0.5757000000000  0.5307250000000 1.0
C      1  0.5715070000000  0.4227690000000  0.4707350000000 1.0
C      1  0.4254520000000  0.4205040000000  0.5319110000000 1.0
C      1  0.5913350000000  0.5310780000000  0.5234590000000 1.0
C      1  0.5369660000000  0.5107440000000  0.5892000000000 1.0
C      1  0.5204190000000  0.5928710000000  0.5310230000000 1.0
C      1  0.4069980000000  0.5292350000000  0.4783930000000 1.0
C      1  0.4120090000000  0.4624140000000  0.5103320000000 1.0
C      1  0.5933560000000  0.4663290000000  0.4774580000000 1.0
C      1  0.4695100000000  0.5228100000000  0.4097080000000 1.0
C      1  0.4630430000000  0.4865140000000  0.6015280000000 1.0
C      1  0.5322930000000  0.4854380000000  0.4086450000000 1.0
C      1  0.4863900000000  0.5916970000000  0.4618270000000 1.0
C      1  0.4770410000000  0.4089260000000  0.5336660000000 1.0
C      1  0.5163520000000  0.4145180000000  0.4671980000000 1.0
C      1  0.5891570000000  0.4651060000000  0.5114930000000 1.0
C      1  0.5335810000000  0.4757030000000  0.5899450000000 1.0
C      1  0.5121230000000  0.4104100000000  0.5373570000000 1.0
C      1  0.4102460000000  0.4667140000000  0.4750910000000 1.0
C      1  0.4115540000000  0.5297850000000  0.5123370000000 1.0
C      1  0.5914990000000  0.5345300000000  0.4884970000000 1.0
C      1  0.4665530000000  0.4890590000000  0.4138760000000 1.0
C      1  0.4669950000000  0.5149990000000  0.5911460000000 1.0
C      1  0.5369550000000  0.5156650000000  0.3995410000000 1.0
C      1  0.4838150000000  0.4092450000000  0.4660110000000 1.0
C      1  0.4864260000000  0.5880910000000  0.5320900000000 1.0
C      1  0.5161210000000  0.6016010000000  0.4604840000000 1.0
C      1  0.4807670000000  0.5014990000000  0.4565420000000 1.0
C      1  0.4999550000000  0.4543590000000  0.4895270000000 1.0
C      1  0.4542500000000  0.4765640000000  0.4963990000000 1.0
C      1  0.5206580000000  0.4955860000000  0.5460300000000 1.0
C      1  0.5089400000000  0.4995270000000  0.4528720000000 1.0
C      1  0.4932140000000  0.5035640000000  0.5394150000000 1.0
C      1  0.5005060000000  0.4540610000000  0.5185730000000 1.0
C      1  0.5041590000000  0.5472970000000  0.4782440000000 1.0
C      1  0.4997360000000  0.5395670000000  0.5067060000000 1.0
C      1  0.5417900000000  0.4881680000000  0.4971860000000 1.0
C      1  0.5431990000000  0.5169740000000  0.5001250000000 1.0
C      1  0.4610440000000  0.5060000000000  0.5002360000000 1.0
C      1  0.5766130000000  0.4235620000000  0.5737730000000 1.0
C      1  0.5758490000000  0.5732440000000  0.4268480000000 1.0
C      1  0.4242450000000  0.5712460000000  0.5716490000000 1.0
C      1  0.4239750000000  0.5755050000000  0.4261100000000 1.0
C      1  0.5713870000000  0.4234620000000  0.4229570000000 1.0
C      1  0.4235690000000  0.4316920000000  0.5757170000000 1.0
C      1  0.4286830000000  0.4256970000000  0.4204040000000 1.0
C      1  0.5733210000000  0.5749880000000  0.5771200000000 1.0
C      1  0.4877490000000  0.5119510000000  0.5123480000000 1.0
END
