TITL C-2441165-58-35 0.0165785981943047 125000 -15477.2105564768 0 0 102 (C1) n - 1
REM
REM in /home/bkarasulu/work/CARBON/AIRSS/Generating-Clusters/ReaxFF-fromJPCA2015/Units_Real/with-SteepDescent/Higher-Symm
REM
REM
REM
REM
REM
REM ./C.cell (1df0a924f5614ab8850e4351716899ee)
REM
REM compiler GCC version 9.2.1 20190827 (Red Hat 9.2.1-1)
REM options -cpp -mtune=generic -march=x86-64 -g -O0 -fpre-include=/usr/include/finclude/math-vector-fortran.h
REM seed -2084058176 2044624892 -470136267 -303361133 369144887 506409637 -55277855 -462940925 328893763 359438894 -643800819 -218553600 337593560 -416079910 -1152794376 -1447551895 -234642914 -275017619 1375364418 -1599600763 -1375304552 779474213 -1300413357 21679063 -1264703841 -1607766204 -874672659 -1258259216 767517230 -60238182 -1137846714 -1113035163 2044189262
REM
CELL 1.54180   50.00000   50.00000   50.00000   90.00000   90.00000   90.00000
LATT -1
SFAC C  
C      1  0.5251150000000  0.4554070000000  0.5713600000000 1.0
C      1  0.4645790000000  0.4644240000000  0.5735390000000 1.0
C      1  0.4546600000000  0.5229530000000  0.5707110000000 1.0
C      1  0.5059850000000  0.5507850000000  0.5674150000000 1.0
C      1  0.5521380000000  0.5105210000000  0.5699010000000 1.0
C      1  0.5239280000000  0.5487510000000  0.4233570000000 1.0
C      1  0.4652140000000  0.5378790000000  0.4278560000000 1.0
C      1  0.4549190000000  0.4768160000000  0.4281510000000 1.0
C      1  0.5091360000000  0.4504680000000  0.4257350000000 1.0
C      1  0.5530540000000  0.4944060000000  0.4266010000000 1.0
C      1  0.4778090000000  0.4882130000000  0.4137490000000 1.0
C      1  0.4821320000000  0.5188400000000  0.4136830000000 1.0
C      1  0.5098550000000  0.5259450000000  0.4112950000000 1.0
C      1  0.5236360000000  0.4989630000000  0.4164070000000 1.0
C      1  0.5033280000000  0.4751410000000  0.4122040000000 1.0
C      1  0.4781030000000  0.5126370000000  0.5842250000000 1.0
C      1  0.4833760000000  0.4836190000000  0.5853370000000 1.0
C      1  0.5126590000000  0.4788880000000  0.5836920000000 1.0
C      1  0.5258600000000  0.5053020000000  0.5825070000000 1.0
C      1  0.5047100000000  0.5256990000000  0.5822170000000 1.0
C      1  0.4552320000000  0.5677330000000  0.5144630000000 1.0
C      1  0.5576750000000  0.5622150000000  0.5167080000000 1.0
C      1  0.5773820000000  0.4639890000000  0.5168500000000 1.0
C      1  0.4911720000000  0.4146390000000  0.5182870000000 1.0
C      1  0.4224140000000  0.4776120000000  0.5128860000000 1.0
C      1  0.4559130000000  0.4317820000000  0.4899870000000 1.0
C      1  0.5511890000000  0.4364910000000  0.4888100000000 1.0
C      1  0.5753170000000  0.5292600000000  0.4868010000000 1.0
C      1  0.4990170000000  0.5810410000000  0.4836570000000 1.0
C      1  0.4234270000000  0.5228910000000  0.4854020000000 1.0
C      1  0.5336470000000  0.4774750000000  0.5352810000000 1.0
C      1  0.4883030000000  0.4732680000000  0.5400700000000 1.0
C      1  0.4613720000000  0.5084060000000  0.5312340000000 1.0
C      1  0.4857220000000  0.5230350000000  0.5341160000000 1.0
C      1  0.5270230000000  0.5049850000000  0.5374260000000 1.0
C      1  0.5199410000000  0.5251200000000  0.4636410000000 1.0
C      1  0.4954050000000  0.5372660000000  0.4643460000000 1.0
C      1  0.4674950000000  0.4990640000000  0.4602380000000 1.0
C      1  0.4920680000000  0.4624580000000  0.4606950000000 1.0
C      1  0.5182650000000  0.5020180000000  0.4470160000000 1.0
C      1  0.5420610000000  0.5573050000000  0.4660440000000 1.0
C      1  0.5615270000000  0.4810530000000  0.4711410000000 1.0
C      1  0.5058190000000  0.4308970000000  0.4811200000000 1.0
C      1  0.4277610000000  0.4718940000000  0.4837010000000 1.0
C      1  0.4516550000000  0.5643910000000  0.4846910000000 1.0
C      1  0.5427980000000  0.4296650000000  0.5170480000000 1.0
C      1  0.5683110000000  0.5172130000000  0.5157570000000 1.0
C      1  0.5043870000000  0.5687080000000  0.5128350000000 1.0
C      1  0.4250030000000  0.5279530000000  0.5148690000000 1.0
C      1  0.4487250000000  0.4365290000000  0.5182750000000 1.0
C      1  0.4367790000000  0.5429420000000  0.4696020000000 1.0
C      1  0.5191320000000  0.5777720000000  0.4632160000000 1.0
C      1  0.5734660000000  0.5107100000000  0.4657410000000 1.0
C      1  0.5319800000000  0.4328060000000  0.4671810000000 1.0
C      1  0.4449890000000  0.4504450000000  0.4709340000000 1.0
C      1  0.4348580000000  0.4593560000000  0.5315840000000 1.0
C      1  0.5167780000000  0.4239330000000  0.5302550000000 1.0
C      1  0.5773720000000  0.4902000000000  0.5303650000000 1.0
C      1  0.5320590000000  0.5682550000000  0.5285200000000 1.0
C      1  0.4407550000000  0.5488350000000  0.5299980000000 1.0
C      1  0.4208910000000  0.5029890000000  0.5272290000000 1.0
C      1  0.4796600000000  0.5748400000000  0.5296300000000 1.0
C      1  0.5695080000000  0.5417370000000  0.5340340000000 1.0
C      1  0.5617970000000  0.4445240000000  0.5323300000000 1.0
C      1  0.4699910000000  0.4260700000000  0.5339500000000 1.0
C      1  0.4237290000000  0.4969560000000  0.4712430000000 1.0
C      1  0.4821000000000  0.4167400000000  0.4902500000000 1.0
C      1  0.5703790000000  0.4582250000000  0.4890610000000 1.0
C      1  0.5619440000000  0.5546880000000  0.4879900000000 1.0
C      1  0.4737090000000  0.5760820000000  0.4713430000000 1.0
C      1  0.4573830000000  0.4521390000000  0.4435690000000 1.0
C      1  0.4430970000000  0.5306660000000  0.4435340000000 1.0
C      1  0.5092650000000  0.5699940000000  0.4370740000000 1.0
C      1  0.5632960000000  0.5189990000000  0.4400630000000 1.0
C      1  0.5343050000000  0.4487380000000  0.4424350000000 1.0
C      1  0.4554670000000  0.5473800000000  0.5560910000000 1.0
C      1  0.4422710000000  0.4719100000000  0.5569390000000 1.0
C      1  0.5109830000000  0.4358760000000  0.5563760000000 1.0
C      1  0.5670550000000  0.4890010000000  0.5566880000000 1.0
C      1  0.5317990000000  0.5560670000000  0.5544190000000 1.0
C      1  0.4407550000000  0.4994510000000  0.4456440000000 1.0
C      1  0.4826030000000  0.5583180000000  0.4456820000000 1.0
C      1  0.5475450000000  0.5438400000000  0.4402130000000 1.0
C      1  0.5533930000000  0.4705850000000  0.4428990000000 1.0
C      1  0.4850060000000  0.4422080000000  0.4404330000000 1.0
C      1  0.4390380000000  0.5021910000000  0.5528100000000 1.0
C      1  0.4817010000000  0.4458900000000  0.5546600000000 1.0
C      1  0.5513120000000  0.4614350000000  0.5555760000000 1.0
C      1  0.5552840000000  0.5375610000000  0.5584110000000 1.0
C      1  0.4813330000000  0.5624920000000  0.5555080000000 1.0
C      1  0.5338150000000  0.4857170000000  0.4864610000000 1.0
C      1  0.4925870000000  0.4553720000000  0.4864200000000 1.0
C      1  0.4676090000000  0.5093930000000  0.4864880000000 1.0
C      1  0.4844820000000  0.5308600000000  0.4880580000000 1.0
C      1  0.5254310000000  0.5132140000000  0.4892060000000 1.0
C      1  0.5379910000000  0.5179050000000  0.5144490000000 1.0
C      1  0.4949070000000  0.5390690000000  0.5116030000000 1.0
C      1  0.4672220000000  0.4930500000000  0.5090900000000 1.0
C      1  0.4892070000000  0.4725530000000  0.5103140000000 1.0
C      1  0.5228860000000  0.4728460000000  0.5093280000000 1.0
C      1  0.4932440000000  0.4896990000000  0.4522270000000 1.0
C      1  0.4996200000000  0.4997460000000  0.5443190000000 1.0
END
