TITL C-2441166-8118-1097 0.0910206160305402 125000 -13694.9761853092 0 0 109 (C1) n - 1
REM
REM in /home/bkarasulu/work/CARBON/AIRSS/Generating-Clusters/ReaxFF-fromJPCA2015/Units_Real/with-SteepDescent/Higher-Symm
REM
REM
REM
REM
REM
REM ./C.cell (1df0a924f5614ab8850e4351716899ee)
REM
REM compiler GCC version 9.2.1 20190827 (Red Hat 9.2.1-1)
REM options -cpp -mtune=generic -march=x86-64 -g -O0 -fpre-include=/usr/include/finclude/math-vector-fortran.h
REM seed -293919208 -2144367235 1760122320 1083881566 1319819404 770049329 940015315 438881782 1924299716 1055986189 415491941 1504535501 -1420076411 1717349906 1651252769 306194219 702433705 64374941 1686237928 37973558 982053664 -2066087684 -723731255 -958067226 -1122786919 1263489212 -993776539 -251495079 -2094885890 1644205849 -1912595414 16224249 -2120887642
REM
CELL 1.54180   50.00000   50.00000   50.00000   90.00000   90.00000   90.00000
LATT -1
SFAC C  
C      1  0.5363060000000  0.5495660000000  0.4792290000000 1.0
C      1  0.4547780000000  0.5546310000000  0.5198740000000 1.0
C      1  0.4188150000000  0.5028280000000  0.5268770000000 1.0
C      1  0.5840220000000  0.5027680000000  0.4717710000000 1.0
C      1  0.5641040000000  0.4415850000000  0.5155280000000 1.0
C      1  0.4348390000000  0.4418830000000  0.4831440000000 1.0
C      1  0.4896610000000  0.5789070000000  0.5438420000000 1.0
C      1  0.5141960000000  0.5688750000000  0.4454770000000 1.0
C      1  0.5385220000000  0.4246990000000  0.4667300000000 1.0
C      1  0.4604240000000  0.4251320000000  0.5315380000000 1.0
C      1  0.4946120000000  0.5270390000000  0.4784320000000 1.0
C      1  0.5064370000000  0.5289660000000  0.5235900000000 1.0
C      1  0.5122490000000  0.5204500000000  0.5863340000000 1.0
C      1  0.4877740000000  0.5192270000000  0.4140120000000 1.0
C      1  0.5512600000000  0.5291980000000  0.4408600000000 1.0
C      1  0.4504280000000  0.5298750000000  0.5602030000000 1.0
C      1  0.4752900000000  0.5074750000000  0.4935970000000 1.0
C      1  0.5233450000000  0.5092140000000  0.5079920000000 1.0
C      1  0.5620550000000  0.5510170000000  0.4876080000000 1.0
C      1  0.4318930000000  0.5442880000000  0.5066780000000 1.0
C      1  0.5600650000000  0.4511460000000  0.5442820000000 1.0
C      1  0.4356840000000  0.4546090000000  0.4555000000000 1.0
C      1  0.4510590000000  0.4245070000000  0.5009960000000 1.0
C      1  0.5494900000000  0.4264410000000  0.4950780000000 1.0
C      1  0.4409970000000  0.5063050000000  0.4285920000000 1.0
C      1  0.5584860000000  0.5065130000000  0.5721880000000 1.0
C      1  0.4571890000000  0.4900590000000  0.4609300000000 1.0
C      1  0.5432300000000  0.4892860000000  0.5395770000000 1.0
C      1  0.5781400000000  0.4900320000000  0.5227900000000 1.0
C      1  0.4241460000000  0.4953220000000  0.4829760000000 1.0
C      1  0.4342380000000  0.4657910000000  0.5484180000000 1.0
C      1  0.5682480000000  0.4655600000000  0.4517960000000 1.0
C      1  0.5390340000000  0.5763610000000  0.5187470000000 1.0
C      1  0.4612120000000  0.5749940000000  0.4807810000000 1.0
C      1  0.4503780000000  0.5316720000000  0.4374670000000 1.0
C      1  0.5491280000000  0.5311780000000  0.5611460000000 1.0
C      1  0.4794360000000  0.4811810000000  0.4844850000000 1.0
C      1  0.5169270000000  0.4803150000000  0.5121620000000 1.0
C      1  0.5324390000000  0.5724140000000  0.5453840000000 1.0
C      1  0.4760060000000  0.5709760000000  0.4578400000000 1.0
C      1  0.4317990000000  0.4680950000000  0.4984300000000 1.0
C      1  0.5725360000000  0.4684050000000  0.5028880000000 1.0
C      1  0.4615370000000  0.5713670000000  0.5434950000000 1.0
C      1  0.5391250000000  0.5673660000000  0.4595280000000 1.0
C      1  0.5254950000000  0.4923250000000  0.5578830000000 1.0
C      1  0.4765970000000  0.4908210000000  0.4439050000000 1.0
C      1  0.5697600000000  0.4834460000000  0.5503610000000 1.0
C      1  0.4295430000000  0.4854560000000  0.4512520000000 1.0
C      1  0.5813090000000  0.4752940000000  0.4755630000000 1.0
C      1  0.4207320000000  0.4738590000000  0.5250460000000 1.0
C      1  0.4921140000000  0.4763400000000  0.5851370000000 1.0
C      1  0.5105040000000  0.4785220000000  0.4172690000000 1.0
C      1  0.4907480000000  0.5928420000000  0.5181460000000 1.0
C      1  0.5064070000000  0.5960670000000  0.4946670000000 1.0
C      1  0.5037820000000  0.4678000000000  0.4790610000000 1.0
C      1  0.4909360000000  0.4676280000000  0.5190160000000 1.0
C      1  0.5193820000000  0.5659030000000  0.4961120000000 1.0
C      1  0.4748550000000  0.5668650000000  0.5049790000000 1.0
C      1  0.5416220000000  0.5080740000000  0.4253380000000 1.0
C      1  0.4580850000000  0.5077620000000  0.5775070000000 1.0
C      1  0.5454160000000  0.4474090000000  0.4491590000000 1.0
C      1  0.4561270000000  0.4473130000000  0.5497790000000 1.0
C      1  0.4456440000000  0.4826500000000  0.5693860000000 1.0
C      1  0.5564590000000  0.4834830000000  0.4312820000000 1.0
C      1  0.5634330000000  0.5179850000000  0.4644480000000 1.0
C      1  0.4453300000000  0.5136730000000  0.5336770000000 1.0
C      1  0.4409790000000  0.5554870000000  0.4823210000000 1.0
C      1  0.5594760000000  0.5555920000000  0.5159280000000 1.0
C      1  0.4872860000000  0.4180990000000  0.5249600000000 1.0
C      1  0.5117790000000  0.4173140000000  0.4769600000000 1.0
C      1  0.4822010000000  0.4172660000000  0.4753640000000 1.0
C      1  0.5149510000000  0.4189100000000  0.5290900000000 1.0
C      1  0.4916880000000  0.5519150000000  0.4530890000000 1.0
C      1  0.5094590000000  0.5550480000000  0.5472960000000 1.0
C      1  0.4687060000000  0.5013990000000  0.5222390000000 1.0
C      1  0.5271810000000  0.4851030000000  0.4739060000000 1.0
C      1  0.4685030000000  0.4655040000000  0.5713140000000 1.0
C      1  0.5343910000000  0.4663120000000  0.4294530000000 1.0
C      1  0.4701390000000  0.4753150000000  0.4197520000000 1.0
C      1  0.5236500000000  0.4741640000000  0.5804200000000 1.0
C      1  0.4779900000000  0.5404510000000  0.4303910000000 1.0
C      1  0.5228660000000  0.5412280000000  0.5702130000000 1.0
C      1  0.4440140000000  0.5345210000000  0.4652050000000 1.0
C      1  0.5580920000000  0.5334150000000  0.5333880000000 1.0
C      1  0.4662710000000  0.5524390000000  0.5625700000000 1.0
C      1  0.5370010000000  0.5536880000000  0.4348900000000 1.0
C      1  0.4671200000000  0.4634950000000  0.5027900000000 1.0
C      1  0.5394820000000  0.4695460000000  0.4957650000000 1.0
C      1  0.5375320000000  0.4514880000000  0.5641840000000 1.0
C      1  0.4586460000000  0.4518490000000  0.4375750000000 1.0
C      1  0.4621170000000  0.5023870000000  0.4086090000000 1.0
C      1  0.5360060000000  0.5029210000000  0.5902950000000 1.0
C      1  0.4864800000000  0.5044670000000  0.5856240000000 1.0
C      1  0.5143200000000  0.5072620000000  0.4141280000000 1.0
C      1  0.4899340000000  0.5099980000000  0.5379210000000 1.0
C      1  0.5221070000000  0.5147550000000  0.4779570000000 1.0
C      1  0.4733380000000  0.4399910000000  0.4595800000000 1.0
C      1  0.5276420000000  0.4415240000000  0.5402770000000 1.0
C      1  0.5215920000000  0.4267110000000  0.5029240000000 1.0
C      1  0.4799110000000  0.4322640000000  0.4984020000000 1.0
C      1  0.4998040000000  0.4825400000000  0.4434150000000 1.0
C      1  0.5022080000000  0.4879790000000  0.5496620000000 1.0
C      1  0.4180550000000  0.5180810000000  0.5022990000000 1.0
C      1  0.5794820000000  0.5278070000000  0.4856780000000 1.0
C      1  0.5013030000000  0.4586060000000  0.5449650000000 1.0
C      1  0.4968530000000  0.4548940000000  0.4527490000000 1.0
C      1  0.4499740000000  0.5097660000000  0.4783740000000 1.0
C      1  0.5546430000000  0.5082160000000  0.5202200000000 1.0
C      1  0.4972190000000  0.5464760000000  0.5013280000000 1.0
END
