TITL C-2441161-5029-163 0.000914850932186321 125000 -2091.5663714876 0 0 17 (C3) n - 1
REM
REM in /home/bkarasulu/work/CARBON/AIRSS/Generating-Clusters/ReaxFF-fromJPCA2015/Units_Real/with-SteepDescent/Higher-Symm
REM
REM
REM
REM
REM
REM ./C.cell (1df0a924f5614ab8850e4351716899ee)
REM
REM compiler GCC version 9.2.1 20190827 (Red Hat 9.2.1-1)
REM options -cpp -mtune=generic -march=x86-64 -g -O0 -fpre-include=/usr/include/finclude/math-vector-fortran.h
REM seed 927935547 1618057153 841615720 -1716696259 1732551028 -600351751 994878476 -140997039 1989718365 1781184254 -708938329 863544425 -1502241129 -882358571 -1171191708 -1901013140 -1739953828 -1349637291 -1899074893 511441729 1523579788 454802332 1923902637 1712964742 -1312863607 -665445912 413998617 1617975034 -495245761 -349232653 -1078027946 -210017938 522812164
REM
CELL 1.54180   50.00000   50.00000   50.00000   90.00000   90.00000   90.00000
LATT -1
SFAC C  
C      1  0.5433670000000  0.4775050000000  0.5041430000000 1.0
C      1  0.4791810000000  0.4775020000000  0.5411920000000 1.0
C      1  0.4792020000000  0.4774980000000  0.4670850000000 1.0
C      1  0.5489500000000  0.4577430000000  0.5175130000000 1.0
C      1  0.4648100000000  0.4577400000000  0.5393480000000 1.0
C      1  0.4879850000000  0.4577340000000  0.4555640000000 1.0
C      1  0.4509520000000  0.5040820000000  0.4790580000000 1.0
C      1  0.5471160000000  0.5040850000000  0.4736880000000 1.0
C      1  0.5036790000000  0.5040850000000  0.5596690000000 1.0
C      1  0.4425380000000  0.5227280000000  0.4921460000000 1.0
C      1  0.5399840000000  0.5227280000000  0.4598560000000 1.0
C      1  0.5192210000000  0.5227290000000  0.5604120000000 1.0
C      1  0.4768280000000  0.5002110000000  0.4826730000000 1.0
C      1  0.5310530000000  0.5002180000000  0.4942960000000 1.0
C      1  0.4938710000000  0.5002140000000  0.5354520000000 1.0
C      1  0.5005820000000  0.5137990000000  0.5041430000000 1.0
C      1  0.5005790000000  0.5402760000000  0.5041430000000 1.0
END
