TITL C-2441162-9305-627 0.0602967341290572 125000 -15886.7097474255 0 0 118 (C1) n - 1
REM
REM in /home/bkarasulu/work/CARBON/AIRSS/Generating-Clusters/ReaxFF-fromJPCA2015/Units_Real/with-SteepDescent/Higher-Symm
REM
REM
REM
REM
REM
REM ./C.cell (1df0a924f5614ab8850e4351716899ee)
REM
REM compiler GCC version 9.2.1 20190827 (Red Hat 9.2.1-1)
REM options -cpp -mtune=generic -march=x86-64 -g -O0 -fpre-include=/usr/include/finclude/math-vector-fortran.h
REM seed -229184036 184111494 348418686 1374416711 1317041671 1692598179 -120891577 -405887371 1258733517 -1008787862 -234211657 -1144051282 -357720484 -1554206584 -1371568446 -1192795563 -1990111290 -2126665357 -1075611827 535552272 371650432 444812182 -460856979 -1092663129 -2108326973 646330873 1058192727 1465361686 1805889687 -1084520549 702176424 -560760424 51565814
REM
CELL 1.54180   50.00000   50.00000   50.00000   90.00000   90.00000   90.00000
LATT -1
SFAC C  
C      1  0.4489850000000  0.4971760000000  0.4852830000000 1.0
C      1  0.5508820000000  0.5017010000000  0.4868420000000 1.0
C      1  0.4696140000000  0.5711870000000  0.4521880000000 1.0
C      1  0.5302630000000  0.4286220000000  0.4509470000000 1.0
C      1  0.4561470000000  0.4652240000000  0.5716610000000 1.0
C      1  0.5427880000000  0.5368500000000  0.5748910000000 1.0
C      1  0.5448120000000  0.4213860000000  0.4747230000000 1.0
C      1  0.4524180000000  0.5769160000000  0.4751140000000 1.0
C      1  0.4864900000000  0.5054370000000  0.4739520000000 1.0
C      1  0.5133040000000  0.4926130000000  0.4760830000000 1.0
C      1  0.4985700000000  0.4314360000000  0.5405820000000 1.0
C      1  0.4998090000000  0.5682910000000  0.5380830000000 1.0
C      1  0.4967690000000  0.5693080000000  0.4395740000000 1.0
C      1  0.5026760000000  0.4303650000000  0.4392040000000 1.0
C      1  0.5700360000000  0.4519490000000  0.4877600000000 1.0
C      1  0.4308620000000  0.5524730000000  0.4828750000000 1.0
C      1  0.5422990000000  0.4512000000000  0.5659990000000 1.0
C      1  0.4562620000000  0.5499090000000  0.5674420000000 1.0
C      1  0.5731790000000  0.5242220000000  0.4555420000000 1.0
C      1  0.4262070000000  0.4762610000000  0.4560340000000 1.0
C      1  0.5544900000000  0.5172740000000  0.4348880000000 1.0
C      1  0.4449530000000  0.4829160000000  0.4351580000000 1.0
C      1  0.5134610000000  0.4475970000000  0.5225140000000 1.0
C      1  0.4925010000000  0.5654660000000  0.5105230000000 1.0
C      1  0.5327850000000  0.5262710000000  0.5238610000000 1.0
C      1  0.4682090000000  0.4741280000000  0.5242830000000 1.0
C      1  0.4477800000000  0.5106020000000  0.4256710000000 1.0
C      1  0.5521070000000  0.4894500000000  0.4257100000000 1.0
C      1  0.5037530000000  0.5189990000000  0.5157900000000 1.0
C      1  0.5009660000000  0.4738580000000  0.5197490000000 1.0
C      1  0.5380230000000  0.4774880000000  0.5780920000000 1.0
C      1  0.4618590000000  0.5236850000000  0.5792650000000 1.0
C      1  0.5210290000000  0.5909330000000  0.4971790000000 1.0
C      1  0.4961460000000  0.4105230000000  0.4958220000000 1.0
C      1  0.5142320000000  0.5618400000000  0.4958050000000 1.0
C      1  0.4815170000000  0.4349140000000  0.4971940000000 1.0
C      1  0.4581610000000  0.4714420000000  0.4961270000000 1.0
C      1  0.5431070000000  0.5285050000000  0.4956870000000 1.0
C      1  0.4724220000000  0.4411600000000  0.5701860000000 1.0
C      1  0.5247270000000  0.5595380000000  0.5695460000000 1.0
C      1  0.4805540000000  0.5141060000000  0.5004960000000 1.0
C      1  0.5132400000000  0.4938540000000  0.5041060000000 1.0
C      1  0.5142700000000  0.4970050000000  0.5968580000000 1.0
C      1  0.4859000000000  0.5014370000000  0.5970570000000 1.0
C      1  0.4329350000000  0.4690050000000  0.5543620000000 1.0
C      1  0.5642670000000  0.5282130000000  0.5577360000000 1.0
C      1  0.5165720000000  0.6008070000000  0.4710090000000 1.0
C      1  0.4838700000000  0.3973550000000  0.4715680000000 1.0
C      1  0.5099340000000  0.4875660000000  0.5440310000000 1.0
C      1  0.4910080000000  0.5115850000000  0.5429930000000 1.0
C      1  0.5647270000000  0.5567550000000  0.4923400000000 1.0
C      1  0.4345880000000  0.4432180000000  0.4918370000000 1.0
C      1  0.5574620000000  0.4709790000000  0.4471290000000 1.0
C      1  0.4423640000000  0.5291620000000  0.4469590000000 1.0
C      1  0.5393830000000  0.4435430000000  0.5355910000000 1.0
C      1  0.4441870000000  0.5557920000000  0.5382410000000 1.0
C      1  0.4511970000000  0.5719610000000  0.5163520000000 1.0
C      1  0.5460050000000  0.4244690000000  0.5153090000000 1.0
C      1  0.5841370000000  0.5449160000000  0.5119610000000 1.0
C      1  0.4159960000000  0.4549080000000  0.5103090000000 1.0
C      1  0.4329150000000  0.4497310000000  0.4644260000000 1.0
C      1  0.5673160000000  0.5508260000000  0.4641520000000 1.0
C      1  0.4449510000000  0.5079560000000  0.5582410000000 1.0
C      1  0.5584140000000  0.4954500000000  0.5572040000000 1.0
C      1  0.5216160000000  0.5424190000000  0.4752750000000 1.0
C      1  0.4789650000000  0.4567120000000  0.4767760000000 1.0
C      1  0.5202340000000  0.5819020000000  0.4511890000000 1.0
C      1  0.4793210000000  0.4184300000000  0.4510920000000 1.0
C      1  0.5870780000000  0.5075210000000  0.5294530000000 1.0
C      1  0.4166690000000  0.4900000000000  0.5326780000000 1.0
C      1  0.5037440000000  0.4704080000000  0.4095510000000 1.0
C      1  0.4954590000000  0.5307420000000  0.4086080000000 1.0
C      1  0.4486880000000  0.4283250000000  0.5309630000000 1.0
C      1  0.5516220000000  0.5700520000000  0.5321100000000 1.0
C      1  0.4276140000000  0.4474880000000  0.5363950000000 1.0
C      1  0.5710170000000  0.5490590000000  0.5381870000000 1.0
C      1  0.5078990000000  0.4906270000000  0.4263250000000 1.0
C      1  0.4914290000000  0.5107670000000  0.4255290000000 1.0
C      1  0.4700400000000  0.5819490000000  0.4984540000000 1.0
C      1  0.5278720000000  0.4130980000000  0.4961800000000 1.0
C      1  0.4704580000000  0.5170750000000  0.4078300000000 1.0
C      1  0.5287860000000  0.4838960000000  0.4084970000000 1.0
C      1  0.4966440000000  0.5304500000000  0.4647010000000 1.0
C      1  0.5040900000000  0.4675880000000  0.4663780000000 1.0
C      1  0.4709300000000  0.4423110000000  0.5416010000000 1.0
C      1  0.5274470000000  0.5572220000000  0.5406550000000 1.0
C      1  0.4921820000000  0.5292560000000  0.5674290000000 1.0
C      1  0.5072850000000  0.4708540000000  0.5671810000000 1.0
C      1  0.5100240000000  0.5482690000000  0.4241200000000 1.0
C      1  0.4897150000000  0.4522150000000  0.4246360000000 1.0
C      1  0.4200210000000  0.4970460000000  0.4774580000000 1.0
C      1  0.5792940000000  0.5032080000000  0.4767030000000 1.0
C      1  0.4555850000000  0.4235320000000  0.5033120000000 1.0
C      1  0.5490120000000  0.5793920000000  0.5053090000000 1.0
C      1  0.5749730000000  0.4648430000000  0.5146780000000 1.0
C      1  0.4298980000000  0.5371360000000  0.5208610000000 1.0
C      1  0.5498310000000  0.4805720000000  0.5081160000000 1.0
C      1  0.4537750000000  0.5195920000000  0.5034120000000 1.0
C      1  0.5310880000000  0.4573300000000  0.4613340000000 1.0
C      1  0.4688440000000  0.5422460000000  0.4618350000000 1.0
C      1  0.4581150000000  0.4420760000000  0.4528260000000 1.0
C      1  0.5421130000000  0.5576120000000  0.4522840000000 1.0
C      1  0.5191660000000  0.5195240000000  0.5806390000000 1.0
C      1  0.4802210000000  0.4810930000000  0.5788740000000 1.0
C      1  0.5794700000000  0.4818290000000  0.5378900000000 1.0
C      1  0.4222270000000  0.5173460000000  0.5405090000000 1.0
C      1  0.5768820000000  0.4729020000000  0.4674020000000 1.0
C      1  0.4231740000000  0.5287810000000  0.4676980000000 1.0
C      1  0.5376180000000  0.4977700000000  0.5358460000000 1.0
C      1  0.4643390000000  0.4995890000000  0.5383280000000 1.0
C      1  0.5369080000000  0.5402810000000  0.4302780000000 1.0
C      1  0.4631070000000  0.4602290000000  0.4313030000000 1.0
C      1  0.5020430000000  0.4411190000000  0.5680570000000 1.0
C      1  0.4958120000000  0.5582840000000  0.5653850000000 1.0
C      1  0.5411130000000  0.4570110000000  0.4913160000000 1.0
C      1  0.4559580000000  0.5405830000000  0.4885050000000 1.0
C      1  0.4111740000000  0.4826490000000  0.5057820000000 1.0
C      1  0.5906160000000  0.5180710000000  0.5041700000000 1.0
END
