TITL C-2441163-1170-1434 0.0204148481953146 125000 -15371.2374734383 0 0 108 (C1) n - 1
REM
REM in /home/bkarasulu/work/CARBON/AIRSS/Generating-Clusters/ReaxFF-fromJPCA2015/Units_Real/with-SteepDescent/Higher-Symm
REM
REM
REM
REM
REM
REM ./C.cell (1df0a924f5614ab8850e4351716899ee)
REM
REM compiler GCC version 9.2.1 20190827 (Red Hat 9.2.1-1)
REM options -cpp -mtune=generic -march=x86-64 -g -O0 -fpre-include=/usr/include/finclude/math-vector-fortran.h
REM seed -1924127696 -1120535927 2030138256 1367653991 877286737 -892287234 -1724159235 54597933 -1327053949 1421171509 441810225 -602007720 -1305589035 864242087 -1277293995 -1978192672 -1532138606 -521348155 -1501063203 -1608150488 -269229201 -539475580 2063999977 1038028192 -1343306765 -159940606 1221401399 -1950925284 -443121967 -1679112128 326218429 974274873 -1072532564
REM
CELL 1.54180   50.00000   50.00000   50.00000   90.00000   90.00000   90.00000
LATT -1
SFAC C  
C      1  0.4873620000000  0.4274480000000  0.4442690000000 1.0
C      1  0.5696780000000  0.5242480000000  0.4433660000000 1.0
C      1  0.4510280000000  0.5332470000000  0.4332760000000 1.0
C      1  0.5228210000000  0.5105050000000  0.5353040000000 1.0
C      1  0.4773250000000  0.5196110000000  0.5320720000000 1.0
C      1  0.4975800000000  0.4764820000000  0.5321290000000 1.0
C      1  0.4705160000000  0.4525790000000  0.4414450000000 1.0
C      1  0.5585810000000  0.4955040000000  0.4378210000000 1.0
C      1  0.4749420000000  0.5506450000000  0.4363270000000 1.0
C      1  0.4404410000000  0.5475840000000  0.5413270000000 1.0
C      1  0.4899930000000  0.4240810000000  0.5372800000000 1.0
C      1  0.5709570000000  0.5291130000000  0.5400920000000 1.0
C      1  0.4705940000000  0.4666010000000  0.5268620000000 1.0
C      1  0.5460880000000  0.4900400000000  0.5343590000000 1.0
C      1  0.4850890000000  0.5482100000000  0.5340200000000 1.0
C      1  0.5159870000000  0.5445960000000  0.4497540000000 1.0
C      1  0.4585710000000  0.4928450000000  0.4612020000000 1.0
C      1  0.5338240000000  0.4587800000000  0.4529240000000 1.0
C      1  0.4294500000000  0.4538630000000  0.5357680000000 1.0
C      1  0.5754630000000  0.4608840000000  0.5231820000000 1.0
C      1  0.4979650000000  0.5882550000000  0.5173780000000 1.0
C      1  0.5375530000000  0.5416890000000  0.4732770000000 1.0
C      1  0.4429660000000  0.5179310000000  0.4552440000000 1.0
C      1  0.5202900000000  0.4440470000000  0.4736030000000 1.0
C      1  0.5611380000000  0.4472920000000  0.4495010000000 1.0
C      1  0.5130250000000  0.5763840000000  0.4484450000000 1.0
C      1  0.4338890000000  0.4752310000000  0.4542350000000 1.0
C      1  0.4881860000000  0.5909600000000  0.4775260000000 1.0
C      1  0.4325080000000  0.4446820000000  0.4829290000000 1.0
C      1  0.5837740000000  0.4672740000000  0.4775550000000 1.0
C      1  0.4432190000000  0.5080290000000  0.5678130000000 1.0
C      1  0.5208300000000  0.4472900000000  0.5677870000000 1.0
C      1  0.5316480000000  0.5437040000000  0.5672350000000 1.0
C      1  0.4782970000000  0.5432550000000  0.4859620000000 1.0
C      1  0.4705870000000  0.4471710000000  0.4877900000000 1.0
C      1  0.5481720000000  0.4957090000000  0.4850630000000 1.0
C      1  0.4268170000000  0.4837520000000  0.5653780000000 1.0
C      1  0.5493090000000  0.4485770000000  0.5606070000000 1.0
C      1  0.5203520000000  0.5695810000000  0.5592230000000 1.0
C      1  0.4674870000000  0.5017680000000  0.5523120000000 1.0
C      1  0.5137050000000  0.4735920000000  0.5574390000000 1.0
C      1  0.5108450000000  0.5245720000000  0.5573600000000 1.0
C      1  0.5397200000000  0.4864490000000  0.4588960000000 1.0
C      1  0.4886560000000  0.5376140000000  0.4589080000000 1.0
C      1  0.4879080000000  0.4756380000000  0.4526760000000 1.0
C      1  0.4783310000000  0.5396870000000  0.5756610000000 1.0
C      1  0.4720780000000  0.4592040000000  0.5702540000000 1.0
C      1  0.5483370000000  0.4999880000000  0.5758530000000 1.0
C      1  0.4968250000000  0.4078500000000  0.4932930000000 1.0
C      1  0.5778970000000  0.5335880000000  0.4933620000000 1.0
C      1  0.4310560000000  0.5503260000000  0.4943860000000 1.0
C      1  0.4947370000000  0.4635190000000  0.4816540000000 1.0
C      1  0.5330650000000  0.5186570000000  0.4882140000000 1.0
C      1  0.4639500000000  0.5200460000000  0.5061990000000 1.0
C      1  0.4631830000000  0.5111880000000  0.4197620000000 1.0
C      1  0.5074570000000  0.4758610000000  0.4276090000000 1.0
C      1  0.5191060000000  0.5373390000000  0.4195050000000 1.0
C      1  0.5418980000000  0.4435960000000  0.4941660000000 1.0
C      1  0.5276740000000  0.5638600000000  0.4927130000000 1.0
C      1  0.4270280000000  0.4867920000000  0.4995020000000 1.0
C      1  0.4161420000000  0.5035410000000  0.5201990000000 1.0
C      1  0.5379100000000  0.4262170000000  0.5164870000000 1.0
C      1  0.5456310000000  0.5682020000000  0.5157340000000 1.0
C      1  0.5087280000000  0.4762470000000  0.5063930000000 1.0
C      1  0.5167310000000  0.5216800000000  0.5100950000000 1.0
C      1  0.4657450000000  0.4969980000000  0.4890570000000 1.0
C      1  0.4919090000000  0.5407590000000  0.4121140000000 1.0
C      1  0.4640030000000  0.4825160000000  0.4199920000000 1.0
C      1  0.5318430000000  0.4895500000000  0.4188960000000 1.0
C      1  0.4319250000000  0.5394060000000  0.4687520000000 1.0
C      1  0.5045070000000  0.4180080000000  0.4657580000000 1.0
C      1  0.5681580000000  0.5413810000000  0.4656930000000 1.0
C      1  0.4973230000000  0.5107810000000  0.5815030000000 1.0
C      1  0.4792220000000  0.4873090000000  0.5749720000000 1.0
C      1  0.5198820000000  0.4916920000000  0.5796860000000 1.0
C      1  0.5019170000000  0.5469540000000  0.5062750000000 1.0
C      1  0.4544860000000  0.4794760000000  0.5072310000000 1.0
C      1  0.5375340000000  0.4747220000000  0.5064100000000 1.0
C      1  0.4432380000000  0.4589420000000  0.5616450000000 1.0
C      1  0.5561030000000  0.4764540000000  0.5610850000000 1.0
C      1  0.4930810000000  0.5609370000000  0.5632570000000 1.0
C      1  0.4930280000000  0.4389610000000  0.5623900000000 1.0
C      1  0.5555170000000  0.5269660000000  0.5649840000000 1.0
C      1  0.4500620000000  0.5365120000000  0.5672350000000 1.0
C      1  0.4604230000000  0.5666390000000  0.5332380000000 1.0
C      1  0.4663210000000  0.4388260000000  0.5274890000000 1.0
C      1  0.5738590000000  0.5012870000000  0.5321860000000 1.0
C      1  0.5777460000000  0.4716220000000  0.4497690000000 1.0
C      1  0.4846110000000  0.5811640000000  0.4504890000000 1.0
C      1  0.4427980000000  0.4478180000000  0.4546360000000 1.0
C      1  0.5226490000000  0.5805790000000  0.5312500000000 1.0
C      1  0.4148710000000  0.4804350000000  0.5388010000000 1.0
C      1  0.5585310000000  0.4396940000000  0.5331360000000 1.0
C      1  0.5793740000000  0.5049640000000  0.4904670000000 1.0
C      1  0.4562390000000  0.5652480000000  0.4901180000000 1.0
C      1  0.4719260000000  0.4207480000000  0.4914170000000 1.0
C      1  0.4404600000000  0.4368730000000  0.5130480000000 1.0
C      1  0.5888420000000  0.4850950000000  0.5119780000000 1.0
C      1  0.4684400000000  0.5845190000000  0.5104990000000 1.0
C      1  0.5686330000000  0.4426640000000  0.4778310000000 1.0
C      1  0.5169880000000  0.5875550000000  0.4752540000000 1.0
C      1  0.4168600000000  0.4702050000000  0.4778180000000 1.0
C      1  0.4883490000000  0.5134020000000  0.4003480000000 1.0
C      1  0.4886830000000  0.4820270000000  0.4058110000000 1.0
C      1  0.5212950000000  0.5124540000000  0.4053490000000 1.0
C      1  0.5110430000000  0.4158970000000  0.5181910000000 1.0
C      1  0.5663530000000  0.5477510000000  0.5175240000000 1.0
C      1  0.4323200000000  0.5295150000000  0.5184550000000 1.0
END
