TITL C-2441168-9922-530 0.0634435406911372 125000 -19113.2804814023 0 0 144 (C1) n - 1
REM
REM in /home/bkarasulu/work/CARBON/AIRSS/Generating-Clusters/ReaxFF-fromJPCA2015/Units_Real/with-SteepDescent/Higher-Symm
REM
REM
REM
REM
REM
REM ./C.cell (1df0a924f5614ab8850e4351716899ee)
REM
REM compiler GCC version 9.2.1 20190827 (Red Hat 9.2.1-1)
REM options -cpp -mtune=generic -march=x86-64 -g -O0 -fpre-include=/usr/include/finclude/math-vector-fortran.h
REM seed -1465768625 1912884645 114729515 1129180596 -972950855 1996124574 -987776377 1121019022 -52646928 1929417473 -1092363533 -1280834368 -1766643699 1069509260 1923161071 -46019736 -1396754938 -833458033 1010677190 145898778 -115142273 1075203019 -1523707203 641278164 -1474002002 2015114191 -221303122 2128351743 -1702276268 -161038357 1024891777 1557748159 46055834
REM
CELL 1.54180   50.00000   50.00000   50.00000   90.00000   90.00000   90.00000
LATT -1
SFAC C  
C      1  0.4385170000000  0.5144370000000  0.5781390000000 1.0
C      1  0.5139470000000  0.5776630000000  0.4379620000000 1.0
C      1  0.5787910000000  0.4390340000000  0.5151000000000 1.0
C      1  0.5604970000000  0.4845450000000  0.5771700000000 1.0
C      1  0.4381100000000  0.4849050000000  0.4210120000000 1.0
C      1  0.5608060000000  0.5152950000000  0.4208710000000 1.0
C      1  0.4845870000000  0.4241050000000  0.4395230000000 1.0
C      1  0.5154510000000  0.4217230000000  0.5611390000000 1.0
C      1  0.4858530000000  0.5769830000000  0.5614840000000 1.0
C      1  0.4215890000000  0.5614860000000  0.5134180000000 1.0
C      1  0.5772920000000  0.5608160000000  0.4852830000000 1.0
C      1  0.4219360000000  0.4389740000000  0.4834830000000 1.0
C      1  0.4400440000000  0.5133190000000  0.4211720000000 1.0
C      1  0.5148440000000  0.5766140000000  0.5613800000000 1.0
C      1  0.5776740000000  0.4385360000000  0.4860190000000 1.0
C      1  0.5594770000000  0.4859470000000  0.4218150000000 1.0
C      1  0.4381040000000  0.4851980000000  0.5776940000000 1.0
C      1  0.5616560000000  0.5136580000000  0.5783090000000 1.0
C      1  0.4864700000000  0.4216160000000  0.5620270000000 1.0
C      1  0.5137870000000  0.4239490000000  0.4396480000000 1.0
C      1  0.4850300000000  0.5795230000000  0.4390410000000 1.0
C      1  0.4231120000000  0.5609060000000  0.4844020000000 1.0
C      1  0.5776140000000  0.5612340000000  0.5142620000000 1.0
C      1  0.4220690000000  0.4413160000000  0.5122950000000 1.0
C      1  0.5298600000000  0.4879810000000  0.4192180000000 1.0
C      1  0.4863260000000  0.4149990000000  0.5330040000000 1.0
C      1  0.4160190000000  0.5319790000000  0.4856730000000 1.0
C      1  0.4685410000000  0.5120560000000  0.4167840000000 1.0
C      1  0.5323170000000  0.5158120000000  0.5842750000000 1.0
C      1  0.4675050000000  0.4851910000000  0.5835410000000 1.0
C      1  0.5145450000000  0.5846720000000  0.5325230000000 1.0
C      1  0.4851340000000  0.5837890000000  0.4686670000000 1.0
C      1  0.5125270000000  0.4181510000000  0.4688960000000 1.0
C      1  0.5826250000000  0.4678990000000  0.4856480000000 1.0
C      1  0.4204310000000  0.4707060000000  0.5108450000000 1.0
C      1  0.5829930000000  0.5319700000000  0.5148800000000 1.0
C      1  0.5318020000000  0.4863620000000  0.5840230000000 1.0
C      1  0.4821930000000  0.4171680000000  0.4687630000000 1.0
C      1  0.4161110000000  0.5321190000000  0.5150610000000 1.0
C      1  0.4682070000000  0.5150890000000  0.5832510000000 1.0
C      1  0.5305950000000  0.5186020000000  0.4164200000000 1.0
C      1  0.4679460000000  0.4830690000000  0.4159900000000 1.0
C      1  0.5144390000000  0.5839000000000  0.4676550000000 1.0
C      1  0.4852460000000  0.5847210000000  0.5328040000000 1.0
C      1  0.5146590000000  0.4150980000000  0.5328510000000 1.0
C      1  0.5835060000000  0.4684770000000  0.5154040000000 1.0
C      1  0.4178450000000  0.4693290000000  0.4807680000000 1.0
C      1  0.5827150000000  0.5315070000000  0.4851540000000 1.0
C      1  0.5231060000000  0.4499120000000  0.5661590000000 1.0
C      1  0.4494910000000  0.5671240000000  0.5226970000000 1.0
C      1  0.5649510000000  0.5236690000000  0.4489080000000 1.0
C      1  0.4766440000000  0.5491710000000  0.5644310000000 1.0
C      1  0.5221050000000  0.5535580000000  0.4243970000000 1.0
C      1  0.4742630000000  0.4518770000000  0.4363790000000 1.0
C      1  0.5509100000000  0.4343020000000  0.5225940000000 1.0
C      1  0.4457320000000  0.4229300000000  0.4799040000000 1.0
C      1  0.5492240000000  0.5656300000000  0.4771140000000 1.0
C      1  0.4234360000000  0.4797200000000  0.4458830000000 1.0
C      1  0.5645680000000  0.4764510000000  0.5491760000000 1.0
C      1  0.4332290000000  0.5235030000000  0.5503920000000 1.0
C      1  0.5245540000000  0.4507540000000  0.4350400000000 1.0
C      1  0.4505210000000  0.5654170000000  0.4752630000000 1.0
C      1  0.5655340000000  0.5215150000000  0.5498280000000 1.0
C      1  0.4825840000000  0.5500380000000  0.4358320000000 1.0
C      1  0.5246170000000  0.5490300000000  0.5647400000000 1.0
C      1  0.4766560000000  0.4487380000000  0.5670890000000 1.0
C      1  0.5507130000000  0.4303280000000  0.4770210000000 1.0
C      1  0.4497710000000  0.4331700000000  0.5189120000000 1.0
C      1  0.5508800000000  0.5681830000000  0.5239460000000 1.0
C      1  0.4328720000000  0.4770370000000  0.5496910000000 1.0
C      1  0.5664550000000  0.4770430000000  0.4491200000000 1.0
C      1  0.4338140000000  0.5193470000000  0.4497480000000 1.0
C      1  0.5150320000000  0.4858980000000  0.3940960000000 1.0
C      1  0.4855050000000  0.3914680000000  0.5146060000000 1.0
C      1  0.3920820000000  0.5151720000000  0.4849060000000 1.0
C      1  0.4845980000000  0.5139670000000  0.3926670000000 1.0
C      1  0.5147950000000  0.5145050000000  0.6081960000000 1.0
C      1  0.4847100000000  0.4856380000000  0.6075210000000 1.0
C      1  0.5154670000000  0.6085310000000  0.5145370000000 1.0
C      1  0.4855620000000  0.6081080000000  0.4854870000000 1.0
C      1  0.5145400000000  0.3932230000000  0.4847680000000 1.0
C      1  0.6070080000000  0.4850430000000  0.4851920000000 1.0
C      1  0.3944970000000  0.4849000000000  0.5133440000000 1.0
C      1  0.6078140000000  0.5152080000000  0.5141300000000 1.0
C      1  0.5143540000000  0.4850370000000  0.6077260000000 1.0
C      1  0.4851310000000  0.3924260000000  0.4850680000000 1.0
C      1  0.3923330000000  0.5144380000000  0.5141900000000 1.0
C      1  0.4852400000000  0.5147190000000  0.6073690000000 1.0
C      1  0.5140260000000  0.5149420000000  0.3921350000000 1.0
C      1  0.4856260000000  0.4845530000000  0.3920210000000 1.0
C      1  0.5147870000000  0.6079230000000  0.4850140000000 1.0
C      1  0.4860360000000  0.6087500000000  0.5152560000000 1.0
C      1  0.5151150000000  0.3923030000000  0.5146270000000 1.0
C      1  0.6077730000000  0.4854050000000  0.5144620000000 1.0
C      1  0.3925340000000  0.4854780000000  0.4839780000000 1.0
C      1  0.6072890000000  0.5146020000000  0.4846840000000 1.0
C      1  0.5401170000000  0.5141890000000  0.4639810000000 1.0
C      1  0.5136600000000  0.4700220000000  0.5477770000000 1.0
C      1  0.4701210000000  0.5475270000000  0.5141220000000 1.0
C      1  0.4703690000000  0.4899560000000  0.4724400000000 1.0
C      1  0.5371410000000  0.4824980000000  0.5335540000000 1.0
C      1  0.4584420000000  0.5141780000000  0.5365820000000 1.0
C      1  0.4819860000000  0.5338260000000  0.5373630000000 1.0
C      1  0.5158730000000  0.5289930000000  0.4714100000000 1.0
C      1  0.4867430000000  0.4699580000000  0.4566100000000 1.0
C      1  0.5340680000000  0.4560580000000  0.5126970000000 1.0
C      1  0.4729030000000  0.4680020000000  0.4909760000000 1.0
C      1  0.5304330000000  0.5461390000000  0.4874920000000 1.0
C      1  0.5406080000000  0.5129140000000  0.5358410000000 1.0
C      1  0.5193370000000  0.4667300000000  0.4601930000000 1.0
C      1  0.4678940000000  0.5404930000000  0.4823050000000 1.0
C      1  0.4589010000000  0.4857970000000  0.5374520000000 1.0
C      1  0.5412000000000  0.4864470000000  0.4612290000000 1.0
C      1  0.4541740000000  0.5151090000000  0.4703570000000 1.0
C      1  0.4895490000000  0.5358520000000  0.4608010000000 1.0
C      1  0.5188600000000  0.5326790000000  0.5389360000000 1.0
C      1  0.4834480000000  0.4669330000000  0.5425570000000 1.0
C      1  0.5315040000000  0.4511800000000  0.4853270000000 1.0
C      1  0.4716330000000  0.4534150000000  0.5147100000000 1.0
C      1  0.5306620000000  0.5480220000000  0.5156730000000 1.0
C      1  0.5719110000000  0.4509250000000  0.4382560000000 1.0
C      1  0.4500240000000  0.4377360000000  0.5722620000000 1.0
C      1  0.4410540000000  0.5698180000000  0.4494000000000 1.0
C      1  0.4288040000000  0.5468950000000  0.4399670000000 1.0
C      1  0.5732270000000  0.5484670000000  0.5601050000000 1.0
C      1  0.4263300000000  0.4498600000000  0.5589470000000 1.0
C      1  0.5501640000000  0.5598990000000  0.5716330000000 1.0
C      1  0.4542900000000  0.5558000000000  0.4284330000000 1.0
C      1  0.5493260000000  0.4391610000000  0.4276930000000 1.0
C      1  0.5619480000000  0.4265590000000  0.4499290000000 1.0
C      1  0.4400170000000  0.4266820000000  0.5462860000000 1.0
C      1  0.5616640000000  0.5720520000000  0.5496760000000 1.0
C      1  0.5733640000000  0.4503030000000  0.5585460000000 1.0
C      1  0.4463870000000  0.4386360000000  0.4312130000000 1.0
C      1  0.4393800000000  0.5717460000000  0.5498470000000 1.0
C      1  0.4277200000000  0.5493110000000  0.5608090000000 1.0
C      1  0.5729630000000  0.5502280000000  0.4395340000000 1.0
C      1  0.4228410000000  0.4525210000000  0.4396630000000 1.0
C      1  0.5494760000000  0.5621680000000  0.4238560000000 1.0
C      1  0.4506330000000  0.5598880000000  0.5733030000000 1.0
C      1  0.5497260000000  0.4409190000000  0.5730030000000 1.0
C      1  0.5589850000000  0.4267660000000  0.5491950000000 1.0
C      1  0.4413660000000  0.4201860000000  0.4526810000000 1.0
C      1  0.5589500000000  0.5734480000000  0.4503910000000 1.0
END
