TITL C-2441169-1362-192 0.00274111057039435 125000 -5843.02537545892 0 0 42 (C1) n - 1
REM
REM in /home/bkarasulu/work/CARBON/AIRSS/Generating-Clusters/ReaxFF-fromJPCA2015/Units_Real/with-SteepDescent/Higher-Symm
REM
REM
REM
REM
REM
REM ./C.cell (1df0a924f5614ab8850e4351716899ee)
REM
REM compiler GCC version 9.2.1 20190827 (Red Hat 9.2.1-1)
REM options -cpp -mtune=generic -march=x86-64 -g -O0 -fpre-include=/usr/include/finclude/math-vector-fortran.h
REM seed 1507807785 -356269049 156017202 1331615714 1604044996 121364068 224850333 -1337234834 -1940006985 -117080269 1974439920 101247059 -1152402068 1919806327 1122389565 1296532575 -136393350 738004840 1126240841 341730479 1090861291 1498823184 271251351 799321624 -31647607 1972998384 657692206 861463573 1979586137 -1773925231 -1198596589 -1504924627 395075577
REM
CELL 1.54180   50.00000   50.00000   50.00000   90.00000   90.00000   90.00000
LATT -1
SFAC C  
C      1  0.5087960000000  0.5452240000000  0.5329370000000 1.0
C      1  0.4484700000000  0.4928610000000  0.5375540000000 1.0
C      1  0.5366340000000  0.4626550000000  0.5343910000000 1.0
C      1  0.5384670000000  0.4824260000000  0.5579960000000 1.0
C      1  0.4974530000000  0.5405540000000  0.5589830000000 1.0
C      1  0.4653080000000  0.4763130000000  0.5589990000000 1.0
C      1  0.4734990000000  0.4904750000000  0.4200800000000 1.0
C      1  0.5028600000000  0.4905570000000  0.4214430000000 1.0
C      1  0.5135870000000  0.5183280000000  0.4221840000000 1.0
C      1  0.5040550000000  0.5386860000000  0.4788610000000 1.0
C      1  0.4614920000000  0.4818270000000  0.4791840000000 1.0
C      1  0.5327240000000  0.4748740000000  0.4836480000000 1.0
C      1  0.5142280000000  0.4692680000000  0.4386600000000 1.0
C      1  0.5316950000000  0.5303120000000  0.4416070000000 1.0
C      1  0.4554060000000  0.5045950000000  0.4387470000000 1.0
C      1  0.5431790000000  0.5177840000000  0.4657140000000 1.0
C      1  0.4611780000000  0.5212830000000  0.4618790000000 1.0
C      1  0.4998250000000  0.4589740000000  0.4624440000000 1.0
C      1  0.5375780000000  0.4831840000000  0.4442690000000 1.0
C      1  0.5045320000000  0.5416610000000  0.4378800000000 1.0
C      1  0.4568500000000  0.4748090000000  0.4383670000000 1.0
C      1  0.4683250000000  0.5377860000000  0.5301800000000 1.0
C      1  0.4910380000000  0.4512300000000  0.5305620000000 1.0
C      1  0.5483490000000  0.5149770000000  0.5340020000000 1.0
C      1  0.5283070000000  0.5315130000000  0.4886740000000 1.0
C      1  0.4566690000000  0.5072400000000  0.4882080000000 1.0
C      1  0.5098730000000  0.4664760000000  0.4879940000000 1.0
C      1  0.4988890000000  0.5159000000000  0.5723720000000 1.0
C      1  0.4867620000000  0.4906080000000  0.5726070000000 1.0
C      1  0.5150830000000  0.4927820000000  0.5718590000000 1.0
C      1  0.5471030000000  0.4894460000000  0.4669220000000 1.0
C      1  0.4837800000000  0.5411450000000  0.4603640000000 1.0
C      1  0.4698500000000  0.4613870000000  0.4619060000000 1.0
C      1  0.4300700000000  0.4756410000000  0.5364880000000 1.0
C      1  0.5587230000000  0.4514460000000  0.5379380000000 1.0
C      1  0.5143670000000  0.5714510000000  0.5378760000000 1.0
C      1  0.5633780000000  0.5010680000000  0.5547350000000 1.0
C      1  0.4687080000000  0.5531360000000  0.5547810000000 1.0
C      1  0.4726780000000  0.4515490000000  0.5470260000000 1.0
C      1  0.4577930000000  0.5151430000000  0.5172820000000 1.0
C      1  0.5120900000000  0.4544650000000  0.5139880000000 1.0
C      1  0.5303480000000  0.5289630000000  0.5184080000000 1.0
END
