TITL C-2441163-1170-808 0.124831260724126 125000 -26753.617505458 0 0 195 (C1) n - 1
REM
REM in /home/bkarasulu/work/CARBON/AIRSS/Generating-Clusters/ReaxFF-fromJPCA2015/Units_Real/with-SteepDescent/Higher-Symm
REM
REM
REM
REM
REM
REM ./C.cell (1df0a924f5614ab8850e4351716899ee)
REM
REM compiler GCC version 9.2.1 20190827 (Red Hat 9.2.1-1)
REM options -cpp -mtune=generic -march=x86-64 -g -O0 -fpre-include=/usr/include/finclude/math-vector-fortran.h
REM seed -1306409891 -1497442765 -1799109203 1345777395 -1978892163 1765986949 260744308 1432312295 -1919547387 -340106801 -386827164 -205999715 1739308697 -514354636 225037590 -443816931 268299012 -2038980103 -93129856 -268106925 441959344 -497379306 306273078 -402253411 -557399436 1891630784 96839043 -1555667280 1051969411 24203692 1814157247 1431933411 -1963706787
REM
CELL 1.54180   50.00000   50.00000   50.00000   90.00000   90.00000   90.00000
LATT -1
SFAC C  
C      1  0.5747220000000  0.5563740000000  0.4866680000000 1.0
C      1  0.5696480000000  0.4630770000000  0.4494290000000 1.0
C      1  0.5742100000000  0.4825670000000  0.5626530000000 1.0
C      1  0.5006180000000  0.5576600000000  0.5943120000000 1.0
C      1  0.4987100000000  0.5555120000000  0.4006010000000 1.0
C      1  0.5017210000000  0.3877040000000  0.5029030000000 1.0
C      1  0.5652300000000  0.4141670000000  0.5324670000000 1.0
C      1  0.5645870000000  0.5698750000000  0.5574450000000 1.0
C      1  0.5641450000000  0.5105780000000  0.4090690000000 1.0
C      1  0.5332340000000  0.5325940000000  0.5027010000000 1.0
C      1  0.5250650000000  0.4990030000000  0.4728650000000 1.0
C      1  0.5318400000000  0.4801530000000  0.5180690000000 1.0
C      1  0.5479920000000  0.4632940000000  0.4701650000000 1.0
C      1  0.5509750000000  0.4960500000000  0.5380780000000 1.0
C      1  0.5551630000000  0.5347500000000  0.4802090000000 1.0
C      1  0.4585560000000  0.4010120000000  0.4723880000000 1.0
C      1  0.4567660000000  0.5262120000000  0.5972250000000 1.0
C      1  0.4595970000000  0.5761250000000  0.4301180000000 1.0
C      1  0.5754920000000  0.5272580000000  0.5792630000000 1.0
C      1  0.5790840000000  0.5558290000000  0.4350560000000 1.0
C      1  0.5760890000000  0.4180460000000  0.4849820000000 1.0
C      1  0.4739140000000  0.5175170000000  0.5453860000000 1.0
C      1  0.4728190000000  0.5292050000000  0.4649660000000 1.0
C      1  0.4708290000000  0.4416850000000  0.5018990000000 1.0
C      1  0.4961050000000  0.4579560000000  0.4261030000000 1.0
C      1  0.4847040000000  0.4545340000000  0.5781830000000 1.0
C      1  0.4867460000000  0.5761860000000  0.5149430000000 1.0
C      1  0.4025440000000  0.4998450000000  0.5284570000000 1.0
C      1  0.3974470000000  0.5192150000000  0.4884800000000 1.0
C      1  0.4030010000000  0.4745030000000  0.4897140000000 1.0
C      1  0.4373780000000  0.5313580000000  0.4179280000000 1.0
C      1  0.4354790000000  0.4134890000000  0.5157820000000 1.0
C      1  0.4360520000000  0.5577160000000  0.5657930000000 1.0
C      1  0.3925720000000  0.5242370000000  0.5168360000000 1.0
C      1  0.3938100000000  0.4956200000000  0.4720130000000 1.0
C      1  0.3952440000000  0.4743660000000  0.5158170000000 1.0
C      1  0.5206040000000  0.4677810000000  0.4161880000000 1.0
C      1  0.5284140000000  0.4287110000000  0.5680510000000 1.0
C      1  0.5296800000000  0.5966390000000  0.5295160000000 1.0
C      1  0.5037770000000  0.4125340000000  0.5688270000000 1.0
C      1  0.5042550000000  0.6057720000000  0.5393520000000 1.0
C      1  0.5162960000000  0.4847990000000  0.3932350000000 1.0
C      1  0.4890320000000  0.4404190000000  0.5236280000000 1.0
C      1  0.4899760000000  0.5658840000000  0.5399540000000 1.0
C      1  0.4896600000000  0.5091060000000  0.4263670000000 1.0
C      1  0.4229830000000  0.5683940000000  0.4528960000000 1.0
C      1  0.4236000000000  0.4202350000000  0.4600990000000 1.0
C      1  0.4205450000000  0.5088760000000  0.5874190000000 1.0
C      1  0.4551610000000  0.4645270000000  0.5361090000000 1.0
C      1  0.4545340000000  0.5475190000000  0.5102090000000 1.0
C      1  0.4527010000000  0.4928880000000  0.4574770000000 1.0
C      1  0.5264800000000  0.4573470000000  0.5702280000000 1.0
C      1  0.5354530000000  0.5796480000000  0.5055350000000 1.0
C      1  0.5420890000000  0.4552530000000  0.4292250000000 1.0
C      1  0.5247590000000  0.5756630000000  0.5672950000000 1.0
C      1  0.5249950000000  0.5232850000000  0.4032050000000 1.0
C      1  0.5247950000000  0.4039650000000  0.5328240000000 1.0
C      1  0.4382640000000  0.4547040000000  0.4202400000000 1.0
C      1  0.4404490000000  0.4519950000000  0.5835860000000 1.0
C      1  0.4397840000000  0.5944690000000  0.4991020000000 1.0
C      1  0.4113820000000  0.5557330000000  0.4751090000000 1.0
C      1  0.4110480000000  0.4434740000000  0.4505020000000 1.0
C      1  0.4080880000000  0.4883100000000  0.5716850000000 1.0
C      1  0.5894590000000  0.4451910000000  0.4899920000000 1.0
C      1  0.5946270000000  0.5226980000000  0.5577560000000 1.0
C      1  0.5976410000000  0.5384330000000  0.4507970000000 1.0
C      1  0.5916290000000  0.5249350000000  0.5168370000000 1.0
C      1  0.5914390000000  0.4937350000000  0.4712720000000 1.0
C      1  0.5974920000000  0.4780810000000  0.5268700000000 1.0
C      1  0.5831510000000  0.4355450000000  0.5392200000000 1.0
C      1  0.5788020000000  0.5655550000000  0.5339340000000 1.0
C      1  0.5862060000000  0.4983900000000  0.4229360000000 1.0
C      1  0.4573840000000  0.5586310000000  0.4835210000000 1.0
C      1  0.4453460000000  0.4669210000000  0.4643410000000 1.0
C      1  0.4452850000000  0.4866180000000  0.5508600000000 1.0
C      1  0.4855120000000  0.4656900000000  0.5359970000000 1.0
C      1  0.4868310000000  0.5377030000000  0.5075940000000 1.0
C      1  0.4776810000000  0.4914570000000  0.4447330000000 1.0
C      1  0.4991920000000  0.4199180000000  0.4738070000000 1.0
C      1  0.4995890000000  0.5167930000000  0.5819410000000 1.0
C      1  0.4980230000000  0.5613860000000  0.4457340000000 1.0
C      1  0.5537550000000  0.4111070000000  0.4342800000000 1.0
C      1  0.5514770000000  0.4877140000000  0.6047090000000 1.0
C      1  0.5524660000000  0.5984260000000  0.4591130000000 1.0
C      1  0.4777390000000  0.6043390000000  0.5244380000000 1.0
C      1  0.4782470000000  0.4696260000000  0.4005890000000 1.0
C      1  0.4798030000000  0.4264490000000  0.5722940000000 1.0
C      1  0.5504900000000  0.5281890000000  0.4511870000000 1.0
C      1  0.5386660000000  0.4428150000000  0.4859680000000 1.0
C      1  0.5370020000000  0.5174020000000  0.5523450000000 1.0
C      1  0.4006070000000  0.5517820000000  0.5251890000000 1.0
C      1  0.4009470000000  0.4959480000000  0.4432250000000 1.0
C      1  0.4003090000000  0.4518730000000  0.5329830000000 1.0
C      1  0.4587360000000  0.4036080000000  0.5307560000000 1.0
C      1  0.4589600000000  0.5758440000000  0.5671620000000 1.0
C      1  0.4582050000000  0.5221200000000  0.3994240000000 1.0
C      1  0.4307210000000  0.5057290000000  0.5348020000000 1.0
C      1  0.4223930000000  0.5294470000000  0.4786380000000 1.0
C      1  0.4300690000000  0.4674950000000  0.4886780000000 1.0
C      1  0.5662440000000  0.5775820000000  0.4472130000000 1.0
C      1  0.5667960000000  0.4148300000000  0.4589340000000 1.0
C      1  0.5706540000000  0.4997700000000  0.5871420000000 1.0
C      1  0.6178230000000  0.4927940000000  0.5148490000000 1.0
C      1  0.6109400000000  0.5276180000000  0.4944350000000 1.0
C      1  0.6171140000000  0.4995120000000  0.4879550000000 1.0
C      1  0.5273770000000  0.5210900000000  0.5823010000000 1.0
C      1  0.5242800000000  0.5657140000000  0.4355720000000 1.0
C      1  0.5263630000000  0.4160680000000  0.4758150000000 1.0
C      1  0.5153750000000  0.5203700000000  0.4848770000000 1.0
C      1  0.4957720000000  0.4664370000000  0.4769070000000 1.0
C      1  0.4946690000000  0.5187310000000  0.5268260000000 1.0
C      1  0.5448570000000  0.5878920000000  0.5525700000000 1.0
C      1  0.5413070000000  0.5007180000000  0.3932820000000 1.0
C      1  0.5446200000000  0.4122040000000  0.5508700000000 1.0
C      1  0.5263800000000  0.5012950000000  0.6080310000000 1.0
C      1  0.5272140000000  0.5943140000000  0.4431000000000 1.0
C      1  0.5272760000000  0.4045290000000  0.4457280000000 1.0
C      1  0.5582480000000  0.5508600000000  0.5781990000000 1.0
C      1  0.5583860000000  0.5363240000000  0.4247380000000 1.0
C      1  0.5585320000000  0.4055580000000  0.5059380000000 1.0
C      1  0.4210810000000  0.4316210000000  0.5331390000000 1.0
C      1  0.4220000000000  0.5625360000000  0.5415590000000 1.0
C      1  0.4222280000000  0.5073260000000  0.4257060000000 1.0
C      1  0.5159800000000  0.4320390000000  0.5258760000000 1.0
C      1  0.5130710000000  0.5541630000000  0.5478150000000 1.0
C      1  0.5160290000000  0.5152130000000  0.4294670000000 1.0
C      1  0.5311480000000  0.5363130000000  0.5326170000000 1.0
C      1  0.5341790000000  0.5057080000000  0.4479970000000 1.0
C      1  0.5336030000000  0.4509260000000  0.5133520000000 1.0
C      1  0.4639930000000  0.4448390000000  0.4070220000000 1.0
C      1  0.4574150000000  0.4498550000000  0.6078310000000 1.0
C      1  0.4650850000000  0.6070710000000  0.4959680000000 1.0
C      1  0.4989290000000  0.4719720000000  0.5604830000000 1.0
C      1  0.5024990000000  0.5612000000000  0.4963460000000 1.0
C      1  0.4943550000000  0.4702100000000  0.4511420000000 1.0
C      1  0.4587250000000  0.4918190000000  0.3990180000000 1.0
C      1  0.4588890000000  0.4183590000000  0.5549780000000 1.0
C      1  0.4585210000000  0.5897400000000  0.5420020000000 1.0
C      1  0.4357540000000  0.4840810000000  0.4143160000000 1.0
C      1  0.4402000000000  0.4388560000000  0.5545880000000 1.0
C      1  0.4406330000000  0.5767130000000  0.5240980000000 1.0
C      1  0.5270440000000  0.5538450000000  0.4085570000000 1.0
C      1  0.5315030000000  0.3943500000000  0.5000940000000 1.0
C      1  0.5309830000000  0.5514020000000  0.5905440000000 1.0
C      1  0.4050080000000  0.5695610000000  0.5014270000000 1.0
C      1  0.4042440000000  0.4680100000000  0.4427010000000 1.0
C      1  0.3988520000000  0.4691480000000  0.5560110000000 1.0
C      1  0.5689830000000  0.5081310000000  0.5169190000000 1.0
C      1  0.5655790000000  0.5049000000000  0.4884700000000 1.0
C      1  0.5431500000000  0.4855620000000  0.4876180000000 1.0
C      1  0.5994690000000  0.5464610000000  0.4774520000000 1.0
C      1  0.5904660000000  0.4646540000000  0.4694570000000 1.0
C      1  0.5976800000000  0.4948460000000  0.5502470000000 1.0
C      1  0.4348500000000  0.5344680000000  0.5816430000000 1.0
C      1  0.4373800000000  0.5581120000000  0.4304330000000 1.0
C      1  0.4351450000000  0.4105310000000  0.4866230000000 1.0
C      1  0.4867010000000  0.5165410000000  0.4859570000000 1.0
C      1  0.4869200000000  0.4878990000000  0.4932890000000 1.0
C      1  0.5005240000000  0.4900000000000  0.5192890000000 1.0
C      1  0.5028270000000  0.5951880000000  0.5663040000000 1.0
C      1  0.4952440000000  0.5070780000000  0.3967890000000 1.0
C      1  0.5028500000000  0.3931050000000  0.5479570000000 1.0
C      1  0.4802970000000  0.6042650000000  0.4711570000000 1.0
C      1  0.4837500000000  0.4292100000000  0.4232970000000 1.0
C      1  0.4834400000000  0.4662310000000  0.6040740000000 1.0
C      1  0.5769200000000  0.4542510000000  0.5583460000000 1.0
C      1  0.5645580000000  0.5702990000000  0.5092110000000 1.0
C      1  0.5740390000000  0.4757300000000  0.4264110000000 1.0
C      1  0.4844860000000  0.5559840000000  0.4713470000000 1.0
C      1  0.4853440000000  0.4421140000000  0.4774850000000 1.0
C      1  0.4868510000000  0.4993380000000  0.5641090000000 1.0
C      1  0.4846420000000  0.5344210000000  0.5969610000000 1.0
C      1  0.4843740000000  0.5672140000000  0.4225520000000 1.0
C      1  0.4865340000000  0.3962720000000  0.4799950000000 1.0
C      1  0.4832310000000  0.5333000000000  0.3895070000000 1.0
C      1  0.4843650000000  0.3896260000000  0.5262430000000 1.0
C      1  0.4845550000000  0.5780740000000  0.5814710000000 1.0
C      1  0.4511570000000  0.4168620000000  0.4481280000000 1.0
C      1  0.4455990000000  0.4991220000000  0.5998780000000 1.0
C      1  0.4612180000000  0.5933280000000  0.4527030000000 1.0
C      1  0.5334410000000  0.5998130000000  0.4838410000000 1.0
C      1  0.5377280000000  0.4303640000000  0.4161840000000 1.0
C      1  0.5344770000000  0.4626380000000  0.5970900000000 1.0
C      1  0.4499280000000  0.4596920000000  0.5074480000000 1.0
C      1  0.4508240000000  0.5234670000000  0.5277720000000 1.0
C      1  0.4461130000000  0.5188630000000  0.4669620000000 1.0
C      1  0.5908540000000  0.4513360000000  0.5172860000000 1.0
C      1  0.5963870000000  0.5433820000000  0.5382070000000 1.0
C      1  0.5958030000000  0.5102520000000  0.4465010000000 1.0
C      1  0.4512500000000  0.4463400000000  0.4452810000000 1.0
C      1  0.4475180000000  0.4795840000000  0.5781530000000 1.0
C      1  0.4410950000000  0.5819510000000  0.4712920000000 1.0
C      1  0.5111990000000  0.4762520000000  0.6107140000000 1.0
C      1  0.5103110000000  0.6030560000000  0.4666290000000 1.0
C      1  0.5109980000000  0.4180120000000  0.4246360000000 1.0
END
