TITL C-2441157-2117-937 0.100369856129475 125000 -22590.7535378382 0 0 170 (C1) n - 1
REM
REM in /home/bkarasulu/work/CARBON/AIRSS/Generating-Clusters/ReaxFF-fromJPCA2015/Units_Real/with-SteepDescent/Higher-Symm
REM
REM
REM
REM
REM
REM ./C.cell (1df0a924f5614ab8850e4351716899ee)
REM
REM compiler GCC version 9.2.1 20190827 (Red Hat 9.2.1-1)
REM options -cpp -mtune=generic -march=x86-64 -g -O0 -fpre-include=/usr/include/finclude/math-vector-fortran.h
REM seed 725559909 -1217606723 1249413613 -1478286406 2005663260 -1918043495 1262332132 -766247232 -196754427 -410705497 1729062628 -1716706230 -1759708290 -722475895 2061397348 1649398985 85812024 -680413366 975828784 -1994003725 290877770 1587652664 -1398791841 -908016890 1775122660 380498065 795377053 -958871676 -212231268 -552912746 -307243429 -584311771 -472367073
REM
CELL 1.54180   50.00000   50.00000   50.00000   90.00000   90.00000   90.00000
LATT -1
SFAC C  
C      1  0.5123760000000  0.4732960000000  0.4385040000000 1.0
C      1  0.5142600000000  0.5579850000000  0.4995800000000 1.0
C      1  0.5140630000000  0.4602630000000  0.5528760000000 1.0
C      1  0.4719970000000  0.4146470000000  0.4440090000000 1.0
C      1  0.4689040000000  0.5996160000000  0.4509130000000 1.0
C      1  0.4688820000000  0.4918180000000  0.6045640000000 1.0
C      1  0.4339610000000  0.5509260000000  0.5737560000000 1.0
C      1  0.4378020000000  0.4079150000000  0.5032860000000 1.0
C      1  0.4401140000000  0.5362520000000  0.4188970000000 1.0
C      1  0.4531740000000  0.4803950000000  0.4690770000000 1.0
C      1  0.4472240000000  0.5350680000000  0.4991570000000 1.0
C      1  0.4523300000000  0.4910570000000  0.5343040000000 1.0
C      1  0.5960210000000  0.4513370000000  0.4635430000000 1.0
C      1  0.5966690000000  0.5303700000000  0.4768530000000 1.0
C      1  0.5884470000000  0.5085960000000  0.5547680000000 1.0
C      1  0.5356730000000  0.4138250000000  0.4966090000000 1.0
C      1  0.5390730000000  0.5425270000000  0.4253750000000 1.0
C      1  0.5335230000000  0.5474360000000  0.5732240000000 1.0
C      1  0.4665220000000  0.5507120000000  0.5398630000000 1.0
C      1  0.4674040000000  0.4512140000000  0.5416370000000 1.0
C      1  0.4738100000000  0.5091680000000  0.4391770000000 1.0
C      1  0.5812410000000  0.4742850000000  0.5233550000000 1.0
C      1  0.5968820000000  0.4808260000000  0.4587560000000 1.0
C      1  0.5958460000000  0.5358760000000  0.5060410000000 1.0
C      1  0.4940820000000  0.5314620000000  0.5913850000000 1.0
C      1  0.4863030000000  0.4043550000000  0.4994800000000 1.0
C      1  0.4806220000000  0.5550440000000  0.4124940000000 1.0
C      1  0.5630660000000  0.5571090000000  0.4332680000000 1.0
C      1  0.5559680000000  0.5345370000000  0.5870370000000 1.0
C      1  0.5632020000000  0.4124290000000  0.4843970000000 1.0
C      1  0.4132470000000  0.5455140000000  0.5546830000000 1.0
C      1  0.4172590000000  0.4273140000000  0.5116070000000 1.0
C      1  0.4166690000000  0.5251880000000  0.4327950000000 1.0
C      1  0.5213700000000  0.4491020000000  0.4178620000000 1.0
C      1  0.5332800000000  0.5957970000000  0.4878520000000 1.0
C      1  0.5295280000000  0.4610870000000  0.5839190000000 1.0
C      1  0.5423360000000  0.5131540000000  0.6008880000000 1.0
C      1  0.5510740000000  0.4099280000000  0.4581780000000 1.0
C      1  0.5472370000000  0.5808550000000  0.4405980000000 1.0
C      1  0.4466100000000  0.5236280000000  0.5692060000000 1.0
C      1  0.4485080000000  0.4256330000000  0.4826370000000 1.0
C      1  0.4493800000000  0.5478430000000  0.4442230000000 1.0
C      1  0.4672520000000  0.4953320000000  0.3941530000000 1.0
C      1  0.4708280000000  0.5898920000000  0.5598280000000 1.0
C      1  0.4656820000000  0.4092110000000  0.5457180000000 1.0
C      1  0.5442400000000  0.5944940000000  0.5139820000000 1.0
C      1  0.5491030000000  0.4408300000000  0.5730040000000 1.0
C      1  0.5446860000000  0.4635560000000  0.4099220000000 1.0
C      1  0.5462490000000  0.4690790000000  0.4992610000000 1.0
C      1  0.5523330000000  0.5096680000000  0.4747760000000 1.0
C      1  0.5508190000000  0.5134790000000  0.5189480000000 1.0
C      1  0.4888400000000  0.5695210000000  0.4946390000000 1.0
C      1  0.4855740000000  0.4667300000000  0.5566210000000 1.0
C      1  0.4851120000000  0.4813980000000  0.4358490000000 1.0
C      1  0.4063790000000  0.4783730000000  0.5155250000000 1.0
C      1  0.4079930000000  0.5009110000000  0.4821550000000 1.0
C      1  0.4025620000000  0.5165130000000  0.5060550000000 1.0
C      1  0.4161980000000  0.4951100000000  0.4334740000000 1.0
C      1  0.4161770000000  0.5602880000000  0.5285850000000 1.0
C      1  0.4206560000000  0.4403740000000  0.5373780000000 1.0
C      1  0.4429410000000  0.4920150000000  0.5620320000000 1.0
C      1  0.4388190000000  0.4610180000000  0.4521520000000 1.0
C      1  0.4410870000000  0.5626570000000  0.4923960000000 1.0
C      1  0.5877960000000  0.5607730000000  0.5205380000000 1.0
C      1  0.5837840000000  0.4494850000000  0.5395350000000 1.0
C      1  0.5855880000000  0.4858530000000  0.4318840000000 1.0
C      1  0.4925490000000  0.4086530000000  0.5492860000000 1.0
C      1  0.4946970000000  0.5006830000000  0.3929770000000 1.0
C      1  0.4901530000000  0.5977610000000  0.5411060000000 1.0
C      1  0.4972820000000  0.6047500000000  0.4448170000000 1.0
C      1  0.4980880000000  0.4909800000000  0.6115880000000 1.0
C      1  0.4978970000000  0.4020190000000  0.4368460000000 1.0
C      1  0.4630620000000  0.5205980000000  0.4096760000000 1.0
C      1  0.4572680000000  0.5666970000000  0.5651240000000 1.0
C      1  0.4630660000000  0.4008740000000  0.5175820000000 1.0
C      1  0.4597390000000  0.6016790000000  0.4775070000000 1.0
C      1  0.4560480000000  0.4663030000000  0.5988680000000 1.0
C      1  0.4677360000000  0.4358390000000  0.4264560000000 1.0
C      1  0.4704420000000  0.5689450000000  0.4422910000000 1.0
C      1  0.4706530000000  0.5141430000000  0.5855470000000 1.0
C      1  0.4772700000000  0.4204790000000  0.4751470000000 1.0
C      1  0.5269270000000  0.5569960000000  0.5255130000000 1.0
C      1  0.5162570000000  0.4472670000000  0.5276200000000 1.0
C      1  0.5288090000000  0.4938170000000  0.4332050000000 1.0
C      1  0.5017590000000  0.4460980000000  0.4797720000000 1.0
C      1  0.4888850000000  0.5619200000000  0.4650900000000 1.0
C      1  0.5290430000000  0.5004470000000  0.5623340000000 1.0
C      1  0.5801560000000  0.4372710000000  0.4851010000000 1.0
C      1  0.5787390000000  0.5425640000000  0.4560370000000 1.0
C      1  0.5771640000000  0.5326860000000  0.5657300000000 1.0
C      1  0.4112150000000  0.4557570000000  0.4620520000000 1.0
C      1  0.4140150000000  0.5569990000000  0.4799610000000 1.0
C      1  0.4138710000000  0.4893870000000  0.5607860000000 1.0
C      1  0.5467750000000  0.4414180000000  0.4572160000000 1.0
C      1  0.5515900000000  0.5837600000000  0.4697150000000 1.0
C      1  0.5475490000000  0.4894050000000  0.5830800000000 1.0
C      1  0.4265960000000  0.5127820000000  0.5280500000000 1.0
C      1  0.4258610000000  0.4669600000000  0.4977570000000 1.0
C      1  0.4317630000000  0.5208290000000  0.4756250000000 1.0
C      1  0.6007280000000  0.5012170000000  0.4795070000000 1.0
C      1  0.5986110000000  0.5134210000000  0.5256360000000 1.0
C      1  0.6008620000000  0.4913240000000  0.5080210000000 1.0
C      1  0.5113070000000  0.5233360000000  0.4643890000000 1.0
C      1  0.5092460000000  0.5334380000000  0.5353720000000 1.0
C      1  0.4982590000000  0.4585410000000  0.5085530000000 1.0
C      1  0.5711850000000  0.4612450000000  0.4220680000000 1.0
C      1  0.5726190000000  0.5829000000000  0.5079880000000 1.0
C      1  0.5741290000000  0.4564930000000  0.5658740000000 1.0
C      1  0.5048290000000  0.4663680000000  0.5989290000000 1.0
C      1  0.5171700000000  0.4221940000000  0.4296110000000 1.0
C      1  0.5107840000000  0.5864070000000  0.4640170000000 1.0
C      1  0.5332960000000  0.5391860000000  0.4526210000000 1.0
C      1  0.5280580000000  0.5254580000000  0.5547020000000 1.0
C      1  0.5275150000000  0.4338710000000  0.4788010000000 1.0
C      1  0.5258250000000  0.4844090000000  0.5395200000000 1.0
C      1  0.5130570000000  0.4690540000000  0.4662030000000 1.0
C      1  0.5138550000000  0.5324980000000  0.4904350000000 1.0
C      1  0.4357680000000  0.4747160000000  0.4255410000000 1.0
C      1  0.4405760000000  0.5741560000000  0.5193370000000 1.0
C      1  0.4475680000000  0.4349920000000  0.5542580000000 1.0
C      1  0.4781610000000  0.4814520000000  0.4825130000000 1.0
C      1  0.4704610000000  0.5195700000000  0.4960540000000 1.0
C      1  0.4799320000000  0.4978180000000  0.5419120000000 1.0
C      1  0.4062910000000  0.4465440000000  0.4892790000000 1.0
C      1  0.4113100000000  0.5376600000000  0.4590460000000 1.0
C      1  0.4075300000000  0.5162610000000  0.5515350000000 1.0
C      1  0.5100440000000  0.5831910000000  0.5568310000000 1.0
C      1  0.5183050000000  0.4065440000000  0.5420090000000 1.0
C      1  0.5158260000000  0.5151920000000  0.4005820000000 1.0
C      1  0.5420620000000  0.4962950000000  0.4074670000000 1.0
C      1  0.5325170000000  0.5843170000000  0.5393430000000 1.0
C      1  0.5434880000000  0.4200100000000  0.5538270000000 1.0
C      1  0.5581440000000  0.4899230000000  0.5332080000000 1.0
C      1  0.5595930000000  0.4571770000000  0.4788090000000 1.0
C      1  0.5544640000000  0.5386120000000  0.4727240000000 1.0
C      1  0.5764170000000  0.4432410000000  0.4440360000000 1.0
C      1  0.5742320000000  0.5709270000000  0.4825810000000 1.0
C      1  0.5762610000000  0.4857090000000  0.5691310000000 1.0
C      1  0.4814270000000  0.4587460000000  0.4166700000000 1.0
C      1  0.4826640000000  0.5931020000000  0.5108010000000 1.0
C      1  0.4809860000000  0.4531040000000  0.5842240000000 1.0
C      1  0.5714080000000  0.5513890000000  0.5434500000000 1.0
C      1  0.5620520000000  0.4303970000000  0.5336650000000 1.0
C      1  0.5664170000000  0.5055910000000  0.4239110000000 1.0
C      1  0.4860090000000  0.5322520000000  0.5505080000000 1.0
C      1  0.4710450000000  0.4518260000000  0.5150710000000 1.0
C      1  0.4932370000000  0.5324150000000  0.4465800000000 1.0
C      1  0.5515970000000  0.5411240000000  0.5250250000000 1.0
C      1  0.5427910000000  0.4485690000000  0.5192840000000 1.0
C      1  0.5500410000000  0.5012270000000  0.4477670000000 1.0
C      1  0.4042730000000  0.5461870000000  0.5056790000000 1.0
C      1  0.4075990000000  0.4662910000000  0.5411490000000 1.0
C      1  0.4034510000000  0.4841240000000  0.4576940000000 1.0
C      1  0.5137270000000  0.5155900000000  0.6067090000000 1.0
C      1  0.5240600000000  0.4021900000000  0.4510850000000 1.0
C      1  0.5199950000000  0.5887240000000  0.4354550000000 1.0
C      1  0.5053300000000  0.5387620000000  0.4184550000000 1.0
C      1  0.5040670000000  0.5526310000000  0.5732280000000 1.0
C      1  0.5124250000000  0.4029860000000  0.5125210000000 1.0
C      1  0.4989910000000  0.5182380000000  0.5092300000000 1.0
C      1  0.5014260000000  0.4905050000000  0.5216120000000 1.0
C      1  0.5030930000000  0.4931960000000  0.4741990000000 1.0
C      1  0.4464780000000  0.5304850000000  0.5382680000000 1.0
C      1  0.4494600000000  0.4511620000000  0.4972550000000 1.0
C      1  0.4556290000000  0.5233890000000  0.4586420000000 1.0
C      1  0.4543330000000  0.5993670000000  0.5056620000000 1.0
C      1  0.4529630000000  0.4447800000000  0.5817170000000 1.0
C      1  0.4560830000000  0.4693960000000  0.4052600000000 1.0
C      1  0.4568240000000  0.4937300000000  0.4954140000000 1.0
C      1  0.5415380000000  0.4972380000000  0.4968270000000 1.0
END
