TITL C-2441163-1170-1310 0.136930676503026 125000 -24043.0885127236 0 0 185 (C1) n - 1
REM
REM in /home/bkarasulu/work/CARBON/AIRSS/Generating-Clusters/ReaxFF-fromJPCA2015/Units_Real/with-SteepDescent/Higher-Symm
REM
REM
REM
REM
REM
REM ./C.cell (1df0a924f5614ab8850e4351716899ee)
REM
REM compiler GCC version 9.2.1 20190827 (Red Hat 9.2.1-1)
REM options -cpp -mtune=generic -march=x86-64 -g -O0 -fpre-include=/usr/include/finclude/math-vector-fortran.h
REM seed 560370497 -1631279750 1525664300 -1908851356 -851215816 -2113881612 -2031036983 -1809981976 -1833386302 -963664387 -1217736764 -1463760167 2053452273 -861267534 -398362498 1041079949 -1447536779 -1486054501 494997800 1679223542 297795041 -1453925372 -2002492480 1122087519 -1062659295 -1759632188 458516506 1770984154 1849230621 -56992300 834962411 -1026492217 -167969276
REM
CELL 1.54180   50.00000   50.00000   50.00000   90.00000   90.00000   90.00000
LATT -1
SFAC C  
C      1  0.4251810000000  0.4574550000000  0.4416970000000 1.0
C      1  0.4667350000000  0.6017180000000  0.4650690000000 1.0
C      1  0.5032250000000  0.5332660000000  0.6056700000000 1.0
C      1  0.5603850000000  0.5745550000000  0.4439380000000 1.0
C      1  0.5458410000000  0.4602330000000  0.4567610000000 1.0
C      1  0.5612850000000  0.4177710000000  0.5294190000000 1.0
C      1  0.4637370000000  0.5882560000000  0.5349960000000 1.0
C      1  0.5396270000000  0.5761730000000  0.5717510000000 1.0
C      1  0.4655060000000  0.5767530000000  0.5634640000000 1.0
C      1  0.4464450000000  0.5976250000000  0.4839800000000 1.0
C      1  0.4172320000000  0.5314040000000  0.4455220000000 1.0
C      1  0.5603910000000  0.4757770000000  0.4117220000000 1.0
C      1  0.4905830000000  0.4520980000000  0.4495950000000 1.0
C      1  0.4561190000000  0.5445340000000  0.4178190000000 1.0
C      1  0.5170160000000  0.5578130000000  0.4561650000000 1.0
C      1  0.4227480000000  0.5705740000000  0.5254430000000 1.0
C      1  0.4574300000000  0.4490970000000  0.5170680000000 1.0
C      1  0.4336880000000  0.4523220000000  0.4697380000000 1.0
C      1  0.4722570000000  0.4428820000000  0.4095040000000 1.0
C      1  0.5591850000000  0.5221140000000  0.4767300000000 1.0
C      1  0.5143860000000  0.5919350000000  0.4883600000000 1.0
C      1  0.4166540000000  0.4734570000000  0.5316740000000 1.0
C      1  0.4321320000000  0.4973360000000  0.4168480000000 1.0
C      1  0.4715720000000  0.5204240000000  0.5625340000000 1.0
C      1  0.5643570000000  0.5366190000000  0.5204940000000 1.0
C      1  0.5076640000000  0.5370660000000  0.4053750000000 1.0
C      1  0.4382700000000  0.4782170000000  0.5771500000000 1.0
C      1  0.4507980000000  0.5654860000000  0.4372750000000 1.0
C      1  0.5822730000000  0.5351790000000  0.4605010000000 1.0
C      1  0.5116770000000  0.4127050000000  0.4913570000000 1.0
C      1  0.5399950000000  0.5486450000000  0.5276090000000 1.0
C      1  0.5065520000000  0.4546590000000  0.6005070000000 1.0
C      1  0.5694970000000  0.5786850000000  0.4726600000000 1.0
C      1  0.5837110000000  0.4999610000000  0.5521550000000 1.0
C      1  0.5745650000000  0.4268320000000  0.4746330000000 1.0
C      1  0.5272590000000  0.5209390000000  0.4194330000000 1.0
C      1  0.5889600000000  0.5450970000000  0.5052710000000 1.0
C      1  0.5658060000000  0.5467060000000  0.4345750000000 1.0
C      1  0.4959560000000  0.5131260000000  0.3896790000000 1.0
C      1  0.4585650000000  0.4933460000000  0.4734260000000 1.0
C      1  0.5057110000000  0.5520790000000  0.5855280000000 1.0
C      1  0.5548210000000  0.5248340000000  0.5875260000000 1.0
C      1  0.5032740000000  0.4187970000000  0.5812350000000 1.0
C      1  0.4793330000000  0.4293670000000  0.5243760000000 1.0
C      1  0.6139490000000  0.5094050000000  0.4844270000000 1.0
C      1  0.5134970000000  0.5864230000000  0.4451750000000 1.0
C      1  0.5266550000000  0.4280820000000  0.4315880000000 1.0
C      1  0.5063140000000  0.4390660000000  0.5306190000000 1.0
C      1  0.4934040000000  0.4306320000000  0.4271800000000 1.0
C      1  0.5348230000000  0.5371840000000  0.4418430000000 1.0
C      1  0.5441540000000  0.4758590000000  0.4850190000000 1.0
C      1  0.5341400000000  0.4176850000000  0.4586130000000 1.0
C      1  0.5659560000000  0.5271780000000  0.4097960000000 1.0
C      1  0.5426370000000  0.4789770000000  0.4344280000000 1.0
C      1  0.4598740000000  0.5319450000000  0.5183190000000 1.0
C      1  0.5858780000000  0.4526840000000  0.4406360000000 1.0
C      1  0.5062830000000  0.4875660000000  0.3984840000000 1.0
C      1  0.5803820000000  0.4881000000000  0.4588860000000 1.0
C      1  0.4964780000000  0.4459920000000  0.5765260000000 1.0
C      1  0.4798200000000  0.4731960000000  0.5471080000000 1.0
C      1  0.4309090000000  0.4128910000000  0.4765080000000 1.0
C      1  0.4801780000000  0.5090660000000  0.5137680000000 1.0
C      1  0.5369980000000  0.5831350000000  0.4286070000000 1.0
C      1  0.5003420000000  0.5426670000000  0.5016870000000 1.0
C      1  0.4858840000000  0.5861270000000  0.4848380000000 1.0
C      1  0.4740830000000  0.4976000000000  0.6148200000000 1.0
C      1  0.5841940000000  0.4338410000000  0.5223130000000 1.0
C      1  0.4121830000000  0.5311220000000  0.5478380000000 1.0
C      1  0.4189510000000  0.5099750000000  0.5124490000000 1.0
C      1  0.5303650000000  0.4263350000000  0.5704860000000 1.0
C      1  0.4276300000000  0.5507530000000  0.4821630000000 1.0
C      1  0.4528330000000  0.4885960000000  0.3971010000000 1.0
C      1  0.4461040000000  0.5789890000000  0.5096390000000 1.0
C      1  0.4766290000000  0.4170080000000  0.4629380000000 1.0
C      1  0.4859360000000  0.4920270000000  0.5877640000000 1.0
C      1  0.5710150000000  0.4303270000000  0.4312730000000 1.0
C      1  0.4620790000000  0.4840890000000  0.5267620000000 1.0
C      1  0.4711480000000  0.5159240000000  0.4608720000000 1.0
C      1  0.5565200000000  0.4721600000000  0.5807520000000 1.0
C      1  0.4587230000000  0.4291600000000  0.5634130000000 1.0
C      1  0.4940530000000  0.5524910000000  0.5258820000000 1.0
C      1  0.4260760000000  0.4081040000000  0.5261600000000 1.0
C      1  0.4014720000000  0.4575030000000  0.4931430000000 1.0
C      1  0.4312200000000  0.4956620000000  0.4863760000000 1.0
C      1  0.5274610000000  0.4828830000000  0.5300350000000 1.0
C      1  0.4270080000000  0.5570360000000  0.4540980000000 1.0
C      1  0.5848060000000  0.4425980000000  0.4933220000000 1.0
C      1  0.5533420000000  0.5832610000000  0.4970850000000 1.0
C      1  0.6060360000000  0.4867610000000  0.4973330000000 1.0
C      1  0.5087950000000  0.6088790000000  0.5112150000000 1.0
C      1  0.4241590000000  0.5570810000000  0.5524320000000 1.0
C      1  0.5898570000000  0.5431080000000  0.5523690000000 1.0
C      1  0.4139870000000  0.4798230000000  0.5605480000000 1.0
C      1  0.4972240000000  0.3935240000000  0.5412520000000 1.0
C      1  0.4736460000000  0.4713410000000  0.4841980000000 1.0
C      1  0.3971900000000  0.5297230000000  0.5062180000000 1.0
C      1  0.5145490000000  0.6062750000000  0.5499370000000 1.0
C      1  0.4088000000000  0.5567610000000  0.5038160000000 1.0
C      1  0.4116390000000  0.5099200000000  0.5677400000000 1.0
C      1  0.4875430000000  0.4028030000000  0.4852230000000 1.0
C      1  0.4900080000000  0.5467240000000  0.4555300000000 1.0
C      1  0.4738720000000  0.5425900000000  0.5417890000000 1.0
C      1  0.5853280000000  0.4791200000000  0.4309600000000 1.0
C      1  0.5309950000000  0.5690690000000  0.4859110000000 1.0
C      1  0.5774330000000  0.4774670000000  0.5330890000000 1.0
C      1  0.5242910000000  0.5062740000000  0.5452480000000 1.0
C      1  0.5302090000000  0.4714390000000  0.5933600000000 1.0
C      1  0.4904660000000  0.5189270000000  0.4870180000000 1.0
C      1  0.5164550000000  0.4893030000000  0.4268380000000 1.0
C      1  0.5285520000000  0.5347340000000  0.5491550000000 1.0
C      1  0.5354870000000  0.5201150000000  0.4645570000000 1.0
C      1  0.4807900000000  0.4711730000000  0.3993710000000 1.0
C      1  0.4242360000000  0.4722220000000  0.5030980000000 1.0
C      1  0.6018170000000  0.5208140000000  0.5409110000000 1.0
C      1  0.4947080000000  0.5875620000000  0.4229990000000 1.0
C      1  0.6076810000000  0.5234450000000  0.5109570000000 1.0
C      1  0.5993270000000  0.5100960000000  0.4583850000000 1.0
C      1  0.4749420000000  0.5607050000000  0.4747390000000 1.0
C      1  0.5161530000000  0.5702790000000  0.4073580000000 1.0
C      1  0.4334540000000  0.5264240000000  0.4225180000000 1.0
C      1  0.4329120000000  0.4358360000000  0.5268540000000 1.0
C      1  0.4621470000000  0.4592010000000  0.5662980000000 1.0
C      1  0.4548870000000  0.5495350000000  0.4932280000000 1.0
C      1  0.4106890000000  0.4356530000000  0.4749020000000 1.0
C      1  0.5318720000000  0.6028930000000  0.5298940000000 1.0
C      1  0.4489340000000  0.4547500000000  0.4224380000000 1.0
C      1  0.5885270000000  0.5585710000000  0.4796490000000 1.0
C      1  0.5426080000000  0.4519320000000  0.5017530000000 1.0
C      1  0.4172110000000  0.4852720000000  0.4390400000000 1.0
C      1  0.5551530000000  0.5101310000000  0.5220980000000 1.0
C      1  0.3907950000000  0.5099220000000  0.4850910000000 1.0
C      1  0.4417000000000  0.4030250000000  0.5019390000000 1.0
C      1  0.3867540000000  0.4839390000000  0.4978990000000 1.0
C      1  0.5187060000000  0.4404720000000  0.4896650000000 1.0
C      1  0.4778740000000  0.4850610000000  0.4264850000000 1.0
C      1  0.5442430000000  0.4014710000000  0.5115250000000 1.0
C      1  0.5154470000000  0.4955560000000  0.5878120000000 1.0
C      1  0.5565450000000  0.4253490000000  0.5584230000000 1.0
C      1  0.4657570000000  0.4675660000000  0.4440710000000 1.0
C      1  0.5887880000000  0.4527250000000  0.5439980000000 1.0
C      1  0.4460730000000  0.5577570000000  0.5718320000000 1.0
C      1  0.4819670000000  0.4104740000000  0.5621900000000 1.0
C      1  0.4674120000000  0.5127530000000  0.3943800000000 1.0
C      1  0.5624010000000  0.5741910000000  0.5536240000000 1.0
C      1  0.4689130000000  0.5879390000000  0.4379480000000 1.0
C      1  0.5658540000000  0.4999680000000  0.5758820000000 1.0
C      1  0.4551640000000  0.5310240000000  0.5868410000000 1.0
C      1  0.5709370000000  0.5497740000000  0.5684150000000 1.0
C      1  0.5476790000000  0.4427350000000  0.4181100000000 1.0
C      1  0.4558270000000  0.4514010000000  0.4875660000000 1.0
C      1  0.5147480000000  0.5913170000000  0.5727720000000 1.0
C      1  0.4845800000000  0.5381050000000  0.4247810000000 1.0
C      1  0.5887240000000  0.4718680000000  0.4835280000000 1.0
C      1  0.4703270000000  0.4066580000000  0.5081710000000 1.0
C      1  0.5579960000000  0.5010700000000  0.4959290000000 1.0
C      1  0.4772470000000  0.5116530000000  0.4331410000000 1.0
C      1  0.5492660000000  0.5052070000000  0.4046420000000 1.0
C      1  0.5701770000000  0.4498080000000  0.5667030000000 1.0
C      1  0.4827370000000  0.4707630000000  0.6068740000000 1.0
C      1  0.4347060000000  0.5060020000000  0.5855580000000 1.0
C      1  0.5148090000000  0.4830360000000  0.4772130000000 1.0
C      1  0.5033430000000  0.4687730000000  0.5252680000000 1.0
C      1  0.5144560000000  0.5090290000000  0.4784710000000 1.0
C      1  0.5347860000000  0.4000160000000  0.4827550000000 1.0
C      1  0.4997350000000  0.4656730000000  0.4949900000000 1.0
C      1  0.3953230000000  0.4909970000000  0.5250850000000 1.0
C      1  0.5266470000000  0.5489310000000  0.5041490000000 1.0
C      1  0.5311710000000  0.5491210000000  0.5743750000000 1.0
C      1  0.4528900000000  0.5030050000000  0.5475070000000 1.0
C      1  0.4366470000000  0.5203290000000  0.5310840000000 1.0
C      1  0.4328270000000  0.4219650000000  0.5519680000000 1.0
C      1  0.4724090000000  0.4119460000000  0.4363040000000 1.0
C      1  0.4754030000000  0.5260170000000  0.6097510000000 1.0
C      1  0.4099920000000  0.5059410000000  0.4612520000000 1.0
C      1  0.5633390000000  0.4111330000000  0.4549650000000 1.0
C      1  0.4822040000000  0.5986050000000  0.5176300000000 1.0
C      1  0.4912630000000  0.5747280000000  0.5766430000000 1.0
C      1  0.5551350000000  0.5857270000000  0.5265270000000 1.0
C      1  0.4993980000000  0.5111690000000  0.5341460000000 1.0
C      1  0.5169840000000  0.4476860000000  0.5565680000000 1.0
C      1  0.5500920000000  0.4679460000000  0.5244990000000 1.0
C      1  0.4493150000000  0.4144380000000  0.4544790000000 1.0
C      1  0.5225100000000  0.4006240000000  0.5296700000000 1.0
C      1  0.5283390000000  0.5183450000000  0.5990090000000 1.0
C      1  0.5062850000000  0.4757890000000  0.4507020000000 1.0
END
