TITL C-2441165-58-1459 0.0385593550349443 125000 -17859.6279170618 0 0 125 (C1) n - 1
REM
REM in /home/bkarasulu/work/CARBON/AIRSS/Generating-Clusters/ReaxFF-fromJPCA2015/Units_Real/with-SteepDescent/Higher-Symm
REM
REM
REM
REM
REM
REM ./C.cell (1df0a924f5614ab8850e4351716899ee)
REM
REM compiler GCC version 9.2.1 20190827 (Red Hat 9.2.1-1)
REM options -cpp -mtune=generic -march=x86-64 -g -O0 -fpre-include=/usr/include/finclude/math-vector-fortran.h
REM seed 2015446372 -1540495344 -840600107 960291425 401367019 -336716457 1738222335 -2102810793 947634158 -581990580 -1146612610 -977049402 693467956 1895064666 -1199511926 2011339936 -518587023 798688635 1943787778 -786347881 -1905161728 423790622 -525986825 873204114 1737285945 1378559062 -1838917867 1606518994 373030830 1923509305 -1466559640 2133112680 -490771033
REM
CELL 1.54180   50.00000   50.00000   50.00000   90.00000   90.00000   90.00000
LATT -1
SFAC C  
C      1  0.5870470000000  0.4994580000000  0.5140650000000 1.0
C      1  0.5806280000000  0.5270900000000  0.5097000000000 1.0
C      1  0.5820320000000  0.4927870000000  0.4856300000000 1.0
C      1  0.5394380000000  0.4244510000000  0.5186980000000 1.0
C      1  0.5347950000000  0.5510950000000  0.5581700000000 1.0
C      1  0.5349080000000  0.5224270000000  0.4270790000000 1.0
C      1  0.4883250000000  0.4238630000000  0.4639700000000 1.0
C      1  0.5025440000000  0.5043580000000  0.5760810000000 1.0
C      1  0.4996210000000  0.5619020000000  0.4577580000000 1.0
C      1  0.4954320000000  0.4341630000000  0.4380770000000 1.0
C      1  0.4995480000000  0.4793620000000  0.5907260000000 1.0
C      1  0.4936090000000  0.5865540000000  0.4731010000000 1.0
C      1  0.4601420000000  0.4243890000000  0.4719940000000 1.0
C      1  0.4536460000000  0.4893520000000  0.5759770000000 1.0
C      1  0.4553250000000  0.5743830000000  0.4725220000000 1.0
C      1  0.4797930000000  0.5215740000000  0.5303570000000 1.0
C      1  0.4817340000000  0.5125070000000  0.4647170000000 1.0
C      1  0.4793950000000  0.4611100000000  0.4979410000000 1.0
C      1  0.4884910000000  0.5294880000000  0.5785570000000 1.0
C      1  0.4878510000000  0.5517960000000  0.4333630000000 1.0
C      1  0.5075380000000  0.4152090000000  0.4844510000000 1.0
C      1  0.5813440000000  0.4360770000000  0.4791360000000 1.0
C      1  0.5731040000000  0.5120610000000  0.5612260000000 1.0
C      1  0.5746080000000  0.5476590000000  0.4569970000000 1.0
C      1  0.5467890000000  0.4978280000000  0.4462010000000 1.0
C      1  0.5364070000000  0.4535650000000  0.5313840000000 1.0
C      1  0.5352230000000  0.5495900000000  0.5237340000000 1.0
C      1  0.4277280000000  0.5097460000000  0.4497120000000 1.0
C      1  0.4249230000000  0.4528950000000  0.5210870000000 1.0
C      1  0.4296160000000  0.5416330000000  0.5304650000000 1.0
C      1  0.4227970000000  0.5273220000000  0.5068700000000 1.0
C      1  0.4193680000000  0.4948640000000  0.4733390000000 1.0
C      1  0.4160550000000  0.4813140000000  0.5206140000000 1.0
C      1  0.4590110000000  0.5441300000000  0.4256360000000 1.0
C      1  0.4486240000000  0.4135270000000  0.4969500000000 1.0
C      1  0.4594700000000  0.5395600000000  0.5742300000000 1.0
C      1  0.5476430000000  0.4688460000000  0.4867800000000 1.0
C      1  0.5452040000000  0.4983520000000  0.5290330000000 1.0
C      1  0.5473620000000  0.5283130000000  0.4852200000000 1.0
C      1  0.5223540000000  0.4591200000000  0.4778510000000 1.0
C      1  0.5129520000000  0.4978080000000  0.5479330000000 1.0
C      1  0.5151430000000  0.5406720000000  0.4738870000000 1.0
C      1  0.5139230000000  0.4723950000000  0.4571990000000 1.0
C      1  0.4904910000000  0.4804240000000  0.5405880000000 1.0
C      1  0.4933600000000  0.5420840000000  0.4942110000000 1.0
C      1  0.4373530000000  0.4910410000000  0.5377770000000 1.0
C      1  0.4411910000000  0.5341100000000  0.4876390000000 1.0
C      1  0.4412050000000  0.4750670000000  0.4791460000000 1.0
C      1  0.4366630000000  0.5372420000000  0.4428560000000 1.0
C      1  0.4286200000000  0.4350690000000  0.4973460000000 1.0
C      1  0.4369440000000  0.5321910000000  0.5575810000000 1.0
C      1  0.4689370000000  0.5253370000000  0.4879440000000 1.0
C      1  0.4628840000000  0.4841490000000  0.4960400000000 1.0
C      1  0.4661750000000  0.4941700000000  0.5264950000000 1.0
C      1  0.4962360000000  0.4684050000000  0.4037030000000 1.0
C      1  0.4986480000000  0.4363190000000  0.5679380000000 1.0
C      1  0.4941080000000  0.5982530000000  0.5255240000000 1.0
C      1  0.5011980000000  0.4188510000000  0.5112480000000 1.0
C      1  0.5078640000000  0.5502400000000  0.5738540000000 1.0
C      1  0.5065430000000  0.5346030000000  0.4193590000000 1.0
C      1  0.5538650000000  0.5682070000000  0.4540410000000 1.0
C      1  0.5544080000000  0.4279790000000  0.4683600000000 1.0
C      1  0.5545930000000  0.5059680000000  0.5806260000000 1.0
C      1  0.5749350000000  0.4655920000000  0.4758920000000 1.0
C      1  0.5723380000000  0.4924030000000  0.5393730000000 1.0
C      1  0.5728880000000  0.5433430000000  0.4864730000000 1.0
C      1  0.5595570000000  0.5058300000000  0.4705400000000 1.0
C      1  0.5437980000000  0.4743920000000  0.5136440000000 1.0
C      1  0.5494840000000  0.5248510000000  0.5144570000000 1.0
C      1  0.4555740000000  0.4646220000000  0.5679610000000 1.0
C      1  0.4549150000000  0.5782320000000  0.4993240000000 1.0
C      1  0.4541170000000  0.4627030000000  0.4392540000000 1.0
C      1  0.5548540000000  0.5318590000000  0.5696300000000 1.0
C      1  0.5544190000000  0.5450230000000  0.4361800000000 1.0
C      1  0.5354340000000  0.4188230000000  0.4898900000000 1.0
C      1  0.5249760000000  0.4667270000000  0.5918750000000 1.0
C      1  0.5202400000000  0.5946400000000  0.4839770000000 1.0
C      1  0.5230980000000  0.4364850000000  0.4278180000000 1.0
C      1  0.4610650000000  0.4281320000000  0.5381030000000 1.0
C      1  0.4648200000000  0.5730780000000  0.5408730000000 1.0
C      1  0.4597730000000  0.4976480000000  0.4179120000000 1.0
C      1  0.4926630000000  0.5746470000000  0.5732040000000 1.0
C      1  0.4909310000000  0.5219270000000  0.3986830000000 1.0
C      1  0.4898850000000  0.4000150000000  0.5290570000000 1.0
C      1  0.5221810000000  0.4551730000000  0.4052100000000 1.0
C      1  0.5234450000000  0.4398870000000  0.5842090000000 1.0
C      1  0.5194610000000  0.6027020000000  0.5119470000000 1.0
C      1  0.4361780000000  0.5546160000000  0.4668160000000 1.0
C      1  0.4387480000000  0.4457830000000  0.4709810000000 1.0
C      1  0.4326650000000  0.5037690000000  0.5641680000000 1.0
C      1  0.5061880000000  0.4846140000000  0.4382600000000 1.0
C      1  0.5033570000000  0.4550040000000  0.5402970000000 1.0
C      1  0.5060230000000  0.5533600000000  0.5165780000000 1.0
C      1  0.5094770000000  0.5119490000000  0.4728050000000 1.0
C      1  0.5053740000000  0.4719620000000  0.4968200000000 1.0
C      1  0.5060670000000  0.5134240000000  0.5237750000000 1.0
C      1  0.4808900000000  0.4990630000000  0.4394240000000 1.0
C      1  0.4854550000000  0.4413800000000  0.5192630000000 1.0
C      1  0.4822600000000  0.5494910000000  0.5326930000000 1.0
C      1  0.4805850000000  0.4593610000000  0.5811990000000 1.0
C      1  0.4808050000000  0.5903710000000  0.5000950000000 1.0
C      1  0.4777140000000  0.4542560000000  0.4254840000000 1.0
C      1  0.4620300000000  0.5240080000000  0.4052070000000 1.0
C      1  0.4613070000000  0.4042520000000  0.5221990000000 1.0
C      1  0.4641730000000  0.5676460000000  0.5700640000000 1.0
C      1  0.5447480000000  0.4331080000000  0.5659520000000 1.0
C      1  0.5427540000000  0.5914850000000  0.5264720000000 1.0
C      1  0.5437460000000  0.4756960000000  0.4076580000000 1.0
C      1  0.5537640000000  0.4592290000000  0.5564130000000 1.0
C      1  0.5516620000000  0.5705670000000  0.5080440000000 1.0
C      1  0.5534390000000  0.4715190000000  0.4351230000000 1.0
C      1  0.5059980000000  0.5901690000000  0.5520610000000 1.0
C      1  0.5049590000000  0.4960300000000  0.3953470000000 1.0
C      1  0.5043300000000  0.4107740000000  0.5520310000000 1.0
C      1  0.5334360000000  0.5813610000000  0.5519690000000 1.0
C      1  0.5325020000000  0.5025230000000  0.4037210000000 1.0
C      1  0.5323980000000  0.4148050000000  0.5458200000000 1.0
C      1  0.5440770000000  0.5783970000000  0.4804840000000 1.0
C      1  0.5463070000000  0.4436240000000  0.4437840000000 1.0
C      1  0.5463530000000  0.4783520000000  0.5773880000000 1.0
C      1  0.4379290000000  0.4862000000000  0.4342000000000 1.0
C      1  0.4412780000000  0.4472970000000  0.5442040000000 1.0
C      1  0.4420290000000  0.5667530000000  0.5242970000000 1.0
C      1  0.4115490000000  0.5022950000000  0.5006190000000 1.0
C      1  0.5111540000000  0.5000130000000  0.4987870000000 1.0
END
