TITL C-2441162-9305-878 0.0567285309004095 125000 -23054.459770634 0 0 162 (C1) n - 1
REM
REM in /home/bkarasulu/work/CARBON/AIRSS/Generating-Clusters/ReaxFF-fromJPCA2015/Units_Real/with-SteepDescent/Higher-Symm
REM
REM
REM
REM
REM
REM ./C.cell (1df0a924f5614ab8850e4351716899ee)
REM
REM compiler GCC version 9.2.1 20190827 (Red Hat 9.2.1-1)
REM options -cpp -mtune=generic -march=x86-64 -g -O0 -fpre-include=/usr/include/finclude/math-vector-fortran.h
REM seed 430438287 -366014752 1793825571 -183584821 1351080370 667509614 -772158656 -1375049301 1747595964 752077093 -715125300 -538035843 1822003551 -871348985 -245221169 1941871865 960466560 -1329187055 -850395062 551358462 1221115373 223122682 2018234426 597116427 783701193 -1249746362 -1867615010 1398687279 995797073 2088686629 1985684528 888652730 -1159370424
REM
CELL 1.54180   50.00000   50.00000   50.00000   90.00000   90.00000   90.00000
LATT -1
SFAC C  
C      1  0.4490980000000  0.5750730000000  0.4498820000000 1.0
C      1  0.5422220000000  0.4621500000000  0.4988380000000 1.0
C      1  0.4877350000000  0.5783700000000  0.5787320000000 1.0
C      1  0.5241540000000  0.5286850000000  0.5129700000000 1.0
C      1  0.5234560000000  0.5657570000000  0.5286230000000 1.0
C      1  0.5864730000000  0.5502240000000  0.5072240000000 1.0
C      1  0.4555850000000  0.5860560000000  0.5084690000000 1.0
C      1  0.4847590000000  0.4951270000000  0.3973340000000 1.0
C      1  0.5004440000000  0.4214060000000  0.5685620000000 1.0
C      1  0.4802720000000  0.3968550000000  0.4814970000000 1.0
C      1  0.4199470000000  0.4752040000000  0.4362500000000 1.0
C      1  0.5716970000000  0.4310360000000  0.5394780000000 1.0
C      1  0.4098300000000  0.4594730000000  0.4573580000000 1.0
C      1  0.4275640000000  0.4682740000000  0.5680650000000 1.0
C      1  0.5009320000000  0.4662380000000  0.5255830000000 1.0
C      1  0.5164140000000  0.4506320000000  0.4875840000000 1.0
C      1  0.5997370000000  0.4691470000000  0.5369780000000 1.0
C      1  0.4410020000000  0.4918540000000  0.5143570000000 1.0
C      1  0.5510980000000  0.4885160000000  0.5026630000000 1.0
C      1  0.5582170000000  0.5643290000000  0.4716120000000 1.0
C      1  0.5587500000000  0.4359020000000  0.4410070000000 1.0
C      1  0.4114280000000  0.5131760000000  0.5680150000000 1.0
C      1  0.5257860000000  0.4310010000000  0.5568240000000 1.0
C      1  0.4145110000000  0.5359170000000  0.4470990000000 1.0
C      1  0.5445220000000  0.4570150000000  0.4241590000000 1.0
C      1  0.5280900000000  0.5657960000000  0.5579810000000 1.0
C      1  0.5974550000000  0.4826170000000  0.4842370000000 1.0
C      1  0.5430360000000  0.4755820000000  0.5492600000000 1.0
C      1  0.4793100000000  0.6023850000000  0.5046870000000 1.0
C      1  0.5346400000000  0.4681430000000  0.4495430000000 1.0
C      1  0.5293100000000  0.5897800000000  0.5112310000000 1.0
C      1  0.5607020000000  0.4177580000000  0.5023360000000 1.0
C      1  0.4828440000000  0.5015140000000  0.5072610000000 1.0
C      1  0.5176470000000  0.4084000000000  0.4500380000000 1.0
C      1  0.5287350000000  0.5010400000000  0.5487290000000 1.0
C      1  0.5642080000000  0.4918080000000  0.4178780000000 1.0
C      1  0.5723690000000  0.4550300000000  0.4580040000000 1.0
C      1  0.5974290000000  0.4537920000000  0.5127210000000 1.0
C      1  0.4636000000000  0.4549140000000  0.4880680000000 1.0
C      1  0.5524120000000  0.4169530000000  0.5575490000000 1.0
C      1  0.4417120000000  0.4440030000000  0.5611180000000 1.0
C      1  0.4185010000000  0.5674510000000  0.4840480000000 1.0
C      1  0.5374580000000  0.5798620000000  0.4601030000000 1.0
C      1  0.5571770000000  0.4917490000000  0.5882790000000 1.0
C      1  0.5201860000000  0.5290530000000  0.4834070000000 1.0
C      1  0.4051820000000  0.5010760000000  0.4868040000000 1.0
C      1  0.5101830000000  0.5019410000000  0.4794200000000 1.0
C      1  0.4982930000000  0.4301360000000  0.4409570000000 1.0
C      1  0.4936640000000  0.4467780000000  0.5812640000000 1.0
C      1  0.5118830000000  0.4848100000000  0.3986170000000 1.0
C      1  0.4616200000000  0.4793090000000  0.4050180000000 1.0
C      1  0.4654220000000  0.5387880000000  0.5140330000000 1.0
C      1  0.4856540000000  0.5567890000000  0.5253730000000 1.0
C      1  0.5122000000000  0.5875090000000  0.5691140000000 1.0
C      1  0.5089440000000  0.5091260000000  0.6039670000000 1.0
C      1  0.5486590000000  0.5154510000000  0.4476000000000 1.0
C      1  0.4431250000000  0.4366050000000  0.4967300000000 1.0
C      1  0.5059160000000  0.4895310000000  0.5052250000000 1.0
C      1  0.4009880000000  0.4608910000000  0.5113330000000 1.0
C      1  0.5267490000000  0.3913740000000  0.4941160000000 1.0
C      1  0.4767710000000  0.5155120000000  0.5294010000000 1.0
C      1  0.5282570000000  0.4966300000000  0.4409260000000 1.0
C      1  0.4056600000000  0.5450390000000  0.4705260000000 1.0
C      1  0.5711510000000  0.5175170000000  0.5786410000000 1.0
C      1  0.4808480000000  0.4979560000000  0.5738090000000 1.0
C      1  0.5284740000000  0.5317140000000  0.4090190000000 1.0
C      1  0.4544530000000  0.5192920000000  0.5977640000000 1.0
C      1  0.4745450000000  0.4560870000000  0.5166790000000 1.0
C      1  0.4215890000000  0.5366370000000  0.5501120000000 1.0
C      1  0.4682550000000  0.4530330000000  0.4143360000000 1.0
C      1  0.5892890000000  0.4972180000000  0.5352620000000 1.0
C      1  0.5570300000000  0.4400150000000  0.5125090000000 1.0
C      1  0.5905190000000  0.5252260000000  0.4965300000000 1.0
C      1  0.5302590000000  0.5019490000000  0.5179100000000 1.0
C      1  0.4508020000000  0.4365640000000  0.4314890000000 1.0
C      1  0.4594840000000  0.4997630000000  0.4921710000000 1.0
C      1  0.5002950000000  0.3933000000000  0.5269160000000 1.0
C      1  0.5772780000000  0.4783760000000  0.4410550000000 1.0
C      1  0.5192110000000  0.4585110000000  0.4076490000000 1.0
C      1  0.5019700000000  0.4928580000000  0.4537370000000 1.0
C      1  0.5044520000000  0.4868220000000  0.5593710000000 1.0
C      1  0.5452100000000  0.4131300000000  0.4540300000000 1.0
C      1  0.4703830000000  0.4196690000000  0.4425780000000 1.0
C      1  0.5718160000000  0.5479040000000  0.4298290000000 1.0
C      1  0.4072460000000  0.4858080000000  0.5566820000000 1.0
C      1  0.5599500000000  0.5864900000000  0.5155720000000 1.0
C      1  0.5087320000000  0.5337510000000  0.5883630000000 1.0
C      1  0.4391600000000  0.4893530000000  0.4219660000000 1.0
C      1  0.4007890000000  0.5099090000000  0.5133210000000 1.0
C      1  0.5294170000000  0.4882180000000  0.5972860000000 1.0
C      1  0.4622260000000  0.4095260000000  0.5327590000000 1.0
C      1  0.4560530000000  0.4945830000000  0.4473360000000 1.0
C      1  0.5192440000000  0.5334990000000  0.5612390000000 1.0
C      1  0.4597400000000  0.5417550000000  0.5776900000000 1.0
C      1  0.5802250000000  0.4982860000000  0.5054950000000 1.0
C      1  0.5446200000000  0.5526670000000  0.4203790000000 1.0
C      1  0.4554990000000  0.5337580000000  0.4039150000000 1.0
C      1  0.4237050000000  0.5598320000000  0.5098950000000 1.0
C      1  0.4958290000000  0.4443030000000  0.4156050000000 1.0
C      1  0.4849610000000  0.5958020000000  0.4543890000000 1.0
C      1  0.4604080000000  0.4054370000000  0.4646530000000 1.0
C      1  0.4589830000000  0.4788390000000  0.4719600000000 1.0
C      1  0.4808850000000  0.5245390000000  0.3980060000000 1.0
C      1  0.5094320000000  0.4567720000000  0.4596650000000 1.0
C      1  0.4122360000000  0.4346800000000  0.5206550000000 1.0
C      1  0.4849490000000  0.4041780000000  0.5499040000000 1.0
C      1  0.4804260000000  0.5030440000000  0.6016820000000 1.0
C      1  0.3987690000000  0.4855380000000  0.5288330000000 1.0
C      1  0.5057790000000  0.4300080000000  0.5043350000000 1.0
C      1  0.4116330000000  0.5378390000000  0.5228090000000 1.0
C      1  0.4736170000000  0.5807090000000  0.4345270000000 1.0
C      1  0.4729940000000  0.5913830000000  0.5576900000000 1.0
C      1  0.4853510000000  0.5518520000000  0.5867080000000 1.0
C      1  0.4398140000000  0.4282700000000  0.5351800000000 1.0
C      1  0.4955590000000  0.6029770000000  0.4789550000000 1.0
C      1  0.5709560000000  0.5174920000000  0.4297160000000 1.0
C      1  0.5744860000000  0.5729450000000  0.4937350000000 1.0
C      1  0.5434930000000  0.5470400000000  0.5223060000000 1.0
C      1  0.5810200000000  0.5205410000000  0.4707330000000 1.0
C      1  0.4519790000000  0.4706150000000  0.5279900000000 1.0
C      1  0.4605990000000  0.5732870000000  0.5368300000000 1.0
C      1  0.4359680000000  0.5423460000000  0.4136690000000 1.0
C      1  0.5175310000000  0.5808680000000  0.4809380000000 1.0
C      1  0.4749880000000  0.5506540000000  0.4760020000000 1.0
C      1  0.5028270000000  0.5534050000000  0.4781520000000 1.0
C      1  0.4999260000000  0.5336830000000  0.5379440000000 1.0
C      1  0.4994130000000  0.5651370000000  0.4279880000000 1.0
C      1  0.5698730000000  0.5756410000000  0.5401550000000 1.0
C      1  0.4222460000000  0.5224220000000  0.4721970000000 1.0
C      1  0.4303160000000  0.5573760000000  0.4366390000000 1.0
C      1  0.5520010000000  0.4016110000000  0.4813360000000 1.0
C      1  0.4980020000000  0.6043730000000  0.5491900000000 1.0
C      1  0.4821400000000  0.4094990000000  0.5070320000000 1.0
C      1  0.5740300000000  0.5631300000000  0.4536250000000 1.0
C      1  0.5522650000000  0.5304220000000  0.4714330000000 1.0
C      1  0.5913350000000  0.4959860000000  0.4599340000000 1.0
C      1  0.5629420000000  0.4697530000000  0.5699300000000 1.0
C      1  0.5137740000000  0.4691030000000  0.5809220000000 1.0
C      1  0.5016420000000  0.5409270000000  0.4121780000000 1.0
C      1  0.5070650000000  0.3936620000000  0.4724460000000 1.0
C      1  0.5835430000000  0.4535520000000  0.5553840000000 1.0
C      1  0.4673220000000  0.4540430000000  0.5703730000000 1.0
C      1  0.4286650000000  0.5124440000000  0.5894020000000 1.0
C      1  0.4364090000000  0.4201650000000  0.4738490000000 1.0
C      1  0.5579030000000  0.5694500000000  0.5662390000000 1.0
C      1  0.5341290000000  0.5017440000000  0.4096240000000 1.0
C      1  0.4799390000000  0.5115830000000  0.4432000000000 1.0
C      1  0.5720390000000  0.5461650000000  0.5315900000000 1.0
C      1  0.4483300000000  0.5750930000000  0.4806280000000 1.0
C      1  0.5035460000000  0.6053350000000  0.5209340000000 1.0
C      1  0.5219280000000  0.4096730000000  0.5166170000000 1.0
C      1  0.4544320000000  0.5329520000000  0.4869310000000 1.0
C      1  0.4516300000000  0.4988290000000  0.5403160000000 1.0
C      1  0.5805000000000  0.5187340000000  0.5504820000000 1.0
C      1  0.5243350000000  0.4557570000000  0.5395840000000 1.0
C      1  0.4043310000000  0.4723280000000  0.4842400000000 1.0
C      1  0.5648750000000  0.5447880000000  0.5780320000000 1.0
C      1  0.4450040000000  0.5516570000000  0.5554730000000 1.0
C      1  0.5270030000000  0.5707860000000  0.4349290000000 1.0
C      1  0.4555880000000  0.4821190000000  0.5685450000000 1.0
C      1  0.5922010000000  0.4543870000000  0.4847410000000 1.0
C      1  0.4283600000000  0.4370090000000  0.4509570000000 1.0
END
