TITL C-2441162-9305-389 0.100849642517993 125000 -14379.2068579568 0 0 117 (C1) n - 1
REM
REM in /home/bkarasulu/work/CARBON/AIRSS/Generating-Clusters/ReaxFF-fromJPCA2015/Units_Real/with-SteepDescent/Higher-Symm
REM
REM
REM
REM
REM
REM ./C.cell (1df0a924f5614ab8850e4351716899ee)
REM
REM compiler GCC version 9.2.1 20190827 (Red Hat 9.2.1-1)
REM options -cpp -mtune=generic -march=x86-64 -g -O0 -fpre-include=/usr/include/finclude/math-vector-fortran.h
REM seed -923729275 -928070576 -259707436 -338477908 1955711421 2145465819 1624007980 -446965406 -2003134147 -1267119958 192429851 1080335567 727965089 377530170 284225628 2058172302 2012852587 -1282634762 1748136607 1278098296 -1551712565 1786510825 1621577802 -857264943 -1232975394 270058285 -771087889 -1304964108 1884449232 853865791 -1047420289 -358088008 -2041273703
REM
CELL 1.54180   50.00000   50.00000   50.00000   90.00000   90.00000   90.00000
LATT -1
SFAC C  
C      1  0.5477590000000  0.4213590000000  0.5317730000000 1.0
C      1  0.5919820000000  0.4883400000000  0.5336320000000 1.0
C      1  0.5650410000000  0.5628050000000  0.5332740000000 1.0
C      1  0.4913800000000  0.5911780000000  0.5337290000000 1.0
C      1  0.4242940000000  0.5497760000000  0.5327920000000 1.0
C      1  0.4139380000000  0.4719820000000  0.5308250000000 1.0
C      1  0.4683860000000  0.4146980000000  0.5305540000000 1.0
C      1  0.5196160000000  0.4139150000000  0.5288550000000 1.0
C      1  0.5796550000000  0.4615890000000  0.5290540000000 1.0
C      1  0.5785120000000  0.5376960000000  0.5287010000000 1.0
C      1  0.5197740000000  0.5851370000000  0.5281440000000 1.0
C      1  0.4462010000000  0.5680050000000  0.5286090000000 1.0
C      1  0.4124200000000  0.5002150000000  0.5292790000000 1.0
C      1  0.4453140000000  0.4312500000000  0.5296980000000 1.0
C      1  0.4291410000000  0.4408550000000  0.4769670000000 1.0
C      1  0.5026310000000  0.4077400000000  0.4765230000000 1.0
C      1  0.5736700000000  0.4437990000000  0.4778690000000 1.0
C      1  0.5897410000000  0.5224690000000  0.4776230000000 1.0
C      1  0.5386590000000  0.5836840000000  0.4765190000000 1.0
C      1  0.4581840000000  0.5823640000000  0.4769760000000 1.0
C      1  0.4095520000000  0.5189500000000  0.4776230000000 1.0
C      1  0.4654200000000  0.4287800000000  0.5030730000000 1.0
C      1  0.5351080000000  0.4255810000000  0.5055040000000 1.0
C      1  0.5817390000000  0.4822750000000  0.5076850000000 1.0
C      1  0.5645650000000  0.5517760000000  0.5077140000000 1.0
C      1  0.4987310000000  0.5833770000000  0.5072480000000 1.0
C      1  0.4358090000000  0.5515820000000  0.5071500000000 1.0
C      1  0.4212980000000  0.4834170000000  0.5034040000000 1.0
C      1  0.4147750000000  0.5453620000000  0.4654000000000 1.0
C      1  0.4114890000000  0.4621160000000  0.4660560000000 1.0
C      1  0.4746430000000  0.4067490000000  0.4666850000000 1.0
C      1  0.5578240000000  0.4210920000000  0.4669000000000 1.0
C      1  0.5968500000000  0.4959580000000  0.4663020000000 1.0
C      1  0.5637350000000  0.5728020000000  0.4650740000000 1.0
C      1  0.4824240000000  0.5950360000000  0.4656530000000 1.0
C      1  0.4441250000000  0.5213560000000  0.4267240000000 1.0
C      1  0.4455340000000  0.4694670000000  0.4263800000000 1.0
C      1  0.4898570000000  0.4390470000000  0.4265420000000 1.0
C      1  0.5407650000000  0.4554090000000  0.4267430000000 1.0
C      1  0.5611460000000  0.5047590000000  0.4266000000000 1.0
C      1  0.5344380000000  0.5497530000000  0.4260000000000 1.0
C      1  0.4821390000000  0.5575310000000  0.4255260000000 1.0
C      1  0.5148620000000  0.4546120000000  0.5477030000000 1.0
C      1  0.5435380000000  0.4851010000000  0.5499020000000 1.0
C      1  0.5448550000000  0.5286740000000  0.5620160000000 1.0
C      1  0.5054960000000  0.5412650000000  0.5502340000000 1.0
C      1  0.4622800000000  0.5367780000000  0.5619590000000 1.0
C      1  0.4541380000000  0.4964350000000  0.5508560000000 1.0
C      1  0.4744270000000  0.4603360000000  0.5490740000000 1.0
C      1  0.4696320000000  0.5741930000000  0.5436460000000 1.0
C      1  0.4221960000000  0.5230050000000  0.5438590000000 1.0
C      1  0.4332070000000  0.4535040000000  0.5438340000000 1.0
C      1  0.4946100000000  0.4181320000000  0.5434420000000 1.0
C      1  0.5602630000000  0.4451510000000  0.5437640000000 1.0
C      1  0.5802820000000  0.5132530000000  0.5435830000000 1.0
C      1  0.5392010000000  0.5703950000000  0.5435670000000 1.0
C      1  0.4375950000000  0.4596470000000  0.4972110000000 1.0
C      1  0.4943100000000  0.4271240000000  0.4965360000000 1.0
C      1  0.5523570000000  0.4489990000000  0.4970750000000 1.0
C      1  0.5725060000000  0.5092300000000  0.4973720000000 1.0
C      1  0.5393780000000  0.5624710000000  0.4967550000000 1.0
C      1  0.4750080000000  0.5683260000000  0.4965180000000 1.0
C      1  0.4302310000000  0.5247230000000  0.4973290000000 1.0
C      1  0.5320400000000  0.5150930000000  0.4646880000000 1.0
C      1  0.5089570000000  0.5323640000000  0.4688090000000 1.0
C      1  0.4794460000000  0.5266060000000  0.4659020000000 1.0
C      1  0.4632240000000  0.5016720000000  0.4683480000000 1.0
C      1  0.4787710000000  0.4764220000000  0.4693220000000 1.0
C      1  0.5069060000000  0.4624280000000  0.4585110000000 1.0
C      1  0.5254470000000  0.4838760000000  0.4692690000000 1.0
C      1  0.5102860000000  0.4646020000000  0.5216190000000 1.0
C      1  0.5329100000000  0.4854170000000  0.5217710000000 1.0
C      1  0.5267420000000  0.5126810000000  0.5128380000000 1.0
C      1  0.5071950000000  0.5403610000000  0.5206770000000 1.0
C      1  0.4822660000000  0.5249960000000  0.5138010000000 1.0
C      1  0.4644980000000  0.4987170000000  0.5238080000000 1.0
C      1  0.4800070000000  0.4711380000000  0.5237890000000 1.0
C      1  0.5511830000000  0.5488490000000  0.4539170000000 1.0
C      1  0.4927730000000  0.5714500000000  0.4526560000000 1.0
C      1  0.4405500000000  0.5384410000000  0.4539540000000 1.0
C      1  0.4331130000000  0.4783920000000  0.4550130000000 1.0
C      1  0.4759570000000  0.4318540000000  0.4529240000000 1.0
C      1  0.5400880000000  0.4385520000000  0.4522980000000 1.0
C      1  0.5712500000000  0.4907620000000  0.4539580000000 1.0
C      1  0.5453560000000  0.4826180000000  0.4209160000000 1.0
C      1  0.5408640000000  0.5234990000000  0.4207700000000 1.0
C      1  0.5069000000000  0.5463640000000  0.4200400000000 1.0
C      1  0.4679970000000  0.5335170000000  0.4205160000000 1.0
C      1  0.4537930000000  0.4953080000000  0.4209820000000 1.0
C      1  0.4707330000000  0.4581910000000  0.4203610000000 1.0
C      1  0.5115750000000  0.4592100000000  0.4285240000000 1.0
C      1  0.4500580000000  0.4244670000000  0.4633860000000 1.0
C      1  0.5283170000000  0.4142360000000  0.4628880000000 1.0
C      1  0.5845600000000  0.4671980000000  0.4636520000000 1.0
C      1  0.5783190000000  0.5457560000000  0.4629610000000 1.0
C      1  0.5130250000000  0.5892080000000  0.4627120000000 1.0
C      1  0.4382830000000  0.5656230000000  0.4626450000000 1.0
C      1  0.4096150000000  0.4926680000000  0.4636360000000 1.0
C      1  0.5590120000000  0.5067320000000  0.5619730000000 1.0
C      1  0.5306820000000  0.5504000000000  0.5620000000000 1.0
C      1  0.4803160000000  0.5544140000000  0.5610380000000 1.0
C      1  0.4435570000000  0.5185810000000  0.5629280000000 1.0
C      1  0.4517950000000  0.4697390000000  0.5599540000000 1.0
C      1  0.4930660000000  0.4432150000000  0.5591830000000 1.0
C      1  0.5392100000000  0.4586220000000  0.5594140000000 1.0
C      1  0.4485320000000  0.5019140000000  0.4952010000000 1.0
C      1  0.4668360000000  0.4599800000000  0.4964290000000 1.0
C      1  0.5094190000000  0.4506440000000  0.4898620000000 1.0
C      1  0.5418420000000  0.4753180000000  0.4937090000000 1.0
C      1  0.5455150000000  0.5167600000000  0.4905700000000 1.0
C      1  0.5150280000000  0.5478540000000  0.4936690000000 1.0
C      1  0.4721910000000  0.5404780000000  0.4905060000000 1.0
C      1  0.5004030000000  0.4997190000000  0.5775000000000 1.0
C      1  0.5017200000000  0.5074760000000  0.5520270000000 1.0
C      1  0.5015910000000  0.5057960000000  0.5024330000000 1.0
C      1  0.4996410000000  0.4960190000000  0.6012810000000 1.0
C      1  0.5001290000000  0.4936550000000  0.4811780000000 1.0
END
