TITL C-2441162-9305-699 0.160320260059157 125000 -23091.781858552 0 0 185 (C1) n - 1
REM
REM in /home/bkarasulu/work/CARBON/AIRSS/Generating-Clusters/ReaxFF-fromJPCA2015/Units_Real/with-SteepDescent/Higher-Symm
REM
REM
REM
REM
REM
REM ./C.cell (1df0a924f5614ab8850e4351716899ee)
REM
REM compiler GCC version 9.2.1 20190827 (Red Hat 9.2.1-1)
REM options -cpp -mtune=generic -march=x86-64 -g -O0 -fpre-include=/usr/include/finclude/math-vector-fortran.h
REM seed 2088258651 957148659 -277827298 1061547521 -2129801134 551247327 -2106791772 -1552244439 1041234674 114230776 -750039751 26088799 -1243326401 237562487 -794478697 -961495514 40306683 -806259604 -371056050 1294774844 -1297073565 808230131 -1309227596 -1472686963 -1557357817 617038320 -1183462093 -1199550874 -1835422941 1310738666 -1304247238 -1139499885 290090959
REM
CELL 1.54180   50.00000   50.00000   50.00000   90.00000   90.00000   90.00000
LATT -1
SFAC C  
C      1  0.5626290000000  0.5612170000000  0.4310260000000 1.0
C      1  0.5634010000000  0.4880270000000  0.4069460000000 1.0
C      1  0.5635050000000  0.4221990000000  0.4581360000000 1.0
C      1  0.5646200000000  0.4194720000000  0.5286730000000 1.0
C      1  0.5705020000000  0.4790790000000  0.5813000000000 1.0
C      1  0.5709870000000  0.5519450000000  0.5674200000000 1.0
C      1  0.5694650000000  0.5849170000000  0.5018190000000 1.0
C      1  0.4661080000000  0.4119550000000  0.4514480000000 1.0
C      1  0.4631730000000  0.4113680000000  0.5376190000000 1.0
C      1  0.4615660000000  0.4714460000000  0.5964460000000 1.0
C      1  0.4632120000000  0.5560610000000  0.5776920000000 1.0
C      1  0.4640270000000  0.5955950000000  0.5067680000000 1.0
C      1  0.4628710000000  0.5616220000000  0.4267310000000 1.0
C      1  0.4636890000000  0.4837220000000  0.4051460000000 1.0
C      1  0.5425080000000  0.5532840000000  0.5722820000000 1.0
C      1  0.5412460000000  0.5877440000000  0.5014880000000 1.0
C      1  0.5374320000000  0.5641130000000  0.4168680000000 1.0
C      1  0.5393570000000  0.4765050000000  0.4012990000000 1.0
C      1  0.5363270000000  0.4097660000000  0.4553950000000 1.0
C      1  0.5270710000000  0.4152430000000  0.5428980000000 1.0
C      1  0.5454650000000  0.4749160000000  0.5927740000000 1.0
C      1  0.5018810000000  0.5361040000000  0.4408940000000 1.0
C      1  0.5036910000000  0.4948500000000  0.4391980000000 1.0
C      1  0.5015980000000  0.4341990000000  0.4737660000000 1.0
C      1  0.5067570000000  0.4368460000000  0.5364950000000 1.0
C      1  0.4956190000000  0.4918870000000  0.5649670000000 1.0
C      1  0.5018570000000  0.5334070000000  0.5480070000000 1.0
C      1  0.4957350000000  0.5546490000000  0.4989520000000 1.0
C      1  0.4206480000000  0.4586010000000  0.5064270000000 1.0
C      1  0.4234840000000  0.4756920000000  0.5358910000000 1.0
C      1  0.4240950000000  0.5102650000000  0.5400720000000 1.0
C      1  0.4206870000000  0.5410270000000  0.5136880000000 1.0
C      1  0.4233440000000  0.5425350000000  0.4818210000000 1.0
C      1  0.4233610000000  0.5007380000000  0.4552400000000 1.0
C      1  0.4233570000000  0.4696640000000  0.4664870000000 1.0
C      1  0.5705130000000  0.5099510000000  0.5861210000000 1.0
C      1  0.5708320000000  0.5739480000000  0.5469390000000 1.0
C      1  0.5738660000000  0.5824860000000  0.4727550000000 1.0
C      1  0.5705480000000  0.5331220000000  0.4214400000000 1.0
C      1  0.5680190000000  0.4588030000000  0.4271400000000 1.0
C      1  0.5671720000000  0.4170920000000  0.4870760000000 1.0
C      1  0.5653820000000  0.4393020000000  0.5557070000000 1.0
C      1  0.5440490000000  0.4431610000000  0.4923680000000 1.0
C      1  0.5452140000000  0.4604990000000  0.5392500000000 1.0
C      1  0.5441570000000  0.5072070000000  0.5554640000000 1.0
C      1  0.5414550000000  0.5452690000000  0.5281140000000 1.0
C      1  0.5421920000000  0.5528710000000  0.4825130000000 1.0
C      1  0.5440310000000  0.5177210000000  0.4500080000000 1.0
C      1  0.5440940000000  0.4714590000000  0.4483710000000 1.0
C      1  0.4801970000000  0.4687180000000  0.5740370000000 1.0
C      1  0.4795250000000  0.5369630000000  0.5643060000000 1.0
C      1  0.4831530000000  0.5743840000000  0.5178070000000 1.0
C      1  0.4826860000000  0.5562860000000  0.4474980000000 1.0
C      1  0.4800740000000  0.4992180000000  0.4236480000000 1.0
C      1  0.4812230000000  0.4363370000000  0.4550020000000 1.0
C      1  0.4832540000000  0.4265140000000  0.5214590000000 1.0
C      1  0.4966090000000  0.4144080000000  0.4960070000000 1.0
C      1  0.5018750000000  0.4324070000000  0.5714140000000 1.0
C      1  0.4972180000000  0.5114540000000  0.5924630000000 1.0
C      1  0.4976940000000  0.5875840000000  0.5480960000000 1.0
C      1  0.5009000000000  0.5953350000000  0.4628840000000 1.0
C      1  0.5023390000000  0.5313380000000  0.4108900000000 1.0
C      1  0.4998240000000  0.4421630000000  0.4149270000000 1.0
C      1  0.5234500000000  0.4380310000000  0.5919730000000 1.0
C      1  0.5205930000000  0.5319880000000  0.6003640000000 1.0
C      1  0.5230560000000  0.6025220000000  0.5377880000000 1.0
C      1  0.5250110000000  0.5894730000000  0.4468320000000 1.0
C      1  0.5239380000000  0.5148350000000  0.3983290000000 1.0
C      1  0.5240620000000  0.4267400000000  0.4192220000000 1.0
C      1  0.5212770000000  0.3967990000000  0.5066190000000 1.0
C      1  0.4259660000000  0.5597280000000  0.4581390000000 1.0
C      1  0.4242280000000  0.5020940000000  0.4261540000000 1.0
C      1  0.4276800000000  0.4440780000000  0.4510950000000 1.0
C      1  0.4240020000000  0.4300880000000  0.5151450000000 1.0
C      1  0.4236220000000  0.4660220000000  0.5644980000000 1.0
C      1  0.4249040000000  0.5301870000000  0.5623140000000 1.0
C      1  0.4237920000000  0.5692550000000  0.5139290000000 1.0
C      1  0.4367820000000  0.4789840000000  0.4142070000000 1.0
C      1  0.4387650000000  0.4192460000000  0.4606360000000 1.0
C      1  0.4360610000000  0.4217590000000  0.5411440000000 1.0
C      1  0.4356510000000  0.4810920000000  0.5869210000000 1.0
C      1  0.4357670000000  0.5570430000000  0.5667720000000 1.0
C      1  0.4372630000000  0.5886800000000  0.4987300000000 1.0
C      1  0.4355450000000  0.5527540000000  0.4316410000000 1.0
C      1  0.5820760000000  0.5663840000000  0.5201660000000 1.0
C      1  0.5841540000000  0.5572780000000  0.4654340000000 1.0
C      1  0.5828020000000  0.5112500000000  0.4338610000000 1.0
C      1  0.5793740000000  0.4475070000000  0.4525480000000 1.0
C      1  0.5830570000000  0.4318520000000  0.5089040000000 1.0
C      1  0.5834370000000  0.4655960000000  0.5583240000000 1.0
C      1  0.5833460000000  0.5256770000000  0.5638130000000 1.0
C      1  0.5897690000000  0.5133420000000  0.5380530000000 1.0
C      1  0.5899150000000  0.5385010000000  0.5143950000000 1.0
C      1  0.5919310000000  0.5343650000000  0.4805750000000 1.0
C      1  0.5913250000000  0.5042140000000  0.4601620000000 1.0
C      1  0.5892560000000  0.4697190000000  0.4703390000000 1.0
C      1  0.5897140000000  0.4599780000000  0.5021740000000 1.0
C      1  0.5911360000000  0.4785900000000  0.5336580000000 1.0
C      1  0.4689890000000  0.4856310000000  0.4757950000000 1.0
C      1  0.4713420000000  0.4670220000000  0.4957050000000 1.0
C      1  0.4759930000000  0.4731810000000  0.5227470000000 1.0
C      1  0.4764670000000  0.4969810000000  0.5402960000000 1.0
C      1  0.4651900000000  0.5210230000000  0.5161050000000 1.0
C      1  0.4735090000000  0.5327930000000  0.4929730000000 1.0
C      1  0.4743420000000  0.5129030000000  0.4718150000000 1.0
C      1  0.4519600000000  0.4745550000000  0.4599370000000 1.0
C      1  0.4465870000000  0.4541780000000  0.4946350000000 1.0
C      1  0.4514110000000  0.4650480000000  0.5351890000000 1.0
C      1  0.4507400000000  0.5033120000000  0.5477510000000 1.0
C      1  0.4480680000000  0.5387440000000  0.5250750000000 1.0
C      1  0.4520150000000  0.5464140000000  0.4846470000000 1.0
C      1  0.4493780000000  0.5156000000000  0.4568640000000 1.0
C      1  0.4369670000000  0.4393920000000  0.5649130000000 1.0
C      1  0.4440700000000  0.5091060000000  0.5917740000000 1.0
C      1  0.4447160000000  0.5785870000000  0.5479820000000 1.0
C      1  0.4448220000000  0.5840870000000  0.4674910000000 1.0
C      1  0.4393370000000  0.5270380000000  0.4152610000000 1.0
C      1  0.4438110000000  0.4509370000000  0.4250990000000 1.0
C      1  0.4449120000000  0.4084330000000  0.4878280000000 1.0
C      1  0.4648750000000  0.5626900000000  0.4702240000000 1.0
C      1  0.4614420000000  0.5187390000000  0.4320920000000 1.0
C      1  0.4654930000000  0.4584320000000  0.4442340000000 1.0
C      1  0.4497320000000  0.4298830000000  0.5035850000000 1.0
C      1  0.4620490000000  0.4536770000000  0.5574060000000 1.0
C      1  0.4543950000000  0.5196640000000  0.5669810000000 1.0
C      1  0.4606330000000  0.5610610000000  0.5315310000000 1.0
C      1  0.4716590000000  0.6014580000000  0.4619140000000 1.0
C      1  0.4699180000000  0.5299560000000  0.3947530000000 1.0
C      1  0.4712150000000  0.4401080000000  0.4091280000000 1.0
C      1  0.4717740000000  0.3958730000000  0.4891400000000 1.0
C      1  0.4731470000000  0.4235910000000  0.5818090000000 1.0
C      1  0.4695150000000  0.5129990000000  0.6059660000000 1.0
C      1  0.4692470000000  0.5939610000000  0.5564800000000 1.0
C      1  0.5025170000000  0.4610730000000  0.3933920000000 1.0
C      1  0.5136440000000  0.3919870000000  0.4617140000000 1.0
C      1  0.5081460000000  0.4026590000000  0.5627070000000 1.0
C      1  0.5031330000000  0.4891970000000  0.6119880000000 1.0
C      1  0.5025980000000  0.5789170000000  0.5770060000000 1.0
C      1  0.5032050000000  0.6112430000000  0.4876280000000 1.0
C      1  0.5136840000000  0.5575450000000  0.4036590000000 1.0
C      1  0.5213860000000  0.5603090000000  0.5902800000000 1.0
C      1  0.5227750000000  0.6074640000000  0.5087270000000 1.0
C      1  0.5135430000000  0.5785530000000  0.4235990000000 1.0
C      1  0.5161080000000  0.4865590000000  0.3966990000000 1.0
C      1  0.5129830000000  0.4100080000000  0.4395130000000 1.0
C      1  0.5149750000000  0.3904800000000  0.5337040000000 1.0
C      1  0.5215850000000  0.4678900000000  0.6019590000000 1.0
C      1  0.5623140000000  0.5102140000000  0.4690390000000 1.0
C      1  0.5608920000000  0.4817480000000  0.4718030000000 1.0
C      1  0.5608590000000  0.4672740000000  0.4970020000000 1.0
C      1  0.5624510000000  0.4775490000000  0.5237870000000 1.0
C      1  0.5622260000000  0.5049010000000  0.5333000000000 1.0
C      1  0.5604470000000  0.5276350000000  0.5165230000000 1.0
C      1  0.5610770000000  0.5306560000000  0.4886870000000 1.0
C      1  0.4744100000000  0.5825880000000  0.5826810000000 1.0
C      1  0.4734820000000  0.6154020000000  0.4875580000000 1.0
C      1  0.4733160000000  0.5595140000000  0.3972180000000 1.0
C      1  0.4737720000000  0.4611950000000  0.3894380000000 1.0
C      1  0.4836900000000  0.3917370000000  0.4636410000000 1.0
C      1  0.4757120000000  0.4016960000000  0.5624530000000 1.0
C      1  0.4746300000000  0.4868080000000  0.6174850000000 1.0
C      1  0.5456130000000  0.5204650000000  0.5970770000000 1.0
C      1  0.5470940000000  0.5897050000000  0.5448480000000 1.0
C      1  0.5536230000000  0.5809370000000  0.4507830000000 1.0
C      1  0.5536230000000  0.5157750000000  0.4042180000000 1.0
C      1  0.5494340000000  0.4380900000000  0.4226210000000 1.0
C      1  0.5500620000000  0.4027790000000  0.5089130000000 1.0
C      1  0.5466300000000  0.4344670000000  0.5769930000000 1.0
C      1  0.5294300000000  0.4500470000000  0.5179410000000 1.0
C      1  0.5263730000000  0.4837210000000  0.5530860000000 1.0
C      1  0.5309980000000  0.5344250000000  0.5529520000000 1.0
C      1  0.5301910000000  0.5625970000000  0.5076390000000 1.0
C      1  0.5268980000000  0.5381050000000  0.4591270000000 1.0
C      1  0.5323950000000  0.4958800000000  0.4378510000000 1.0
C      1  0.5258260000000  0.4505850000000  0.4696670000000 1.0
C      1  0.5170700000000  0.4920490000000  0.5254690000000 1.0
C      1  0.5072150000000  0.5172890000000  0.5245540000000 1.0
C      1  0.5100080000000  0.5295310000000  0.5023970000000 1.0
C      1  0.5186050000000  0.5190990000000  0.4799780000000 1.0
C      1  0.5056310000000  0.4974410000000  0.4687830000000 1.0
C      1  0.5137750000000  0.4741640000000  0.4820490000000 1.0
C      1  0.5176750000000  0.4731550000000  0.5074230000000 1.0
C      1  0.4026920000000  0.4925460000000  0.4908260000000 1.0
C      1  0.4262530000000  0.5001190000000  0.4983830000000 1.0
C      1  0.4492970000000  0.5035430000000  0.5031880000000 1.0
END
