TITL C-2441158-471-1083 0.164212541166233 125000 -22140.5618549508 0 0 175 (C1) n - 1
REM
REM in /home/bkarasulu/work/CARBON/AIRSS/Generating-Clusters/ReaxFF-fromJPCA2015/Units_Real/with-SteepDescent/Higher-Symm
REM
REM
REM
REM
REM
REM ./C.cell (1df0a924f5614ab8850e4351716899ee)
REM
REM compiler GCC version 9.2.1 20190827 (Red Hat 9.2.1-1)
REM options -cpp -mtune=generic -march=x86-64 -g -O0 -fpre-include=/usr/include/finclude/math-vector-fortran.h
REM seed -1699970393 1991077748 -790328069 -745906359 -652455988 -972245017 394476445 -558057669 -1563753349 -759735113 -182488678 1146765838 -1260273838 567479845 208510367 -399208125 79628311 2018538330 1795228512 11127171 184925403 1102391419 1275432059 598597866 1844901728 1685061587 -259673471 -1950048632 -1887746244 812833624 -1763234667 -467706243 -1032660874
REM
CELL 1.54180   50.00000   50.00000   50.00000   90.00000   90.00000   90.00000
LATT -1
SFAC C  
C      1  0.4719450000000  0.4473370000000  0.4066070000000 1.0
C      1  0.4760090000000  0.5561550000000  0.5906620000000 1.0
C      1  0.5393720000000  0.5454680000000  0.5183440000000 1.0
C      1  0.5394530000000  0.4554410000000  0.4798530000000 1.0
C      1  0.5316540000000  0.4027190000000  0.4592040000000 1.0
C      1  0.5319670000000  0.5998470000000  0.5417620000000 1.0
C      1  0.4435240000000  0.5893210000000  0.4978240000000 1.0
C      1  0.4407060000000  0.4108390000000  0.5041650000000 1.0
C      1  0.5724660000000  0.5471980000000  0.4527160000000 1.0
C      1  0.5710130000000  0.4542400000000  0.5494840000000 1.0
C      1  0.5985290000000  0.5010820000000  0.4715830000000 1.0
C      1  0.6024060000000  0.4923340000000  0.5354060000000 1.0
C      1  0.4719290000000  0.5281740000000  0.4495070000000 1.0
C      1  0.4659830000000  0.4842410000000  0.5344870000000 1.0
C      1  0.5268410000000  0.4945460000000  0.5712410000000 1.0
C      1  0.5205410000000  0.5081520000000  0.4075510000000 1.0
C      1  0.5382990000000  0.4580150000000  0.5842250000000 1.0
C      1  0.5452260000000  0.5461340000000  0.4164310000000 1.0
C      1  0.6013760000000  0.4710200000000  0.5151840000000 1.0
C      1  0.5990930000000  0.5267230000000  0.4870790000000 1.0
C      1  0.5239210000000  0.5198440000000  0.5555110000000 1.0
C      1  0.5264490000000  0.4885620000000  0.4505690000000 1.0
C      1  0.5898360000000  0.4885530000000  0.4464490000000 1.0
C      1  0.5909830000000  0.5113490000000  0.5554130000000 1.0
C      1  0.4551460000000  0.4623590000000  0.5884730000000 1.0
C      1  0.4495810000000  0.5411120000000  0.4150570000000 1.0
C      1  0.4333490000000  0.4464670000000  0.4735360000000 1.0
C      1  0.4303490000000  0.5531180000000  0.5288580000000 1.0
C      1  0.3890580000000  0.4877740000000  0.5148420000000 1.0
C      1  0.3981200000000  0.5153470000000  0.4711800000000 1.0
C      1  0.5859610000000  0.4780780000000  0.4886380000000 1.0
C      1  0.5819310000000  0.5222560000000  0.5103900000000 1.0
C      1  0.5026750000000  0.4026300000000  0.4582400000000 1.0
C      1  0.5026890000000  0.5984300000000  0.5431300000000 1.0
C      1  0.5384040000000  0.5457650000000  0.5746140000000 1.0
C      1  0.5393050000000  0.4533580000000  0.4214150000000 1.0
C      1  0.5276190000000  0.4827050000000  0.4793200000000 1.0
C      1  0.5266670000000  0.5195610000000  0.5247750000000 1.0
C      1  0.5354910000000  0.4320060000000  0.5721390000000 1.0
C      1  0.5381550000000  0.5720310000000  0.4287080000000 1.0
C      1  0.3957190000000  0.5131370000000  0.5285490000000 1.0
C      1  0.4008960000000  0.4868770000000  0.4701290000000 1.0
C      1  0.4857390000000  0.5996190000000  0.5201780000000 1.0
C      1  0.4863930000000  0.3983140000000  0.4816060000000 1.0
C      1  0.5412920000000  0.5509890000000  0.4883340000000 1.0
C      1  0.5419910000000  0.4478010000000  0.5096620000000 1.0
C      1  0.4424610000000  0.4338960000000  0.4322910000000 1.0
C      1  0.4371690000000  0.5610970000000  0.5701110000000 1.0
C      1  0.5076130000000  0.5467600000000  0.4421710000000 1.0
C      1  0.5048950000000  0.4480360000000  0.5449060000000 1.0
C      1  0.4997700000000  0.5338100000000  0.5217980000000 1.0
C      1  0.5005770000000  0.4688660000000  0.4769840000000 1.0
C      1  0.4529500000000  0.5772520000000  0.5507260000000 1.0
C      1  0.4547640000000  0.4163990000000  0.4516040000000 1.0
C      1  0.5515590000000  0.5799730000000  0.5488780000000 1.0
C      1  0.5492940000000  0.4209970000000  0.4458170000000 1.0
C      1  0.4386410000000  0.4455910000000  0.5675400000000 1.0
C      1  0.4268650000000  0.5399630000000  0.4364680000000 1.0
C      1  0.4146610000000  0.4496060000000  0.4942150000000 1.0
C      1  0.4153190000000  0.5496330000000  0.5051340000000 1.0
C      1  0.4123090000000  0.4754500000000  0.4465530000000 1.0
C      1  0.4122130000000  0.5212700000000  0.5532420000000 1.0
C      1  0.4861150000000  0.5120750000000  0.4666290000000 1.0
C      1  0.4926740000000  0.4734510000000  0.5426140000000 1.0
C      1  0.4384750000000  0.5200980000000  0.4747520000000 1.0
C      1  0.4218440000000  0.4754830000000  0.5403100000000 1.0
C      1  0.4306470000000  0.5054310000000  0.5692220000000 1.0
C      1  0.4153010000000  0.4957380000000  0.4271930000000 1.0
C      1  0.5845130000000  0.5521960000000  0.4832130000000 1.0
C      1  0.5830180000000  0.4487200000000  0.5160240000000 1.0
C      1  0.4741480000000  0.4435680000000  0.5040070000000 1.0
C      1  0.4653060000000  0.5513050000000  0.5010440000000 1.0
C      1  0.5625030000000  0.5181090000000  0.4663240000000 1.0
C      1  0.5625990000000  0.4820160000000  0.5340020000000 1.0
C      1  0.5657290000000  0.5152190000000  0.5979610000000 1.0
C      1  0.5662370000000  0.4863270000000  0.4031140000000 1.0
C      1  0.4973950000000  0.5261520000000  0.5647060000000 1.0
C      1  0.5048600000000  0.4792430000000  0.4354480000000 1.0
C      1  0.4545220000000  0.4851420000000  0.5048490000000 1.0
C      1  0.4480270000000  0.5112510000000  0.5010300000000 1.0
C      1  0.5257660000000  0.5364140000000  0.4653380000000 1.0
C      1  0.5305920000000  0.4557100000000  0.5353710000000 1.0
C      1  0.5192290000000  0.5693990000000  0.4920510000000 1.0
C      1  0.5229090000000  0.4256380000000  0.5045930000000 1.0
C      1  0.5489780000000  0.4089060000000  0.5299260000000 1.0
C      1  0.5489080000000  0.5912350000000  0.4719390000000 1.0
C      1  0.4273400000000  0.4357560000000  0.5150960000000 1.0
C      1  0.4390770000000  0.5606720000000  0.4886740000000 1.0
C      1  0.5012260000000  0.4855620000000  0.4073640000000 1.0
C      1  0.4992290000000  0.5197040000000  0.5926390000000 1.0
C      1  0.4465700000000  0.5136880000000  0.5917710000000 1.0
C      1  0.4369180000000  0.4913640000000  0.4051310000000 1.0
C      1  0.5196170000000  0.4053450000000  0.5250300000000 1.0
C      1  0.5200960000000  0.5928990000000  0.4753000000000 1.0
C      1  0.5569280000000  0.5731940000000  0.4504720000000 1.0
C      1  0.5552790000000  0.4285920000000  0.5511110000000 1.0
C      1  0.5757840000000  0.5033910000000  0.4251830000000 1.0
C      1  0.5748820000000  0.4971990000000  0.5764330000000 1.0
C      1  0.4709480000000  0.4402220000000  0.4383700000000 1.0
C      1  0.4765940000000  0.5620130000000  0.5613240000000 1.0
C      1  0.4782820000000  0.4513930000000  0.5790160000000 1.0
C      1  0.4695190000000  0.5535050000000  0.4323140000000 1.0
C      1  0.5433580000000  0.4688890000000  0.3968240000000 1.0
C      1  0.5415110000000  0.5328120000000  0.6018210000000 1.0
C      1  0.4995190000000  0.6044370000000  0.4937020000000 1.0
C      1  0.4977350000000  0.3949990000000  0.5086970000000 1.0
C      1  0.5145250000000  0.5564620000000  0.5322000000000 1.0
C      1  0.5142570000000  0.4455120000000  0.4666590000000 1.0
C      1  0.5058120000000  0.4812350000000  0.5192880000000 1.0
C      1  0.5052680000000  0.5228460000000  0.4831380000000 1.0
C      1  0.4804850000000  0.5099580000000  0.5317810000000 1.0
C      1  0.4781100000000  0.4852130000000  0.4673010000000 1.0
C      1  0.5159080000000  0.4365570000000  0.4184910000000 1.0
C      1  0.5173400000000  0.5642620000000  0.5825300000000 1.0
C      1  0.5368320000000  0.4068780000000  0.4874400000000 1.0
C      1  0.5340680000000  0.5931720000000  0.5137550000000 1.0
C      1  0.5394700000000  0.5041340000000  0.5991360000000 1.0
C      1  0.5420250000000  0.4978190000000  0.3914980000000 1.0
C      1  0.4183720000000  0.5488730000000  0.5533730000000 1.0
C      1  0.4234220000000  0.4492720000000  0.4472640000000 1.0
C      1  0.5593240000000  0.5901520000000  0.4996340000000 1.0
C      1  0.5607290000000  0.4096730000000  0.5026820000000 1.0
C      1  0.4858040000000  0.5890570000000  0.4468210000000 1.0
C      1  0.4833050000000  0.4120380000000  0.5540980000000 1.0
C      1  0.4504640000000  0.5435010000000  0.5903780000000 1.0
C      1  0.4522890000000  0.4677160000000  0.4032550000000 1.0
C      1  0.4765670000000  0.4800030000000  0.4391060000000 1.0
C      1  0.4704040000000  0.5292680000000  0.5505470000000 1.0
C      1  0.4799980000000  0.5960410000000  0.4741540000000 1.0
C      1  0.4788980000000  0.4153770000000  0.5224920000000 1.0
C      1  0.5823180000000  0.4606400000000  0.4489940000000 1.0
C      1  0.5832900000000  0.5394480000000  0.5507620000000 1.0
C      1  0.4476700000000  0.5150280000000  0.4491590000000 1.0
C      1  0.4432080000000  0.4831540000000  0.5553790000000 1.0
C      1  0.5060310000000  0.4266420000000  0.5659080000000 1.0
C      1  0.5091830000000  0.5746900000000  0.4351560000000 1.0
C      1  0.5186540000000  0.5340010000000  0.4180030000000 1.0
C      1  0.5101380000000  0.4716600000000  0.5838670000000 1.0
C      1  0.4754960000000  0.4998790000000  0.4165830000000 1.0
C      1  0.4924180000000  0.4915970000000  0.5974360000000 1.0
C      1  0.4568100000000  0.4599720000000  0.4870460000000 1.0
C      1  0.4522510000000  0.5368190000000  0.5214830000000 1.0
C      1  0.4555200000000  0.5156860000000  0.4027750000000 1.0
C      1  0.4630620000000  0.4899280000000  0.5974020000000 1.0
C      1  0.5394020000000  0.5137490000000  0.4517810000000 1.0
C      1  0.5358850000000  0.4819760000000  0.5436780000000 1.0
C      1  0.5648650000000  0.4416440000000  0.4349650000000 1.0
C      1  0.5651400000000  0.5593290000000  0.5616980000000 1.0
C      1  0.4297200000000  0.5460830000000  0.4663070000000 1.0
C      1  0.4274580000000  0.4483300000000  0.5408430000000 1.0
C      1  0.4577410000000  0.5906000000000  0.5231790000000 1.0
C      1  0.4580360000000  0.4069040000000  0.4785000000000 1.0
C      1  0.5731090000000  0.4550030000000  0.4749770000000 1.0
C      1  0.5727720000000  0.5444500000000  0.5252400000000 1.0
C      1  0.5629380000000  0.4874970000000  0.5055800000000 1.0
C      1  0.5614480000000  0.5127960000000  0.4942200000000 1.0
C      1  0.4517800000000  0.4068490000000  0.5298540000000 1.0
C      1  0.4530340000000  0.5927750000000  0.4705310000000 1.0
C      1  0.4591760000000  0.5788620000000  0.4444370000000 1.0
C      1  0.4638420000000  0.4328280000000  0.5592410000000 1.0
C      1  0.5017510000000  0.4283780000000  0.4459730000000 1.0
C      1  0.5037470000000  0.5729320000000  0.5565190000000 1.0
C      1  0.3959620000000  0.4864120000000  0.5406700000000 1.0
C      1  0.4063720000000  0.5184530000000  0.4423880000000 1.0
C      1  0.5780710000000  0.5684670000000  0.5061720000000 1.0
C      1  0.5785190000000  0.4314520000000  0.4937630000000 1.0
C      1  0.4015970000000  0.4741090000000  0.4942960000000 1.0
C      1  0.4023300000000  0.5261780000000  0.4984470000000 1.0
C      1  0.5685740000000  0.5318660000000  0.4270560000000 1.0
C      1  0.5639840000000  0.4694540000000  0.5742200000000 1.0
C      1  0.5001400000000  0.4530500000000  0.4018660000000 1.0
C      1  0.5024400000000  0.5481330000000  0.6015810000000 1.0
C      1  0.4950720000000  0.4622130000000  0.5031240000000 1.0
C      1  0.4930350000000  0.5480570000000  0.4952380000000 1.0
C      1  0.5184280000000  0.5013870000000  0.5027390000000 1.0
END
