TITL C-2441168-9922-59 0.0193907175943673 125000 -10017.0897724921 0 0 76 (C1) n - 1
REM
REM in /home/bkarasulu/work/CARBON/AIRSS/Generating-Clusters/ReaxFF-fromJPCA2015/Units_Real/with-SteepDescent/Higher-Symm
REM
REM
REM
REM
REM
REM ./C.cell (1df0a924f5614ab8850e4351716899ee)
REM
REM compiler GCC version 9.2.1 20190827 (Red Hat 9.2.1-1)
REM options -cpp -mtune=generic -march=x86-64 -g -O0 -fpre-include=/usr/include/finclude/math-vector-fortran.h
REM seed -746066992 -1065967633 -584103344 -1604115319 895292469 -1661519654 -804617300 -1376133633 -1779259278 -544110421 598419216 -1081621603 -1605344925 -716414548 990738110 -237002650 -1001491707 -731392606 995902591 -1034716347 -151310401 1744056268 726123286 -480273478 -1927363043 1306887238 1733670501 1156887505 -1518837139 -1754768575 -814445064 862886695 -715843836
REM
CELL 1.54180   50.00000   50.00000   50.00000   90.00000   90.00000   90.00000
LATT -1
SFAC C  
C      1  0.4852920000000  0.4750030000000  0.4737330000000 1.0
C      1  0.4855560000000  0.5225460000000  0.4654360000000 1.0
C      1  0.5276910000000  0.4998220000000  0.4700120000000 1.0
C      1  0.5126980000000  0.4772290000000  0.4679350000000 1.0
C      1  0.5122610000000  0.5245410000000  0.4697130000000 1.0
C      1  0.4706110000000  0.5015250000000  0.4711900000000 1.0
C      1  0.5347480000000  0.4493610000000  0.4465310000000 1.0
C      1  0.4362330000000  0.4947090000000  0.4461140000000 1.0
C      1  0.5274980000000  0.5571860000000  0.4475780000000 1.0
C      1  0.4631080000000  0.4480530000000  0.4480540000000 1.0
C      1  0.5625270000000  0.4959700000000  0.4461890000000 1.0
C      1  0.4724960000000  0.5560600000000  0.4452090000000 1.0
C      1  0.4829150000000  0.5559300000000  0.5263990000000 1.0
C      1  0.5658240000000  0.4995480000000  0.5182140000000 1.0
C      1  0.4544160000000  0.4532530000000  0.5218820000000 1.0
C      1  0.5232870000000  0.5542050000000  0.5159100000000 1.0
C      1  0.4339790000000  0.5009000000000  0.5187360000000 1.0
C      1  0.5430030000000  0.4542090000000  0.5227480000000 1.0
C      1  0.4479460000000  0.4403570000000  0.5481910000000 1.0
C      1  0.4715200000000  0.5726420000000  0.5468520000000 1.0
C      1  0.5742060000000  0.4841320000000  0.5404860000000 1.0
C      1  0.5491970000000  0.4414620000000  0.5479560000000 1.0
C      1  0.5224790000000  0.5734650000000  0.5365870000000 1.0
C      1  0.4243070000000  0.4827230000000  0.5403610000000 1.0
C      1  0.5620050000000  0.5497020000000  0.5210190000000 1.0
C      1  0.5133660000000  0.4260530000000  0.5200610000000 1.0
C      1  0.4229150000000  0.5263570000000  0.5166980000000 1.0
C      1  0.4415170000000  0.5479220000000  0.5198720000000 1.0
C      1  0.4851540000000  0.4254340000000  0.5201380000000 1.0
C      1  0.5778840000000  0.5253940000000  0.5183800000000 1.0
C      1  0.5592190000000  0.5507640000000  0.4916510000000 1.0
C      1  0.5137610000000  0.4282900000000  0.4904370000000 1.0
C      1  0.4252150000000  0.5272640000000  0.4881280000000 1.0
C      1  0.4448770000000  0.5490390000000  0.4910410000000 1.0
C      1  0.4846860000000  0.4275180000000  0.4902730000000 1.0
C      1  0.5759430000000  0.5273210000000  0.4886440000000 1.0
C      1  0.5251580000000  0.4803470000000  0.5130150000000 1.0
C      1  0.4642600000000  0.5040390000000  0.5018650000000 1.0
C      1  0.5139210000000  0.5287150000000  0.5046280000000 1.0
C      1  0.4755440000000  0.4767250000000  0.5061580000000 1.0
C      1  0.5352960000000  0.5043180000000  0.5020560000000 1.0
C      1  0.4882280000000  0.5181630000000  0.5140490000000 1.0
C      1  0.5146220000000  0.5736750000000  0.4690800000000 1.0
C      1  0.5568570000000  0.4511580000000  0.4661160000000 1.0
C      1  0.4273990000000  0.4751460000000  0.4662640000000 1.0
C      1  0.4858910000000  0.5746660000000  0.4638610000000 1.0
C      1  0.4419400000000  0.4500790000000  0.4677140000000 1.0
C      1  0.5717120000000  0.4760220000000  0.4661320000000 1.0
C      1  0.5336960000000  0.4332410000000  0.4703780000000 1.0
C      1  0.4224470000000  0.5042630000000  0.4698170000000 1.0
C      1  0.5426070000000  0.5650680000000  0.4708710000000 1.0
C      1  0.4646220000000  0.4326620000000  0.4708930000000 1.0
C      1  0.5775160000000  0.5051810000000  0.4691350000000 1.0
C      1  0.4589420000000  0.5639460000000  0.4697280000000 1.0
C      1  0.4631160000000  0.5456150000000  0.5433770000000 1.0
C      1  0.5563150000000  0.5037620000000  0.5459010000000 1.0
C      1  0.4755930000000  0.4444060000000  0.5418540000000 1.0
C      1  0.5341910000000  0.5481200000000  0.5407730000000 1.0
C      1  0.4432070000000  0.5026240000000  0.5465000000000 1.0
C      1  0.5225380000000  0.4449870000000  0.5430200000000 1.0
C      1  0.5280240000000  0.4995260000000  0.5546250000000 1.0
C      1  0.4859430000000  0.4738690000000  0.5536720000000 1.0
C      1  0.4859360000000  0.5238310000000  0.5563770000000 1.0
C      1  0.4708730000000  0.4993160000000  0.5556100000000 1.0
C      1  0.5122970000000  0.4747190000000  0.5538230000000 1.0
C      1  0.5140440000000  0.5244980000000  0.5536130000000 1.0
C      1  0.5168710000000  0.4722650000000  0.4396850000000 1.0
C      1  0.4651690000000  0.4978080000000  0.4406900000000 1.0
C      1  0.5171350000000  0.5304970000000  0.4397220000000 1.0
C      1  0.4799410000000  0.4712730000000  0.4419440000000 1.0
C      1  0.5338180000000  0.5003430000000  0.4407120000000 1.0
C      1  0.4838700000000  0.5294290000000  0.4376800000000 1.0
C      1  0.5699520000000  0.4573860000000  0.5376600000000 1.0
C      1  0.4298350000000  0.4565870000000  0.5352080000000 1.0
C      1  0.4953680000000  0.5819600000000  0.5345620000000 1.0
C      1  0.4987600000000  0.4903650000000  0.5184980000000 1.0
END
