TITL C-2441157-2117-373 0.123312786458341 125000 -16257.7279404913 0 0 127 (C1) n - 1
REM
REM in /home/bkarasulu/work/CARBON/AIRSS/Generating-Clusters/ReaxFF-fromJPCA2015/Units_Real/with-SteepDescent/Higher-Symm
REM
REM
REM
REM
REM
REM ./C.cell (1df0a924f5614ab8850e4351716899ee)
REM
REM compiler GCC version 9.2.1 20190827 (Red Hat 9.2.1-1)
REM options -cpp -mtune=generic -march=x86-64 -g -O0 -fpre-include=/usr/include/finclude/math-vector-fortran.h
REM seed -1382744935 -1935979944 -2109990108 750476074 1098699306 468810662 83610059 -1273317778 1549310480 1155797340 -31533896 995964857 -1743414904 -116792552 -1280442991 63026641 -64731385 -1836760119 4521939 -130130346 -46068415 1404909417 1862718750 351367730 -2028315884 2097052473 1556253894 265477720 1239609511 1858997692 258074684 1546009619 -608210330
REM
CELL 1.54180   50.00000   50.00000   50.00000   90.00000   90.00000   90.00000
LATT -1
SFAC C  
C      1  0.5383010000000  0.4296300000000  0.5179360000000 1.0
C      1  0.5378400000000  0.4951560000000  0.5728550000000 1.0
C      1  0.5381140000000  0.5681310000000  0.5276130000000 1.0
C      1  0.5366300000000  0.5447480000000  0.4454400000000 1.0
C      1  0.5382030000000  0.4605680000000  0.4381030000000 1.0
C      1  0.5780520000000  0.4806860000000  0.4526450000000 1.0
C      1  0.5806810000000  0.4453900000000  0.5036160000000 1.0
C      1  0.5800300000000  0.4882050000000  0.5505160000000 1.0
C      1  0.5776100000000  0.5441930000000  0.5261780000000 1.0
C      1  0.5781840000000  0.5390830000000  0.4648410000000 1.0
C      1  0.5743560000000  0.5207820000000  0.4436890000000 1.0
C      1  0.5742740000000  0.4543530000000  0.4641890000000 1.0
C      1  0.5781530000000  0.4419900000000  0.5307710000000 1.0
C      1  0.5774170000000  0.5117450000000  0.5637910000000 1.0
C      1  0.5752770000000  0.5576440000000  0.5011470000000 1.0
C      1  0.4378090000000  0.5487530000000  0.4643070000000 1.0
C      1  0.4386870000000  0.4817720000000  0.4441870000000 1.0
C      1  0.4377630000000  0.4425100000000  0.5021970000000 1.0
C      1  0.4393100000000  0.4809490000000  0.5588060000000 1.0
C      1  0.4395290000000  0.5456760000000  0.5330080000000 1.0
C      1  0.5186600000000  0.4880360000000  0.5935330000000 1.0
C      1  0.5182110000000  0.5847070000000  0.5401480000000 1.0
C      1  0.5187950000000  0.5634010000000  0.4334430000000 1.0
C      1  0.5189960000000  0.4545700000000  0.4175840000000 1.0
C      1  0.5188720000000  0.4082810000000  0.5176010000000 1.0
C      1  0.4800170000000  0.4374350000000  0.4626220000000 1.0
C      1  0.4806640000000  0.4470420000000  0.5456840000000 1.0
C      1  0.4806240000000  0.5286130000000  0.5644050000000 1.0
C      1  0.4817180000000  0.5684770000000  0.4906630000000 1.0
C      1  0.4801690000000  0.5150380000000  0.4331840000000 1.0
C      1  0.5455510000000  0.4840100000000  0.4812920000000 1.0
C      1  0.5553710000000  0.4802700000000  0.5085660000000 1.0
C      1  0.5432310000000  0.5013630000000  0.5244740000000 1.0
C      1  0.5432880000000  0.5252490000000  0.5042660000000 1.0
C      1  0.5554700000000  0.5108100000000  0.4826620000000 1.0
C      1  0.5477930000000  0.5030910000000  0.4191030000000 1.0
C      1  0.5484030000000  0.4235050000000  0.4701440000000 1.0
C      1  0.5459970000000  0.4490030000000  0.5661010000000 1.0
C      1  0.5456580000000  0.5465540000000  0.5694890000000 1.0
C      1  0.5475410000000  0.5783810000000  0.4781410000000 1.0
C      1  0.4784920000000  0.5763160000000  0.4491060000000 1.0
C      1  0.4814450000000  0.4764640000000  0.4233460000000 1.0
C      1  0.4799950000000  0.4159390000000  0.4978750000000 1.0
C      1  0.4821330000000  0.4733180000000  0.5759430000000 1.0
C      1  0.4807780000000  0.5649430000000  0.5499690000000 1.0
C      1  0.4264350000000  0.5249610000000  0.4718340000000 1.0
C      1  0.4327400000000  0.4858590000000  0.4736340000000 1.0
C      1  0.4198590000000  0.4636710000000  0.5049250000000 1.0
C      1  0.4297350000000  0.4922810000000  0.5367790000000 1.0
C      1  0.4295180000000  0.5250630000000  0.5125350000000 1.0
C      1  0.4978930000000  0.5485290000000  0.4207930000000 1.0
C      1  0.4980170000000  0.4383040000000  0.4284620000000 1.0
C      1  0.4984990000000  0.4126990000000  0.5374690000000 1.0
C      1  0.4975810000000  0.5082000000000  0.5949210000000 1.0
C      1  0.4976010000000  0.5918340000000  0.5212620000000 1.0
C      1  0.5909580000000  0.5209140000000  0.5148950000000 1.0
C      1  0.5855420000000  0.5157190000000  0.4845440000000 1.0
C      1  0.5924800000000  0.4888780000000  0.4763350000000 1.0
C      1  0.5870900000000  0.4771680000000  0.5024570000000 1.0
C      1  0.5931330000000  0.4946210000000  0.5250820000000 1.0
C      1  0.5549870000000  0.4328640000000  0.5428980000000 1.0
C      1  0.5551920000000  0.5198190000000  0.5778520000000 1.0
C      1  0.5561100000000  0.5780470000000  0.5060960000000 1.0
C      1  0.5537210000000  0.5294530000000  0.4271160000000 1.0
C      1  0.5550460000000  0.4403120000000  0.4493100000000 1.0
C      1  0.4910820000000  0.5368250000000  0.5228630000000 1.0
C      1  0.4862000000000  0.5260330000000  0.4761630000000 1.0
C      1  0.4885330000000  0.4807030000000  0.4587280000000 1.0
C      1  0.4892380000000  0.4544010000000  0.5042190000000 1.0
C      1  0.4917570000000  0.4902560000000  0.5452300000000 1.0
C      1  0.4707520000000  0.4978340000000  0.5888310000000 1.0
C      1  0.4707470000000  0.5824440000000  0.5286560000000 1.0
C      1  0.4709650000000  0.5547950000000  0.4311600000000 1.0
C      1  0.4704890000000  0.4492030000000  0.4274600000000 1.0
C      1  0.4712790000000  0.4155540000000  0.5256340000000 1.0
C      1  0.5200070000000  0.4430360000000  0.5738170000000 1.0
C      1  0.5199150000000  0.5518520000000  0.5772080000000 1.0
C      1  0.5209820000000  0.5880090000000  0.4751950000000 1.0
C      1  0.5210910000000  0.5028560000000  0.4096640000000 1.0
C      1  0.5212210000000  0.4132920000000  0.4688040000000 1.0
C      1  0.4423690000000  0.4515180000000  0.5523620000000 1.0
C      1  0.4422930000000  0.5332840000000  0.5596720000000 1.0
C      1  0.4423860000000  0.5683910000000  0.4860420000000 1.0
C      1  0.4419190000000  0.5088720000000  0.4312220000000 1.0
C      1  0.4424470000000  0.4374970000000  0.4721320000000 1.0
C      1  0.5144040000000  0.5282220000000  0.5063650000000 1.0
C      1  0.5094750000000  0.5147870000000  0.4827890000000 1.0
C      1  0.5153490000000  0.4861170000000  0.4790990000000 1.0
C      1  0.5111920000000  0.4728780000000  0.5055640000000 1.0
C      1  0.5168490000000  0.4886440000000  0.5286870000000 1.0
C      1  0.5062260000000  0.5808470000000  0.4967920000000 1.0
C      1  0.5062520000000  0.5219970000000  0.4248510000000 1.0
C      1  0.5051410000000  0.4316320000000  0.4542870000000 1.0
C      1  0.5056790000000  0.4359260000000  0.5513160000000 1.0
C      1  0.5055970000000  0.5284670000000  0.5771410000000 1.0
C      1  0.4105390000000  0.5095160000000  0.5283180000000 1.0
C      1  0.4082230000000  0.5277580000000  0.4923800000000 1.0
C      1  0.4058470000000  0.5040920000000  0.4724160000000 1.0
C      1  0.4089760000000  0.4759140000000  0.4839860000000 1.0
C      1  0.4094760000000  0.4801440000000  0.5238130000000 1.0
C      1  0.4771830000000  0.5418040000000  0.4979130000000 1.0
C      1  0.4753550000000  0.5066170000000  0.4594740000000 1.0
C      1  0.4777500000000  0.4618350000000  0.4783780000000 1.0
C      1  0.4749660000000  0.4713510000000  0.5271110000000 1.0
C      1  0.4783830000000  0.5155750000000  0.5387380000000 1.0
C      1  0.4477030000000  0.4347860000000  0.5283780000000 1.0
C      1  0.4483760000000  0.5056140000000  0.5722580000000 1.0
C      1  0.4481760000000  0.5677470000000  0.5162510000000 1.0
C      1  0.4480280000000  0.5378700000000  0.4392980000000 1.0
C      1  0.4479240000000  0.4539960000000  0.4472790000000 1.0
C      1  0.5526850000000  0.4373580000000  0.4947230000000 1.0
C      1  0.5514440000000  0.4758700000000  0.5567000000000 1.0
C      1  0.5523290000000  0.5490280000000  0.5420550000000 1.0
C      1  0.5493440000000  0.5490890000000  0.4711260000000 1.0
C      1  0.5507630000000  0.4857680000000  0.4411430000000 1.0
C      1  0.4634220000000  0.5825050000000  0.4730780000000 1.0
C      1  0.4636940000000  0.4988230000000  0.4158370000000 1.0
C      1  0.4635680000000  0.4185110000000  0.4752220000000 1.0
C      1  0.4647380000000  0.4504960000000  0.5695840000000 1.0
C      1  0.4627670000000  0.5508440000000  0.5682720000000 1.0
C      1  0.5068730000000  0.5828210000000  0.4512660000000 1.0
C      1  0.5063210000000  0.4785290000000  0.4080580000000 1.0
C      1  0.5059910000000  0.4053670000000  0.4919560000000 1.0
C      1  0.5063300000000  0.4623360000000  0.5887470000000 1.0
C      1  0.5064760000000  0.5720740000000  0.5631010000000 1.0
C      1  0.4721320000000  0.4917000000000  0.5055910000000 1.0
C      1  0.4494630000000  0.5034540000000  0.4951100000000 1.0
END
