TITL C-2441165-58-1121 0.000425882548822178 125000 -2786.49634617634 0 0 23 (C1) n - 1
REM
REM in /home/bkarasulu/work/CARBON/AIRSS/Generating-Clusters/ReaxFF-fromJPCA2015/Units_Real/with-SteepDescent/Higher-Symm
REM
REM
REM
REM
REM
REM ./C.cell (1df0a924f5614ab8850e4351716899ee)
REM
REM compiler GCC version 9.2.1 20190827 (Red Hat 9.2.1-1)
REM options -cpp -mtune=generic -march=x86-64 -g -O0 -fpre-include=/usr/include/finclude/math-vector-fortran.h
REM seed 533186819 -491339870 -147402429 -836972958 1285193472 -523619997 -1650252920 1618085349 -382659830 -310410443 -1957404475 -327424260 175444141 109945350 2044090164 1393588156 -1697636676 1502317904 2065286994 -1420615551 -1452509984 -426136620 -1726398814 -476604672 1029278006 1533179638 -1237294252 -1489131022 1451858165 -1928082382 -951236803 -205857925 -688942854
REM
CELL 1.54180   50.00000   50.00000   50.00000   90.00000   90.00000   90.00000
LATT -1
SFAC C  
C      1  0.4610360000000  0.4618730000000  0.5274930000000 1.0
C      1  0.5320790000000  0.5196000000000  0.5357820000000 1.0
C      1  0.4604500000000  0.5372190000000  0.4765890000000 1.0
C      1  0.5364280000000  0.4697910000000  0.4613060000000 1.0
C      1  0.5314300000000  0.4935020000000  0.5298320000000 1.0
C      1  0.4628930000000  0.5318880000000  0.5048630000000 1.0
C      1  0.5403970000000  0.4980630000000  0.4652070000000 1.0
C      1  0.4600710000000  0.4664870000000  0.4989660000000 1.0
C      1  0.5274330000000  0.4760060000000  0.4364470000000 1.0
C      1  0.4704120000000  0.4369150000000  0.5217600000000 1.0
C      1  0.5312800000000  0.5156740000000  0.5621910000000 1.0
C      1  0.4674150000000  0.5631260000000  0.4815860000000 1.0
C      1  0.5268900000000  0.4564630000000  0.4904300000000 1.0
C      1  0.4695090000000  0.4903720000000  0.5420300000000 1.0
C      1  0.5251900000000  0.5431980000000  0.5126890000000 1.0
C      1  0.4710030000000  0.5126820000000  0.4564280000000 1.0
C      1  0.4817970000000  0.4922000000000  0.4733330000000 1.0
C      1  0.5223890000000  0.4836160000000  0.5066610000000 1.0
C      1  0.4750590000000  0.5085010000000  0.5170260000000 1.0
C      1  0.5210290000000  0.5255870000000  0.4910090000000 1.0
C      1  0.4582060000000  0.4931720000000  0.4916820000000 1.0
C      1  0.5424980000000  0.5042760000000  0.4922530000000 1.0
C      1  0.5007690000000  0.5011440000000  0.4963700000000 1.0
END
