TITL C-2441163-1170-68 0.229377295592078 125000 -19308.0869102713 0 0 169 (C1) n - 1
REM
REM in /home/bkarasulu/work/CARBON/AIRSS/Generating-Clusters/ReaxFF-fromJPCA2015/Units_Real/with-SteepDescent/Higher-Symm
REM
REM
REM
REM
REM
REM ./C.cell (1df0a924f5614ab8850e4351716899ee)
REM
REM compiler GCC version 9.2.1 20190827 (Red Hat 9.2.1-1)
REM options -cpp -mtune=generic -march=x86-64 -g -O0 -fpre-include=/usr/include/finclude/math-vector-fortran.h
REM seed -1339524920 -377477509 469746285 -579309524 -1531818067 -1436279364 -1872632706 23907772 275086439 912808308 1911798175 146460387 1156554045 -425236815 -1941199504 1954035174 -606213232 1298623692 500218242 1090733700 -475039811 1097356908 722939092 -224299237 1023453184 -1008423915 -1427096681 -802668022 610331529 265990846 1896235066 61686900 448381482
REM
CELL 1.54180   50.00000   50.00000   50.00000   90.00000   90.00000   90.00000
LATT -1
SFAC C  
C      1  0.4419580000000  0.5868590000000  0.5391990000000 1.0
C      1  0.4377510000000  0.5837250000000  0.4623420000000 1.0
C      1  0.4943660000000  0.5853530000000  0.4293100000000 1.0
C      1  0.5648090000000  0.5840720000000  0.4640470000000 1.0
C      1  0.5630410000000  0.5844060000000  0.5342830000000 1.0
C      1  0.5038360000000  0.5790300000000  0.5681450000000 1.0
C      1  0.5022920000000  0.5550160000000  0.4095870000000 1.0
C      1  0.5798210000000  0.5526210000000  0.4569050000000 1.0
C      1  0.5775390000000  0.5536200000000  0.5466860000000 1.0
C      1  0.4980050000000  0.5530220000000  0.5910710000000 1.0
C      1  0.4207360000000  0.5524480000000  0.5442130000000 1.0
C      1  0.4232680000000  0.5525520000000  0.4520630000000 1.0
C      1  0.5428150000000  0.4065120000000  0.5340950000000 1.0
C      1  0.4913680000000  0.4073570000000  0.5539270000000 1.0
C      1  0.4494160000000  0.4059200000000  0.5193010000000 1.0
C      1  0.4578780000000  0.4065070000000  0.4653080000000 1.0
C      1  0.5088910000000  0.4075770000000  0.4463860000000 1.0
C      1  0.5491970000000  0.4049450000000  0.4800070000000 1.0
C      1  0.5461920000000  0.4045140000000  0.5073880000000 1.0
C      1  0.5191760000000  0.4096960000000  0.5497850000000 1.0
C      1  0.4714160000000  0.4162960000000  0.5350580000000 1.0
C      1  0.4486480000000  0.4092680000000  0.4917790000000 1.0
C      1  0.4804580000000  0.4116380000000  0.4487020000000 1.0
C      1  0.5253500000000  0.4136590000000  0.4678790000000 1.0
C      1  0.5280840000000  0.5321100000000  0.4908160000000 1.0
C      1  0.5211810000000  0.5328110000000  0.5207140000000 1.0
C      1  0.4941990000000  0.5351590000000  0.5300710000000 1.0
C      1  0.4741490000000  0.5344650000000  0.5094110000000 1.0
C      1  0.4791310000000  0.5339060000000  0.4804270000000 1.0
C      1  0.5060580000000  0.5333680000000  0.4718260000000 1.0
C      1  0.4109590000000  0.5454400000000  0.5183340000000 1.0
C      1  0.4404010000000  0.5431120000000  0.4313820000000 1.0
C      1  0.5290280000000  0.5458250000000  0.4137840000000 1.0
C      1  0.5892910000000  0.5435960000000  0.4818830000000 1.0
C      1  0.5610130000000  0.5447010000000  0.5679180000000 1.0
C      1  0.4711930000000  0.5449200000000  0.5861840000000 1.0
C      1  0.5289060000000  0.5567910000000  0.5301470000000 1.0
C      1  0.4896310000000  0.5590280000000  0.5436600000000 1.0
C      1  0.4596590000000  0.5565960000000  0.5097310000000 1.0
C      1  0.4718000000000  0.5568150000000  0.4684550000000 1.0
C      1  0.5121750000000  0.5570730000000  0.4600900000000 1.0
C      1  0.5407620000000  0.5561910000000  0.4902400000000 1.0
C      1  0.5390960000000  0.5104290000000  0.4417840000000 1.0
C      1  0.5700920000000  0.5097770000000  0.5053630000000 1.0
C      1  0.5301350000000  0.5085360000000  0.5648910000000 1.0
C      1  0.4593040000000  0.5098640000000  0.5584610000000 1.0
C      1  0.4296720000000  0.5110150000000  0.4937380000000 1.0
C      1  0.4681790000000  0.5060260000000  0.4363110000000 1.0
C      1  0.4518480000000  0.5123150000000  0.5138200000000 1.0
C      1  0.4631020000000  0.5120230000000  0.4647560000000 1.0
C      1  0.5104550000000  0.5125190000000  0.4502610000000 1.0
C      1  0.5498650000000  0.5133290000000  0.4853290000000 1.0
C      1  0.5373640000000  0.5141500000000  0.5378730000000 1.0
C      1  0.4878400000000  0.5135430000000  0.5498650000000 1.0
C      1  0.5217640000000  0.4311130000000  0.5683270000000 1.0
C      1  0.4470520000000  0.4284360000000  0.5536210000000 1.0
C      1  0.4295660000000  0.4290800000000  0.4845640000000 1.0
C      1  0.4809100000000  0.4318200000000  0.4281680000000 1.0
C      1  0.5517200000000  0.4299140000000  0.4454200000000 1.0
C      1  0.5746780000000  0.4350940000000  0.5138400000000 1.0
C      1  0.4927830000000  0.4453860000000  0.4728210000000 1.0
C      1  0.5200660000000  0.4395020000000  0.4793320000000 1.0
C      1  0.5266940000000  0.4429630000000  0.5079810000000 1.0
C      1  0.5075030000000  0.4466850000000  0.5268100000000 1.0
C      1  0.4806870000000  0.4421570000000  0.5204830000000 1.0
C      1  0.4739760000000  0.4446400000000  0.4919780000000 1.0
C      1  0.5326420000000  0.5584920000000  0.4397920000000 1.0
C      1  0.5687040000000  0.5570360000000  0.4982660000000 1.0
C      1  0.5364780000000  0.5571830000000  0.5576250000000 1.0
C      1  0.4660890000000  0.5573760000000  0.5610680000000 1.0
C      1  0.4314850000000  0.5594530000000  0.5024410000000 1.0
C      1  0.4653400000000  0.5541570000000  0.4403920000000 1.0
C      1  0.4930580000000  0.4271000000000  0.5759820000000 1.0
C      1  0.4303430000000  0.4258300000000  0.5301520000000 1.0
C      1  0.4369040000000  0.4249000000000  0.4564370000000 1.0
C      1  0.5090710000000  0.4273070000000  0.4238500000000 1.0
C      1  0.5664870000000  0.4250560000000  0.4679130000000 1.0
C      1  0.5624360000000  0.4297050000000  0.5387010000000 1.0
C      1  0.5108200000000  0.5852070000000  0.4699680000000 1.0
C      1  0.5311960000000  0.5835130000000  0.4939070000000 1.0
C      1  0.5200350000000  0.5841800000000  0.5241120000000 1.0
C      1  0.4884760000000  0.5848100000000  0.5285080000000 1.0
C      1  0.4684500000000  0.5836850000000  0.5056730000000 1.0
C      1  0.4800010000000  0.5838460000000  0.4760070000000 1.0
C      1  0.4368850000000  0.4667420000000  0.4185670000000 1.0
C      1  0.5442850000000  0.4731010000000  0.4068280000000 1.0
C      1  0.6015390000000  0.4673380000000  0.4856110000000 1.0
C      1  0.5577340000000  0.4716470000000  0.5818470000000 1.0
C      1  0.4578710000000  0.4727530000000  0.5928380000000 1.0
C      1  0.4003720000000  0.4724960000000  0.5087060000000 1.0
C      1  0.3999070000000  0.4955960000000  0.5263820000000 1.0
C      1  0.4269610000000  0.4928730000000  0.4263630000000 1.0
C      1  0.5296330000000  0.4964800000000  0.3985880000000 1.0
C      1  0.6001340000000  0.4934420000000  0.4737530000000 1.0
C      1  0.5730920000000  0.4957070000000  0.5758500000000 1.0
C      1  0.4730380000000  0.4958590000000  0.6008390000000 1.0
C      1  0.5243250000000  0.4868150000000  0.5042260000000 1.0
C      1  0.5023900000000  0.4935910000000  0.5358780000000 1.0
C      1  0.4757400000000  0.4921520000000  0.5098400000000 1.0
C      1  0.4742270000000  0.4908410000000  0.4833300000000 1.0
C      1  0.4982590000000  0.4903340000000  0.4697050000000 1.0
C      1  0.5228130000000  0.4873660000000  0.4796800000000 1.0
C      1  0.5328930000000  0.4643730000000  0.4662900000000 1.0
C      1  0.5432220000000  0.4661570000000  0.5117810000000 1.0
C      1  0.5111240000000  0.4683750000000  0.5448530000000 1.0
C      1  0.4686200000000  0.4687560000000  0.5303080000000 1.0
C      1  0.4571180000000  0.4667570000000  0.4865510000000 1.0
C      1  0.4891280000000  0.4665090000000  0.4545000000000 1.0
C      1  0.4328470000000  0.4763420000000  0.5738930000000 1.0
C      1  0.4032300000000  0.4752600000000  0.4781800000000 1.0
C      1  0.4790620000000  0.4749660000000  0.4024790000000 1.0
C      1  0.5685040000000  0.4762460000000  0.4261190000000 1.0
C      1  0.5954550000000  0.4772440000000  0.5318330000000 1.0
C      1  0.5296360000000  0.4751920000000  0.5955060000000 1.0
C      1  0.4104010000000  0.4486670000000  0.4768450000000 1.0
C      1  0.4652110000000  0.4544640000000  0.4122270000000 1.0
C      1  0.5646500000000  0.4498320000000  0.4328250000000 1.0
C      1  0.5962250000000  0.4553130000000  0.5145330000000 1.0
C      1  0.5250930000000  0.4485730000000  0.5903620000000 1.0
C      1  0.4365310000000  0.4507370000000  0.5664220000000 1.0
C      1  0.5391960000000  0.5904240000000  0.5477240000000 1.0
C      1  0.4694220000000  0.5910290000000  0.5541650000000 1.0
C      1  0.4384110000000  0.5901610000000  0.5103080000000 1.0
C      1  0.4625820000000  0.5916360000000  0.4520130000000 1.0
C      1  0.5192540000000  0.5912510000000  0.4412350000000 1.0
C      1  0.5620600000000  0.5896490000000  0.4910380000000 1.0
C      1  0.4403410000000  0.4990820000000  0.5387940000000 1.0
C      1  0.4365180000000  0.4970730000000  0.4679280000000 1.0
C      1  0.4951610000000  0.5004040000000  0.4288460000000 1.0
C      1  0.5591630000000  0.4976250000000  0.4621620000000 1.0
C      1  0.5606280000000  0.4990450000000  0.5322430000000 1.0
C      1  0.5031640000000  0.4967250000000  0.5730700000000 1.0
C      1  0.4117280000000  0.4987380000000  0.4539810000000 1.0
C      1  0.4981730000000  0.5002970000000  0.3983290000000 1.0
C      1  0.5837700000000  0.4993760000000  0.4460910000000 1.0
C      1  0.5905270000000  0.5012260000000  0.5494590000000 1.0
C      1  0.5051220000000  0.4989910000000  0.6002510000000 1.0
C      1  0.4160960000000  0.4992870000000  0.5539460000000 1.0
C      1  0.4442880000000  0.5157130000000  0.4217910000000 1.0
C      1  0.5398070000000  0.5191500000000  0.4126730000000 1.0
C      1  0.5957480000000  0.5168270000000  0.4900370000000 1.0
C      1  0.5564910000000  0.5183870000000  0.5786950000000 1.0
C      1  0.4606610000000  0.5181350000000  0.5877360000000 1.0
C      1  0.4046340000000  0.5186140000000  0.5101850000000 1.0
C      1  0.4895570000000  0.4715640000000  0.5633880000000 1.0
C      1  0.4410300000000  0.4701680000000  0.5220150000000 1.0
C      1  0.4497310000000  0.4703520000000  0.4600680000000 1.0
C      1  0.5135420000000  0.4694900000000  0.4375070000000 1.0
C      1  0.5587150000000  0.4703500000000  0.4752380000000 1.0
C      1  0.5485270000000  0.4716150000000  0.5400670000000 1.0
C      1  0.5540180000000  0.5391720000000  0.4500990000000 1.0
C      1  0.5697370000000  0.5392750000000  0.5219820000000 1.0
C      1  0.5165130000000  0.5389730000000  0.5727800000000 1.0
C      1  0.4459950000000  0.5397370000000  0.5495310000000 1.0
C      1  0.4295210000000  0.5387420000000  0.4780200000000 1.0
C      1  0.4857290000000  0.5418160000000  0.4261880000000 1.0
C      1  0.4090970000000  0.5278370000000  0.4603940000000 1.0
C      1  0.4883660000000  0.5290060000000  0.4015140000000 1.0
C      1  0.5792580000000  0.5280630000000  0.4407030000000 1.0
C      1  0.5910880000000  0.5297940000000  0.5388660000000 1.0
C      1  0.5124660000000  0.5279230000000  0.5989710000000 1.0
C      1  0.4201060000000  0.5281870000000  0.5598440000000 1.0
C      1  0.5230490000000  0.4524410000000  0.4160800000000 1.0
C      1  0.5791580000000  0.4502480000000  0.4771890000000 1.0
C      1  0.5613600000000  0.4532610000000  0.5583150000000 1.0
C      1  0.4793230000000  0.4526490000000  0.5827950000000 1.0
C      1  0.4185010000000  0.4519940000000  0.5232130000000 1.0
C      1  0.4359160000000  0.4514290000000  0.4432150000000 1.0
C      1  0.5018960000000  0.4960450000000  0.5128550000000 1.0
END
