TITL C-2441166-8118-1409 0.163516538920493 125000 -23734.9273788791 0 0 186 (C1) n - 1
REM
REM in /home/bkarasulu/work/CARBON/AIRSS/Generating-Clusters/ReaxFF-fromJPCA2015/Units_Real/with-SteepDescent/Higher-Symm
REM
REM
REM
REM
REM
REM ./C.cell (1df0a924f5614ab8850e4351716899ee)
REM
REM compiler GCC version 9.2.1 20190827 (Red Hat 9.2.1-1)
REM options -cpp -mtune=generic -march=x86-64 -g -O0 -fpre-include=/usr/include/finclude/math-vector-fortran.h
REM seed 1155397775 660288530 771985501 -1578239912 -1175862036 -53420403 -1504319278 -737104407 -201349576 -872430850 -89176429 -1867167153 838021418 -36512357 -177089692 2118146940 1397404873 -868151885 123182694 2044422714 -849143853 340648092 1060758342 -1821625603 -1869545607 -1056218617 -478777904 483869717 1193187008 1728186277 1756694510 -1336291809 -34907919
REM
CELL 1.54180   50.00000   50.00000   50.00000   90.00000   90.00000   90.00000
LATT -1
SFAC C  
C      1  0.4877720000000  0.4725900000000  0.4067790000000 1.0
C      1  0.5499090000000  0.5963860000000  0.5116920000000 1.0
C      1  0.4194230000000  0.4797330000000  0.5476900000000 1.0
C      1  0.4534960000000  0.4958360000000  0.6011460000000 1.0
C      1  0.4129160000000  0.4626160000000  0.4372980000000 1.0
C      1  0.4893650000000  0.4944340000000  0.4919560000000 1.0
C      1  0.4418740000000  0.5474600000000  0.5264790000000 1.0
C      1  0.4635000000000  0.4118970000000  0.5412350000000 1.0
C      1  0.4005080000000  0.5163610000000  0.5429710000000 1.0
C      1  0.5718580000000  0.4192640000000  0.5065320000000 1.0
C      1  0.5290130000000  0.4592000000000  0.5831010000000 1.0
C      1  0.5500420000000  0.5270980000000  0.4338360000000 1.0
C      1  0.5053440000000  0.4896910000000  0.5147210000000 1.0
C      1  0.5415980000000  0.4910260000000  0.4568630000000 1.0
C      1  0.4304490000000  0.4237160000000  0.4650820000000 1.0
C      1  0.4395850000000  0.4707270000000  0.5921860000000 1.0
C      1  0.5178010000000  0.4754070000000  0.4626600000000 1.0
C      1  0.4959170000000  0.4122520000000  0.4908420000000 1.0
C      1  0.4541030000000  0.5309910000000  0.4748100000000 1.0
C      1  0.4637870000000  0.5924120000000  0.4650440000000 1.0
C      1  0.4254530000000  0.5326430000000  0.4350640000000 1.0
C      1  0.4763970000000  0.5474110000000  0.4036900000000 1.0
C      1  0.4613620000000  0.5784460000000  0.5668910000000 1.0
C      1  0.4454940000000  0.4366410000000  0.5442450000000 1.0
C      1  0.4532440000000  0.4089950000000  0.4694940000000 1.0
C      1  0.4357560000000  0.5137340000000  0.5859140000000 1.0
C      1  0.5908300000000  0.4428830000000  0.4690140000000 1.0
C      1  0.5220310000000  0.5959820000000  0.5211540000000 1.0
C      1  0.4701890000000  0.4996730000000  0.5418210000000 1.0
C      1  0.5719110000000  0.4756300000000  0.4254220000000 1.0
C      1  0.5302340000000  0.5886190000000  0.4373730000000 1.0
C      1  0.5008150000000  0.4430250000000  0.5020100000000 1.0
C      1  0.4337180000000  0.5609300000000  0.4383190000000 1.0
C      1  0.4563440000000  0.4554140000000  0.5192390000000 1.0
C      1  0.5235140000000  0.5477890000000  0.4529000000000 1.0
C      1  0.5785830000000  0.5291510000000  0.4206670000000 1.0
C      1  0.5420780000000  0.4676200000000  0.5007860000000 1.0
C      1  0.4936900000000  0.5397540000000  0.5316350000000 1.0
C      1  0.4394720000000  0.5170070000000  0.4141270000000 1.0
C      1  0.5083590000000  0.5413890000000  0.6042470000000 1.0
C      1  0.5771420000000  0.5579270000000  0.4626410000000 1.0
C      1  0.4032290000000  0.4789750000000  0.4606390000000 1.0
C      1  0.5074070000000  0.4546380000000  0.4469190000000 1.0
C      1  0.5917530000000  0.5081240000000  0.5601430000000 1.0
C      1  0.4748980000000  0.4470260000000  0.4109350000000 1.0
C      1  0.4705290000000  0.4275140000000  0.5829940000000 1.0
C      1  0.4758410000000  0.5261480000000  0.5520010000000 1.0
C      1  0.4964730000000  0.4262110000000  0.4101040000000 1.0
C      1  0.4205210000000  0.5014860000000  0.5273770000000 1.0
C      1  0.5945710000000  0.5180440000000  0.4421920000000 1.0
C      1  0.4860290000000  0.5116140000000  0.4471330000000 1.0
C      1  0.5463600000000  0.4939750000000  0.5173810000000 1.0
C      1  0.5158640000000  0.4728530000000  0.4070960000000 1.0
C      1  0.5676890000000  0.5809450000000  0.5264260000000 1.0
C      1  0.4797740000000  0.4660290000000  0.5782610000000 1.0
C      1  0.5568210000000  0.5669510000000  0.5490980000000 1.0
C      1  0.4393190000000  0.5745460000000  0.4638720000000 1.0
C      1  0.4789360000000  0.4905060000000  0.5906110000000 1.0
C      1  0.6044590000000  0.5485280000000  0.5222520000000 1.0
C      1  0.5506020000000  0.4894390000000  0.5984700000000 1.0
C      1  0.4834880000000  0.5442260000000  0.5874300000000 1.0
C      1  0.4502590000000  0.4481070000000  0.5760770000000 1.0
C      1  0.5733010000000  0.4880080000000  0.5246400000000 1.0
C      1  0.4486220000000  0.5365530000000  0.5517670000000 1.0
C      1  0.5532210000000  0.5171940000000  0.4601000000000 1.0
C      1  0.5293290000000  0.5445170000000  0.4026930000000 1.0
C      1  0.4580750000000  0.5576600000000  0.4231210000000 1.0
C      1  0.5116110000000  0.3962400000000  0.4738620000000 1.0
C      1  0.5340380000000  0.5367160000000  0.5887940000000 1.0
C      1  0.4284780000000  0.4383380000000  0.4415770000000 1.0
C      1  0.4158310000000  0.4327130000000  0.5381170000000 1.0
C      1  0.5404970000000  0.5564440000000  0.4277690000000 1.0
C      1  0.4439820000000  0.5554890000000  0.5731150000000 1.0
C      1  0.5400320000000  0.5447150000000  0.5398900000000 1.0
C      1  0.5908870000000  0.5109650000000  0.4878350000000 1.0
C      1  0.4797500000000  0.4898280000000  0.4653520000000 1.0
C      1  0.5512440000000  0.5890390000000  0.4829970000000 1.0
C      1  0.5923550000000  0.4566600000000  0.5270440000000 1.0
C      1  0.5267530000000  0.4533320000000  0.4233350000000 1.0
C      1  0.4174540000000  0.5655720000000  0.4836460000000 1.0
C      1  0.5026310000000  0.3955790000000  0.5134110000000 1.0
C      1  0.5135700000000  0.5188310000000  0.4847590000000 1.0
C      1  0.4316750000000  0.5749140000000  0.5333900000000 1.0
C      1  0.4843670000000  0.4157090000000  0.5601380000000 1.0
C      1  0.3967250000000  0.5419310000000  0.5276000000000 1.0
C      1  0.5632400000000  0.5195860000000  0.3983790000000 1.0
C      1  0.4737890000000  0.4188520000000  0.4516360000000 1.0
C      1  0.5052080000000  0.4708130000000  0.5364810000000 1.0
C      1  0.4365900000000  0.5801880000000  0.5050210000000 1.0
C      1  0.5028120000000  0.5147190000000  0.6114440000000 1.0
C      1  0.5175380000000  0.4336230000000  0.5870330000000 1.0
C      1  0.4464250000000  0.4452520000000  0.4186230000000 1.0
C      1  0.5130790000000  0.5192430000000  0.4559660000000 1.0
C      1  0.5788100000000  0.4404810000000  0.4924720000000 1.0
C      1  0.5073200000000  0.5853500000000  0.5586980000000 1.0
C      1  0.5030780000000  0.5596130000000  0.4062130000000 1.0
C      1  0.5034460000000  0.5838360000000  0.4230950000000 1.0
C      1  0.4652090000000  0.5208050000000  0.4012070000000 1.0
C      1  0.5298380000000  0.4024280000000  0.5218640000000 1.0
C      1  0.5545660000000  0.4675740000000  0.5782900000000 1.0
C      1  0.4773730000000  0.4495670000000  0.5110810000000 1.0
C      1  0.5286170000000  0.5268380000000  0.5607220000000 1.0
C      1  0.4286810000000  0.4930920000000  0.4653170000000 1.0
C      1  0.4031060000000  0.4602750000000  0.4837020000000 1.0
C      1  0.5989730000000  0.4601410000000  0.4928340000000 1.0
C      1  0.5294590000000  0.5024490000000  0.5444320000000 1.0
C      1  0.5786570000000  0.5269830000000  0.5802530000000 1.0
C      1  0.5407870000000  0.5149650000000  0.4971500000000 1.0
C      1  0.4222150000000  0.4225710000000  0.5134960000000 1.0
C      1  0.5157760000000  0.5483590000000  0.4936430000000 1.0
C      1  0.5649380000000  0.4250510000000  0.5538770000000 1.0
C      1  0.4616530000000  0.4690600000000  0.4575740000000 1.0
C      1  0.4816670000000  0.5873540000000  0.5186240000000 1.0
C      1  0.4795120000000  0.5879350000000  0.4404120000000 1.0
C      1  0.4735840000000  0.3964950000000  0.5190910000000 1.0
C      1  0.5610720000000  0.4911140000000  0.4024620000000 1.0
C      1  0.4722490000000  0.5464300000000  0.5105630000000 1.0
C      1  0.4030680000000  0.4595360000000  0.5347010000000 1.0
C      1  0.5379150000000  0.4086580000000  0.4713970000000 1.0
C      1  0.5678920000000  0.4525140000000  0.4568270000000 1.0
C      1  0.3999270000000  0.5167020000000  0.4811770000000 1.0
C      1  0.5558060000000  0.4479580000000  0.4321540000000 1.0
C      1  0.5515820000000  0.6010210000000  0.4567000000000 1.0
C      1  0.5466350000000  0.4091000000000  0.4995540000000 1.0
C      1  0.4022240000000  0.4998920000000  0.5038650000000 1.0
C      1  0.5132070000000  0.5889130000000  0.4634950000000 1.0
C      1  0.5379830000000  0.5401040000000  0.5109990000000 1.0
C      1  0.4644120000000  0.5732690000000  0.4991200000000 1.0
C      1  0.4059740000000  0.5411220000000  0.4700110000000 1.0
C      1  0.5819110000000  0.5627150000000  0.5106590000000 1.0
C      1  0.4221820000000  0.4866230000000  0.5763700000000 1.0
C      1  0.5691150000000  0.5508480000000  0.5685530000000 1.0
C      1  0.3954740000000  0.4714340000000  0.5087190000000 1.0
C      1  0.5081310000000  0.5716020000000  0.5329350000000 1.0
C      1  0.5600680000000  0.4740780000000  0.4724470000000 1.0
C      1  0.4112820000000  0.5317200000000  0.5650200000000 1.0
C      1  0.5277030000000  0.5179560000000  0.4149620000000 1.0
C      1  0.5055210000000  0.5027620000000  0.5855840000000 1.0
C      1  0.4151420000000  0.4321360000000  0.4883250000000 1.0
C      1  0.5396540000000  0.4218390000000  0.4462390000000 1.0
C      1  0.5391350000000  0.4109710000000  0.5482980000000 1.0
C      1  0.5420660000000  0.4489950000000  0.5260140000000 1.0
C      1  0.4366140000000  0.5178440000000  0.4577820000000 1.0
C      1  0.5740180000000  0.4484780000000  0.5682760000000 1.0
C      1  0.5144410000000  0.4158690000000  0.5635730000000 1.0
C      1  0.5871620000000  0.4862460000000  0.4753580000000 1.0
C      1  0.5516910000000  0.5454930000000  0.4677920000000 1.0
C      1  0.5920530000000  0.4679490000000  0.5545720000000 1.0
C      1  0.4640360000000  0.5970920000000  0.5440550000000 1.0
C      1  0.4998060000000  0.6062530000000  0.5043480000000 1.0
C      1  0.5247180000000  0.5744520000000  0.4842320000000 1.0
C      1  0.4545310000000  0.5357450000000  0.5921540000000 1.0
C      1  0.4871770000000  0.5709300000000  0.5758850000000 1.0
C      1  0.4819690000000  0.4758990000000  0.5513880000000 1.0
C      1  0.4889870000000  0.6094810000000  0.5541830000000 1.0
C      1  0.5315030000000  0.4938190000000  0.3989440000000 1.0
C      1  0.5742670000000  0.4891480000000  0.5520050000000 1.0
C      1  0.4803360000000  0.4465360000000  0.4531550000000 1.0
C      1  0.4179000000000  0.5419810000000  0.5076550000000 1.0
C      1  0.4493400000000  0.4916050000000  0.4254640000000 1.0
C      1  0.5554450000000  0.5181600000000  0.5970630000000 1.0
C      1  0.4912170000000  0.6023870000000  0.4767410000000 1.0
C      1  0.4677360000000  0.4061060000000  0.4931590000000 1.0
C      1  0.5150860000000  0.4422390000000  0.5333550000000 1.0
C      1  0.4765810000000  0.4980710000000  0.4163070000000 1.0
C      1  0.5995080000000  0.5232260000000  0.5359300000000 1.0
C      1  0.5802740000000  0.4303320000000  0.5303710000000 1.0
C      1  0.6037930000000  0.5538060000000  0.4934180000000 1.0
C      1  0.5896850000000  0.5078680000000  0.5148080000000 1.0
C      1  0.4602820000000  0.5238080000000  0.5002820000000 1.0
C      1  0.4771950000000  0.5370620000000  0.4598870000000 1.0
C      1  0.5226570000000  0.4817770000000  0.5990370000000 1.0
C      1  0.4914990000000  0.4426850000000  0.5942930000000 1.0
C      1  0.5985270000000  0.5332300000000  0.4709880000000 1.0
C      1  0.4313580000000  0.4702980000000  0.4153480000000 1.0
C      1  0.5185100000000  0.4603390000000  0.4857870000000 1.0
C      1  0.4457250000000  0.4785800000000  0.5069040000000 1.0
C      1  0.5156740000000  0.4138260000000  0.4340290000000 1.0
C      1  0.4635660000000  0.4998870000000  0.5127790000000 1.0
C      1  0.5211780000000  0.4316580000000  0.3972080000000 1.0
C      1  0.4787900000000  0.5591570000000  0.4426320000000 1.0
C      1  0.4110360000000  0.5566950000000  0.5493860000000 1.0
C      1  0.4422910000000  0.4728700000000  0.4793330000000 1.0
C      1  0.4965410000000  0.4010110000000  0.4503370000000 1.0
C      1  0.5088490000000  0.5136850000000  0.5280540000000 1.0
C      1  0.5890450000000  0.4903160000000  0.4440250000000 1.0
END
