TITL C-2441157-2117-1456 0.0259580073798374 125000 -10678.7168643578 0 0 77 (C1) n - 1
REM
REM in /home/bkarasulu/work/CARBON/AIRSS/Generating-Clusters/ReaxFF-fromJPCA2015/Units_Real/with-SteepDescent/Higher-Symm
REM
REM
REM
REM
REM
REM ./C.cell (1df0a924f5614ab8850e4351716899ee)
REM
REM compiler GCC version 9.2.1 20190827 (Red Hat 9.2.1-1)
REM options -cpp -mtune=generic -march=x86-64 -g -O0 -fpre-include=/usr/include/finclude/math-vector-fortran.h
REM seed 1001708574 -487088545 2033750537 154304117 1392860660 437478588 1952405211 990519707 2030515732 -682441696 -1641587575 -257565727 547496227 -690423196 821060588 -670317723 1094446358 1927823135 461679230 1860365086 -1736708054 -483705188 -1345309161 626901815 2049555760 -1398212261 1112148121 1339439781 1698154464 -1661260411 -990448498 1127559096 65062234
REM
CELL 1.54180   50.00000   50.00000   50.00000   90.00000   90.00000   90.00000
LATT -1
SFAC C  
C      1  0.4590080000000  0.4773740000000  0.5437520000000 1.0
C      1  0.4739490000000  0.5175770000000  0.5344580000000 1.0
C      1  0.4667150000000  0.5315390000000  0.4914800000000 1.0
C      1  0.4548590000000  0.4981820000000  0.4576170000000 1.0
C      1  0.4622760000000  0.4579320000000  0.4960400000000 1.0
C      1  0.5251390000000  0.4741560000000  0.5269910000000 1.0
C      1  0.5372470000000  0.5340150000000  0.5336410000000 1.0
C      1  0.5239860000000  0.5352570000000  0.4914760000000 1.0
C      1  0.5219460000000  0.4999760000000  0.4579060000000 1.0
C      1  0.5345540000000  0.4544170000000  0.4907460000000 1.0
C      1  0.5257870000000  0.4674450000000  0.4309340000000 1.0
C      1  0.5153060000000  0.4207270000000  0.5025030000000 1.0
C      1  0.5186620000000  0.4888340000000  0.5710510000000 1.0
C      1  0.5206520000000  0.5717660000000  0.5384100000000 1.0
C      1  0.5240410000000  0.5622680000000  0.4577200000000 1.0
C      1  0.4836870000000  0.4624400000000  0.4383040000000 1.0
C      1  0.4769550000000  0.4201830000000  0.5049950000000 1.0
C      1  0.4765530000000  0.4840010000000  0.5809950000000 1.0
C      1  0.4777490000000  0.5615490000000  0.5327240000000 1.0
C      1  0.4754940000000  0.5531930000000  0.4500070000000 1.0
C      1  0.5428820000000  0.5161480000000  0.4454620000000 1.0
C      1  0.5527100000000  0.4514290000000  0.4683660000000 1.0
C      1  0.5458660000000  0.4536050000000  0.5320170000000 1.0
C      1  0.5488010000000  0.5238450000000  0.5590910000000 1.0
C      1  0.5452000000000  0.5563060000000  0.4923260000000 1.0
C      1  0.4409110000000  0.5177040000000  0.4404520000000 1.0
C      1  0.4476150000000  0.4535200000000  0.4712890000000 1.0
C      1  0.4469280000000  0.4525200000000  0.5376180000000 1.0
C      1  0.4524270000000  0.5222520000000  0.5522440000000 1.0
C      1  0.4493840000000  0.5560230000000  0.5001100000000 1.0
C      1  0.4830870000000  0.4906010000000  0.5306080000000 1.0
C      1  0.4870270000000  0.5351060000000  0.5181510000000 1.0
C      1  0.4818240000000  0.5293640000000  0.4658450000000 1.0
C      1  0.4939840000000  0.4552690000000  0.4650660000000 1.0
C      1  0.4852190000000  0.4752680000000  0.5022550000000 1.0
C      1  0.5104750000000  0.4902360000000  0.5437610000000 1.0
C      1  0.5151090000000  0.5270130000000  0.5166500000000 1.0
C      1  0.5092860000000  0.5221420000000  0.4705070000000 1.0
C      1  0.5170700000000  0.4719270000000  0.4593740000000 1.0
C      1  0.5134610000000  0.4726230000000  0.5005040000000 1.0
C      1  0.5704550000000  0.4885630000000  0.5526730000000 1.0
C      1  0.5788870000000  0.5252550000000  0.5190530000000 1.0
C      1  0.5813000000000  0.5229580000000  0.4778230000000 1.0
C      1  0.5747610000000  0.4823320000000  0.4519640000000 1.0
C      1  0.5804650000000  0.4765000000000  0.5041120000000 1.0
C      1  0.4164810000000  0.4918620000000  0.5344530000000 1.0
C      1  0.4162350000000  0.5384500000000  0.5247840000000 1.0
C      1  0.4204570000000  0.5216450000000  0.4838060000000 1.0
C      1  0.4109890000000  0.4853050000000  0.4646300000000 1.0
C      1  0.4129110000000  0.4679420000000  0.5022060000000 1.0
C      1  0.4528100000000  0.5429730000000  0.4410810000000 1.0
C      1  0.4566230000000  0.4696450000000  0.4490560000000 1.0
C      1  0.4557150000000  0.4351620000000  0.5160680000000 1.0
C      1  0.4533840000000  0.4960690000000  0.5657970000000 1.0
C      1  0.4500240000000  0.5573060000000  0.5285050000000 1.0
C      1  0.5422990000000  0.5429560000000  0.4538640000000 1.0
C      1  0.5534340000000  0.4646860000000  0.4423530000000 1.0
C      1  0.5395090000000  0.4333460000000  0.5115460000000 1.0
C      1  0.5472560000000  0.4962600000000  0.5697310000000 1.0
C      1  0.5429480000000  0.5608600000000  0.5222350000000 1.0
C      1  0.5709440000000  0.5119330000000  0.4526440000000 1.0
C      1  0.5766320000000  0.4660340000000  0.4768710000000 1.0
C      1  0.5706390000000  0.4685400000000  0.5308680000000 1.0
C      1  0.5741720000000  0.5171820000000  0.5461370000000 1.0
C      1  0.5721010000000  0.5439270000000  0.4968860000000 1.0
C      1  0.4143580000000  0.5121620000000  0.4560790000000 1.0
C      1  0.4178240000000  0.4594380000000  0.4753530000000 1.0
C      1  0.4189970000000  0.4640790000000  0.5299940000000 1.0
C      1  0.4223670000000  0.5182260000000  0.5442830000000 1.0
C      1  0.4205480000000  0.5487020000000  0.4988900000000 1.0
C      1  0.4989930000000  0.5746530000000  0.4570680000000 1.0
C      1  0.5010590000000  0.4811370000000  0.4212050000000 1.0
C      1  0.5001070000000  0.4661200000000  0.5810720000000 1.0
C      1  0.4969310000000  0.5664280000000  0.5559520000000 1.0
C      1  0.4948200000000  0.4288460000000  0.4846430000000 1.0
C      1  0.4468960000000  0.5094130000000  0.4837600000000 1.0
C      1  0.5847100000000  0.5046310000000  0.5007160000000 1.0
END
