TITL C-2441166-8118-1211 0.0735191896792413 125000 -25498.1945928507 0 0 182 (C1) n - 1
REM
REM in /home/bkarasulu/work/CARBON/AIRSS/Generating-Clusters/ReaxFF-fromJPCA2015/Units_Real/with-SteepDescent/Higher-Symm
REM
REM
REM
REM
REM
REM ./C.cell (1df0a924f5614ab8850e4351716899ee)
REM
REM compiler GCC version 9.2.1 20190827 (Red Hat 9.2.1-1)
REM options -cpp -mtune=generic -march=x86-64 -g -O0 -fpre-include=/usr/include/finclude/math-vector-fortran.h
REM seed -1572894783 -406708834 81786273 1884917170 -1584490780 267026957 -291323244 1307015571 -1980348984 -1190717993 -787548110 1463745302 -806667873 -822707249 -1915050723 1112383539 -317888698 -40822268 843209003 1350466371 472107165 -237310805 162255546 -740618667 -503537922 1641438039 2060059124 -1147903603 -864376669 -24471569 1664094693 1516747225 -627870099
REM
CELL 1.54180   50.00000   50.00000   50.00000   90.00000   90.00000   90.00000
LATT -1
SFAC C  
C      1  0.4588670000000  0.6177580000000  0.4821800000000 1.0
C      1  0.5227950000000  0.5998590000000  0.4797660000000 1.0
C      1  0.5103280000000  0.6061530000000  0.5380040000000 1.0
C      1  0.5356050000000  0.4022000000000  0.4892260000000 1.0
C      1  0.4654590000000  0.3881570000000  0.4728410000000 1.0
C      1  0.4946210000000  0.3918330000000  0.5366050000000 1.0
C      1  0.5625680000000  0.4102840000000  0.4945380000000 1.0
C      1  0.4752150000000  0.4041530000000  0.5539430000000 1.0
C      1  0.4611270000000  0.4019420000000  0.4462950000000 1.0
C      1  0.4378220000000  0.6024780000000  0.4963510000000 1.0
C      1  0.5376680000000  0.6064110000000  0.5516840000000 1.0
C      1  0.5336560000000  0.5921620000000  0.4545170000000 1.0
C      1  0.5044840000000  0.4628270000000  0.6030050000000 1.0
C      1  0.4098390000000  0.4598160000000  0.4504500000000 1.0
C      1  0.5896480000000  0.4573870000000  0.4443740000000 1.0
C      1  0.4969960000000  0.5414160000000  0.5991790000000 1.0
C      1  0.5885590000000  0.5394680000000  0.4520220000000 1.0
C      1  0.4154000000000  0.5533070000000  0.4564700000000 1.0
C      1  0.4033560000000  0.4874560000000  0.4536230000000 1.0
C      1  0.5846910000000  0.4870840000000  0.4403520000000 1.0
C      1  0.5088330000000  0.4902840000000  0.6096580000000 1.0
C      1  0.5969890000000  0.5114770000000  0.4540650000000 1.0
C      1  0.4210930000000  0.5086270000000  0.4428790000000 1.0
C      1  0.4902870000000  0.5128290000000  0.6080290000000 1.0
C      1  0.4833500000000  0.5538790000000  0.4445270000000 1.0
C      1  0.5595250000000  0.5471180000000  0.5128420000000 1.0
C      1  0.4603210000000  0.5443180000000  0.5435820000000 1.0
C      1  0.5172000000000  0.4602680000000  0.4342740000000 1.0
C      1  0.4327850000000  0.4591910000000  0.5139750000000 1.0
C      1  0.5415950000000  0.4560040000000  0.5494480000000 1.0
C      1  0.5665710000000  0.4467450000000  0.4304960000000 1.0
C      1  0.5305940000000  0.4520860000000  0.5946480000000 1.0
C      1  0.4018700000000  0.4478010000000  0.4773620000000 1.0
C      1  0.4306830000000  0.5516220000000  0.4306420000000 1.0
C      1  0.4718270000000  0.5556630000000  0.5897560000000 1.0
C      1  0.5972600000000  0.5506140000000  0.4819070000000 1.0
C      1  0.5324050000000  0.4034610000000  0.4615100000000 1.0
C      1  0.5213970000000  0.3974800000000  0.5459940000000 1.0
C      1  0.4468040000000  0.3963820000000  0.4943160000000 1.0
C      1  0.4706650000000  0.6063490000000  0.4569710000000 1.0
C      1  0.4822900000000  0.6011760000000  0.5451610000000 1.0
C      1  0.5436280000000  0.5975790000000  0.4990350000000 1.0
C      1  0.4633250000000  0.5083430000000  0.5999900000000 1.0
C      1  0.4299270000000  0.5049820000000  0.4156090000000 1.0
C      1  0.6059630000000  0.5045070000000  0.4802360000000 1.0
C      1  0.5372440000000  0.4969160000000  0.6029020000000 1.0
C      1  0.5691590000000  0.4914990000000  0.4143870000000 1.0
C      1  0.3917790000000  0.4930820000000  0.4801340000000 1.0
C      1  0.4745820000000  0.5345430000000  0.4972000000000 1.0
C      1  0.5138900000000  0.5340330000000  0.4760670000000 1.0
C      1  0.5122040000000  0.5354450000000  0.5224850000000 1.0
C      1  0.5316780000000  0.4599870000000  0.4990160000000 1.0
C      1  0.4845370000000  0.4600540000000  0.4776900000000 1.0
C      1  0.4871850000000  0.4608390000000  0.5269310000000 1.0
C      1  0.5140700000000  0.5098790000000  0.4092710000000 1.0
C      1  0.5711940000000  0.5068510000000  0.5574400000000 1.0
C      1  0.4148040000000  0.5070940000000  0.5317100000000 1.0
C      1  0.4845900000000  0.5066150000000  0.4106630000000 1.0
C      1  0.4315340000000  0.5055210000000  0.5543280000000 1.0
C      1  0.5850810000000  0.4962410000000  0.5334390000000 1.0
C      1  0.5178150000000  0.4198860000000  0.5071690000000 1.0
C      1  0.4888150000000  0.4053750000000  0.5105530000000 1.0
C      1  0.4888400000000  0.4011680000000  0.4811670000000 1.0
C      1  0.4740000000000  0.5821810000000  0.4963960000000 1.0
C      1  0.5137070000000  0.5776200000000  0.5322860000000 1.0
C      1  0.4996040000000  0.5816470000000  0.4830850000000 1.0
C      1  0.4294460000000  0.5125430000000  0.5070610000000 1.0
C      1  0.5275380000000  0.5155660000000  0.4341380000000 1.0
C      1  0.5419280000000  0.5146330000000  0.5535820000000 1.0
C      1  0.5673200000000  0.4866720000000  0.5106220000000 1.0
C      1  0.4713940000000  0.4893000000000  0.4307290000000 1.0
C      1  0.4548890000000  0.4880300000000  0.5526360000000 1.0
C      1  0.5728570000000  0.4795090000000  0.5761540000000 1.0
C      1  0.4058470000000  0.4748380000000  0.5231840000000 1.0
C      1  0.5255070000000  0.4752980000000  0.4089760000000 1.0
C      1  0.4296790000000  0.5271990000000  0.5720990000000 1.0
C      1  0.6022760000000  0.5208290000000  0.5251700000000 1.0
C      1  0.4688030000000  0.5289850000000  0.4015060000000 1.0
C      1  0.5043180000000  0.4629960000000  0.3894390000000 1.0
C      1  0.5869500000000  0.4589810000000  0.5658330000000 1.0
C      1  0.3981500000000  0.4594850000000  0.5498630000000 1.0
C      1  0.4891950000000  0.5476180000000  0.3885290000000 1.0
C      1  0.4065550000000  0.5448830000000  0.5615020000000 1.0
C      1  0.6041140000000  0.5426290000000  0.5459010000000 1.0
C      1  0.4525240000000  0.5690390000000  0.5556430000000 1.0
C      1  0.4570630000000  0.5637160000000  0.4334310000000 1.0
C      1  0.5802710000000  0.5659730000000  0.4990140000000 1.0
C      1  0.5375350000000  0.4355170000000  0.5713090000000 1.0
C      1  0.5272130000000  0.4323600000000  0.4307660000000 1.0
C      1  0.4170020000000  0.4348010000000  0.4981490000000 1.0
C      1  0.5049070000000  0.5354090000000  0.4493280000000 1.0
C      1  0.5384910000000  0.5349610000000  0.5311720000000 1.0
C      1  0.4521790000000  0.5361070000000  0.5157470000000 1.0
C      1  0.5019460000000  0.4709890000000  0.4563510000000 1.0
C      1  0.4578260000000  0.4693050000000  0.5278810000000 1.0
C      1  0.5485660000000  0.4648120000000  0.5224340000000 1.0
C      1  0.4546460000000  0.4428780000000  0.5848850000000 1.0
C      1  0.4494750000000  0.4382070000000  0.4216530000000 1.0
C      1  0.5940730000000  0.4398620000000  0.4961580000000 1.0
C      1  0.5477930000000  0.5664090000000  0.5907070000000 1.0
C      1  0.5511290000000  0.5573810000000  0.4150560000000 1.0
C      1  0.4080460000000  0.5581280000000  0.4970570000000 1.0
C      1  0.3927920000000  0.4692130000000  0.4966680000000 1.0
C      1  0.5550510000000  0.4664740000000  0.4120210000000 1.0
C      1  0.5514900000000  0.4729990000000  0.5954280000000 1.0
C      1  0.6079180000000  0.5286190000000  0.4975830000000 1.0
C      1  0.4400630000000  0.5321710000000  0.4108970000000 1.0
C      1  0.4518750000000  0.5352080000000  0.5905530000000 1.0
C      1  0.5308190000000  0.5444000000000  0.6012010000000 1.0
C      1  0.3985860000000  0.5426010000000  0.4781560000000 1.0
C      1  0.5724160000000  0.5404250000000  0.4217950000000 1.0
C      1  0.4736860000000  0.4604350000000  0.5967570000000 1.0
C      1  0.5980190000000  0.4575000000000  0.4744070000000 1.0
C      1  0.4298820000000  0.4573870000000  0.4283180000000 1.0
C      1  0.5564840000000  0.4786110000000  0.4583740000000 1.0
C      1  0.5170790000000  0.4690460000000  0.5602440000000 1.0
C      1  0.4389890000000  0.4665720000000  0.4853580000000 1.0
C      1  0.4434030000000  0.5217790000000  0.4580540000000 1.0
C      1  0.4804510000000  0.5306590000000  0.5590100000000 1.0
C      1  0.5575250000000  0.5336410000000  0.4868150000000 1.0
C      1  0.5050600000000  0.4097730000000  0.4590990000000 1.0
C      1  0.5375300000000  0.4156110000000  0.5297430000000 1.0
C      1  0.4598500000000  0.4121780000000  0.5144690000000 1.0
C      1  0.4919820000000  0.5824510000000  0.4524490000000 1.0
C      1  0.4672580000000  0.5894640000000  0.5224670000000 1.0
C      1  0.5412800000000  0.5764610000000  0.5204010000000 1.0
C      1  0.5518960000000  0.4558440000000  0.4752770000000 1.0
C      1  0.4939100000000  0.4520430000000  0.5551900000000 1.0
C      1  0.4567410000000  0.4504840000000  0.4695360000000 1.0
C      1  0.4385370000000  0.5468070000000  0.4731580000000 1.0
C      1  0.5065220000000  0.5406880000000  0.5687230000000 1.0
C      1  0.5603750000000  0.5476480000000  0.4609090000000 1.0
C      1  0.4246750000000  0.5578520000000  0.5178670000000 1.0
C      1  0.5243150000000  0.5646760000000  0.4153540000000 1.0
C      1  0.5635810000000  0.5618370000000  0.5656210000000 1.0
C      1  0.5874660000000  0.4397640000000  0.5234130000000 1.0
C      1  0.4777180000000  0.4375750000000  0.4209840000000 1.0
C      1  0.4432230000000  0.4363920000000  0.5594920000000 1.0
C      1  0.5636000000000  0.4294140000000  0.4714370000000 1.0
C      1  0.4900230000000  0.4260930000000  0.5680360000000 1.0
C      1  0.4457120000000  0.4250780000000  0.4588410000000 1.0
C      1  0.4502960000000  0.5760420000000  0.4795700000000 1.0
C      1  0.5042340000000  0.5677120000000  0.5580140000000 1.0
C      1  0.5567360000000  0.5770500000000  0.4601210000000 1.0
C      1  0.5348570000000  0.4943240000000  0.4528680000000 1.0
C      1  0.5227830000000  0.4923540000000  0.5469220000000 1.0
C      1  0.4458620000000  0.4918900000000  0.4933360000000 1.0
C      1  0.4680240000000  0.5081320000000  0.4538230000000 1.0
C      1  0.4784050000000  0.5055760000000  0.5479820000000 1.0
C      1  0.5507400000000  0.5077050000000  0.4960370000000 1.0
C      1  0.4515160000000  0.5866530000000  0.4512970000000 1.0
C      1  0.5670750000000  0.5878520000000  0.4850180000000 1.0
C      1  0.4780890000000  0.5806670000000  0.5683880000000 1.0
C      1  0.5520780000000  0.4194260000000  0.4443110000000 1.0
C      1  0.4275200000000  0.4140730000000  0.4814810000000 1.0
C      1  0.5174310000000  0.4147790000000  0.5693940000000 1.0
C      1  0.4059020000000  0.5381490000000  0.5332020000000 1.0
C      1  0.5152940000000  0.5396990000000  0.3998440000000 1.0
C      1  0.5794210000000  0.5367190000000  0.5616830000000 1.0
C      1  0.5921850000000  0.4645080000000  0.5406210000000 1.0
C      1  0.4789280000000  0.4602090000000  0.4028800000000 1.0
C      1  0.4202360000000  0.4500460000000  0.5647180000000 1.0
C      1  0.4737360000000  0.4859370000000  0.4940150000000 1.0
C      1  0.5190770000000  0.4856180000000  0.4750620000000 1.0
C      1  0.5061950000000  0.4867660000000  0.5253180000000 1.0
C      1  0.5241640000000  0.5101490000000  0.4883170000000 1.0
C      1  0.4797240000000  0.5110020000000  0.4810430000000 1.0
C      1  0.4945540000000  0.5121100000000  0.5259690000000 1.0
C      1  0.5557160000000  0.5167200000000  0.4180080000000 1.0
C      1  0.5383210000000  0.5206110000000  0.5862890000000 1.0
C      1  0.4035890000000  0.5176730000000  0.4899680000000 1.0
C      1  0.4466430000000  0.4801640000000  0.4161810000000 1.0
C      1  0.4593330000000  0.4834810000000  0.5857800000000 1.0
C      1  0.5934280000000  0.4806900000000  0.4912380000000 1.0
C      1  0.5556380000000  0.5838630000000  0.5465520000000 1.0
C      1  0.4408590000000  0.5800600000000  0.5311060000000 1.0
C      1  0.5157350000000  0.5840740000000  0.4356300000000 1.0
C      1  0.4509190000000  0.4127760000000  0.5413830000000 1.0
C      1  0.5657360000000  0.4184410000000  0.5226440000000 1.0
C      1  0.5008480000000  0.4209720000000  0.4323310000000 1.0
C      1  0.5005980000000  0.5490430000000  0.4981440000000 1.0
C      1  0.5044340000000  0.4474210000000  0.5017280000000 1.0
END
