TITL C-2441159-1093-1161 0.122976298136032 125000 -25479.8627121494 0 0 189 (C1) n - 1
REM
REM in /home/bkarasulu/work/CARBON/AIRSS/Generating-Clusters/ReaxFF-fromJPCA2015/Units_Real/with-SteepDescent/Higher-Symm
REM
REM
REM
REM
REM
REM ./C.cell (1df0a924f5614ab8850e4351716899ee)
REM
REM compiler GCC version 9.2.1 20190827 (Red Hat 9.2.1-1)
REM options -cpp -mtune=generic -march=x86-64 -g -O0 -fpre-include=/usr/include/finclude/math-vector-fortran.h
REM seed -1165529278 -1000462889 102694893 1823201825 860937803 -1909386708 -1381778864 456293167 1847763151 -144263635 1256452590 1359135278 2047040685 -865425759 -432175828 -1411904238 1387644399 309008771 1457254145 -500113723 -50290170 -1841179293 -1771481079 1126661167 280330028 664414028 162633785 -461018666 -794129223 1088295848 2098876661 1216019425 -1120292767
REM
CELL 1.54180   50.00000   50.00000   50.00000   90.00000   90.00000   90.00000
LATT -1
SFAC C  
C      1  0.4830810000000  0.5594210000000  0.4061440000000 1.0
C      1  0.4483380000000  0.4831680000000  0.3999690000000 1.0
C      1  0.4339200000000  0.5506690000000  0.5721010000000 1.0
C      1  0.4607370000000  0.4104290000000  0.5016630000000 1.0
C      1  0.4197290000000  0.4314310000000  0.4791650000000 1.0
C      1  0.5179460000000  0.5148360000000  0.4135240000000 1.0
C      1  0.5394830000000  0.5923760000000  0.5159370000000 1.0
C      1  0.5834450000000  0.5260280000000  0.5619370000000 1.0
C      1  0.5552960000000  0.4988770000000  0.4290620000000 1.0
C      1  0.5364220000000  0.5165970000000  0.4890490000000 1.0
C      1  0.4099570000000  0.5393330000000  0.5568310000000 1.0
C      1  0.4507180000000  0.5067000000000  0.5954940000000 1.0
C      1  0.4367430000000  0.5419070000000  0.4757610000000 1.0
C      1  0.5137940000000  0.6018410000000  0.4598090000000 1.0
C      1  0.5369850000000  0.5461080000000  0.5294250000000 1.0
C      1  0.5486330000000  0.4962370000000  0.4733770000000 1.0
C      1  0.3838400000000  0.4959800000000  0.5029020000000 1.0
C      1  0.5063210000000  0.4077730000000  0.5167530000000 1.0
C      1  0.5681200000000  0.5494380000000  0.5762940000000 1.0
C      1  0.4082810000000  0.5432410000000  0.4833210000000 1.0
C      1  0.5156870000000  0.4646480000000  0.4042600000000 1.0
C      1  0.5054350000000  0.5132800000000  0.5235850000000 1.0
C      1  0.4954900000000  0.6044530000000  0.5383970000000 1.0
C      1  0.5543380000000  0.4109950000000  0.5298770000000 1.0
C      1  0.4584930000000  0.5690910000000  0.5211460000000 1.0
C      1  0.4447770000000  0.4717210000000  0.4269030000000 1.0
C      1  0.5425450000000  0.4697600000000  0.4674840000000 1.0
C      1  0.4994640000000  0.4874880000000  0.5243050000000 1.0
C      1  0.5301740000000  0.5218480000000  0.5153410000000 1.0
C      1  0.5573120000000  0.5535580000000  0.4198360000000 1.0
C      1  0.5660550000000  0.4767720000000  0.4173480000000 1.0
C      1  0.5695740000000  0.5580270000000  0.5317730000000 1.0
C      1  0.4246950000000  0.4642930000000  0.5411130000000 1.0
C      1  0.5258700000000  0.4243350000000  0.5732910000000 1.0
C      1  0.4351100000000  0.4610000000000  0.5694250000000 1.0
C      1  0.5384770000000  0.3978260000000  0.4948300000000 1.0
C      1  0.5395690000000  0.4550900000000  0.4175670000000 1.0
C      1  0.4458330000000  0.4372610000000  0.4940280000000 1.0
C      1  0.5321370000000  0.4696660000000  0.5974500000000 1.0
C      1  0.5089690000000  0.5624020000000  0.4987220000000 1.0
C      1  0.5480880000000  0.5379770000000  0.5925440000000 1.0
C      1  0.4471480000000  0.5370260000000  0.5247210000000 1.0
C      1  0.5669620000000  0.4910790000000  0.5127040000000 1.0
C      1  0.5309280000000  0.4260990000000  0.4206730000000 1.0
C      1  0.5989250000000  0.5320590000000  0.4721770000000 1.0
C      1  0.5764690000000  0.5074350000000  0.4429950000000 1.0
C      1  0.4108940000000  0.5024170000000  0.4439270000000 1.0
C      1  0.4831490000000  0.4991040000000  0.4288370000000 1.0
C      1  0.5961890000000  0.4509060000000  0.5427420000000 1.0
C      1  0.4620430000000  0.5656100000000  0.4281550000000 1.0
C      1  0.6011310000000  0.5031930000000  0.4773350000000 1.0
C      1  0.4241950000000  0.4874920000000  0.4902180000000 1.0
C      1  0.5597270000000  0.4652900000000  0.5595230000000 1.0
C      1  0.5438320000000  0.5915530000000  0.5486920000000 1.0
C      1  0.4533340000000  0.5340980000000  0.5850560000000 1.0
C      1  0.4663690000000  0.4830610000000  0.4745370000000 1.0
C      1  0.4359440000000  0.5587850000000  0.4392840000000 1.0
C      1  0.4710170000000  0.5824150000000  0.5645010000000 1.0
C      1  0.5932600000000  0.4465210000000  0.4884600000000 1.0
C      1  0.4800380000000  0.5410820000000  0.5763490000000 1.0
C      1  0.5449740000000  0.4730620000000  0.5106400000000 1.0
C      1  0.5151950000000  0.4917020000000  0.3972760000000 1.0
C      1  0.5263290000000  0.4208300000000  0.4618230000000 1.0
C      1  0.4749010000000  0.4465720000000  0.5211360000000 1.0
C      1  0.4659280000000  0.5019350000000  0.4963010000000 1.0
C      1  0.4838240000000  0.5779380000000  0.5376430000000 1.0
C      1  0.5688690000000  0.5590200000000  0.4456910000000 1.0
C      1  0.5344110000000  0.4273010000000  0.4888380000000 1.0
C      1  0.5849690000000  0.4561900000000  0.4600960000000 1.0
C      1  0.4869390000000  0.4939960000000  0.3991470000000 1.0
C      1  0.5741190000000  0.4405860000000  0.5591660000000 1.0
C      1  0.4912650000000  0.5346020000000  0.4666750000000 1.0
C      1  0.5014900000000  0.4230220000000  0.4176770000000 1.0
C      1  0.5179790000000  0.5973590000000  0.5588690000000 1.0
C      1  0.4665340000000  0.4531310000000  0.4354490000000 1.0
C      1  0.4797170000000  0.5618210000000  0.4702740000000 1.0
C      1  0.5217350000000  0.5377490000000  0.4574610000000 1.0
C      1  0.5192350000000  0.5374000000000  0.5538500000000 1.0
C      1  0.5953400000000  0.4857280000000  0.5210670000000 1.0
C      1  0.4867100000000  0.5679430000000  0.5847860000000 1.0
C      1  0.4826500000000  0.4416850000000  0.4650750000000 1.0
C      1  0.4893150000000  0.4511610000000  0.4101680000000 1.0
C      1  0.4280740000000  0.5060010000000  0.5564900000000 1.0
C      1  0.4000790000000  0.5207830000000  0.5009880000000 1.0
C      1  0.4209250000000  0.5339790000000  0.4339320000000 1.0
C      1  0.6032310000000  0.4772540000000  0.5534820000000 1.0
C      1  0.4243690000000  0.5073010000000  0.5114630000000 1.0
C      1  0.5475590000000  0.4176880000000  0.4431420000000 1.0
C      1  0.4944380000000  0.5170220000000  0.5779890000000 1.0
C      1  0.4209630000000  0.5478670000000  0.5276150000000 1.0
C      1  0.5058190000000  0.4894000000000  0.4474010000000 1.0
C      1  0.5861320000000  0.4811730000000  0.4453810000000 1.0
C      1  0.4816500000000  0.3956000000000  0.4878230000000 1.0
C      1  0.4995360000000  0.3953870000000  0.5426400000000 1.0
C      1  0.4768570000000  0.5004480000000  0.5605730000000 1.0
C      1  0.4930610000000  0.6133970000000  0.5099480000000 1.0
C      1  0.4910520000000  0.4512350000000  0.5446280000000 1.0
C      1  0.3903610000000  0.5205190000000  0.5478470000000 1.0
C      1  0.5074270000000  0.4753460000000  0.4978330000000 1.0
C      1  0.4380960000000  0.5853480000000  0.5330490000000 1.0
C      1  0.4734420000000  0.4107530000000  0.4625010000000 1.0
C      1  0.5571100000000  0.5797030000000  0.4634140000000 1.0
C      1  0.5257230000000  0.5096180000000  0.5619970000000 1.0
C      1  0.4728050000000  0.5200710000000  0.4447270000000 1.0
C      1  0.4255400000000  0.4522910000000  0.4587750000000 1.0
C      1  0.5132730000000  0.5616510000000  0.4050040000000 1.0
C      1  0.4478970000000  0.4023040000000  0.5277570000000 1.0
C      1  0.5263600000000  0.5368890000000  0.3975170000000 1.0
C      1  0.5253660000000  0.5522430000000  0.5821410000000 1.0
C      1  0.5453990000000  0.5388860000000  0.4729340000000 1.0
C      1  0.4788560000000  0.4105130000000  0.4307120000000 1.0
C      1  0.4550870000000  0.5115800000000  0.5425940000000 1.0
C      1  0.4723520000000  0.4691800000000  0.3923960000000 1.0
C      1  0.4817010000000  0.5772660000000  0.4466920000000 1.0
C      1  0.5872760000000  0.5367640000000  0.5360490000000 1.0
C      1  0.4282080000000  0.5033850000000  0.4661600000000 1.0
C      1  0.5988690000000  0.5501490000000  0.4941090000000 1.0
C      1  0.4948510000000  0.4842450000000  0.4737000000000 1.0
C      1  0.4994460000000  0.4126100000000  0.5676430000000 1.0
C      1  0.4330890000000  0.4237120000000  0.5429930000000 1.0
C      1  0.5594800000000  0.5827800000000  0.4923740000000 1.0
C      1  0.4805390000000  0.4722600000000  0.5647690000000 1.0
C      1  0.5618790000000  0.5022970000000  0.4016800000000 1.0
C      1  0.5643510000000  0.4047090000000  0.5049450000000 1.0
C      1  0.5153490000000  0.5861560000000  0.4839310000000 1.0
C      1  0.4358160000000  0.5705720000000  0.4685660000000 1.0
C      1  0.4046940000000  0.4448710000000  0.5015100000000 1.0
C      1  0.5088600000000  0.4408900000000  0.4539710000000 1.0
C      1  0.4345030000000  0.4884960000000  0.5792610000000 1.0
C      1  0.4323670000000  0.5200190000000  0.4152060000000 1.0
C      1  0.4752610000000  0.4679160000000  0.5931770000000 1.0
C      1  0.5515590000000  0.4211520000000  0.5556810000000 1.0
C      1  0.4539460000000  0.4264870000000  0.4301110000000 1.0
C      1  0.4914520000000  0.4498000000000  0.4960670000000 1.0
C      1  0.4880230000000  0.5455660000000  0.5103490000000 1.0
C      1  0.4164360000000  0.5754400000000  0.5164180000000 1.0
C      1  0.5729470000000  0.4970260000000  0.4865450000000 1.0
C      1  0.5135650000000  0.4332240000000  0.5098010000000 1.0
C      1  0.4448130000000  0.4168700000000  0.4555460000000 1.0
C      1  0.5135920000000  0.5789550000000  0.5817460000000 1.0
C      1  0.5934180000000  0.5001770000000  0.5628880000000 1.0
C      1  0.4708750000000  0.5363590000000  0.3995060000000 1.0
C      1  0.4183440000000  0.4740870000000  0.4397210000000 1.0
C      1  0.5201900000000  0.6101330000000  0.4996940000000 1.0
C      1  0.5443740000000  0.5073880000000  0.5852630000000 1.0
C      1  0.4734100000000  0.4933360000000  0.6082970000000 1.0
C      1  0.5182630000000  0.4442910000000  0.5921520000000 1.0
C      1  0.5202630000000  0.5703160000000  0.5230690000000 1.0
C      1  0.4818190000000  0.5245320000000  0.4929420000000 1.0
C      1  0.4743680000000  0.4257390000000  0.5775020000000 1.0
C      1  0.5747650000000  0.5328350000000  0.4572550000000 1.0
C      1  0.4119740000000  0.5722810000000  0.4878310000000 1.0
C      1  0.5544830000000  0.5306400000000  0.4017740000000 1.0
C      1  0.6107580000000  0.5051050000000  0.5049130000000 1.0
C      1  0.4845420000000  0.6028290000000  0.4599140000000 1.0
C      1  0.5787160000000  0.5681320000000  0.5049720000000 1.0
C      1  0.4654050000000  0.4885420000000  0.5222310000000 1.0
C      1  0.5099590000000  0.3890300000000  0.4953980000000 1.0
C      1  0.4493890000000  0.5218950000000  0.4616780000000 1.0
C      1  0.5965940000000  0.4577140000000  0.5147280000000 1.0
C      1  0.5805630000000  0.4211290000000  0.4833590000000 1.0
C      1  0.5472530000000  0.4537410000000  0.4895400000000 1.0
C      1  0.4756250000000  0.6041120000000  0.4876080000000 1.0
C      1  0.5551810000000  0.4794520000000  0.5836930000000 1.0
C      1  0.4154830000000  0.4920940000000  0.5353000000000 1.0
C      1  0.6039810000000  0.5310980000000  0.5146210000000 1.0
C      1  0.5344550000000  0.5713500000000  0.4219860000000 1.0
C      1  0.5730580000000  0.4285030000000  0.4560930000000 1.0
C      1  0.3833890000000  0.4985540000000  0.5324550000000 1.0
C      1  0.4480640000000  0.4602190000000  0.4756260000000 1.0
C      1  0.4720910000000  0.3961910000000  0.5397110000000 1.0
C      1  0.4987640000000  0.5071260000000  0.6064940000000 1.0
C      1  0.4479040000000  0.4352350000000  0.5658510000000 1.0
C      1  0.5171360000000  0.4453160000000  0.5352500000000 1.0
C      1  0.5353630000000  0.5873710000000  0.4462520000000 1.0
C      1  0.4427560000000  0.5759430000000  0.5606030000000 1.0
C      1  0.5373790000000  0.4654130000000  0.5391460000000 1.0
C      1  0.5627800000000  0.5721580000000  0.5581400000000 1.0
C      1  0.5191830000000  0.4862640000000  0.5471790000000 1.0
C      1  0.4522980000000  0.5157550000000  0.3967190000000 1.0
C      1  0.4929360000000  0.5354820000000  0.5388100000000 1.0
C      1  0.4885240000000  0.4419040000000  0.5968150000000 1.0
C      1  0.5239250000000  0.5135550000000  0.4415760000000 1.0
C      1  0.5250990000000  0.4959460000000  0.6070430000000 1.0
C      1  0.4628580000000  0.5771060000000  0.4892720000000 1.0
C      1  0.4504550000000  0.4620190000000  0.5199210000000 1.0
C      1  0.4137560000000  0.4397760000000  0.5287010000000 1.0
C      1  0.5237720000000  0.4644730000000  0.4457360000000 1.0
C      1  0.3984880000000  0.4724690000000  0.4933480000000 1.0
END
