TITL C-2441155-8282-18 0.00646185191562174 125000 -17033.6699132178 0 0 115 (C1) n - 1
REM
REM in /home/bkarasulu/work/CARBON/AIRSS/Generating-Clusters/ReaxFF-fromJPCA2015/Units_Real/with-SteepDescent/Higher-Symm
REM
REM
REM
REM
REM
REM ./C.cell (1df0a924f5614ab8850e4351716899ee)
REM
REM compiler GCC version 9.2.1 20190827 (Red Hat 9.2.1-1)
REM options -cpp -mtune=generic -march=x86-64 -g -O0 -fpre-include=/usr/include/finclude/math-vector-fortran.h
REM seed 397189579 -1798640068 -1820817517 826151892 665850680 -1664359907 -1910394195 1202771747 327301509 616280100 -824995849 -120533037 -1926095809 -462289158 323170417 -1247026432 701182435 -893576694 -1557140813 -881072701 -257290639 1588863330 -958572316 2047931148 -1153062128 -233164503 555121993 831977054 -2105695889 -1069353614 564000121 -619592186 1471982780
REM
CELL 1.54180   50.00000   50.00000   50.00000   90.00000   90.00000   90.00000
LATT -1
SFAC C  
C      1  0.4545510000000  0.5787720000000  0.5126670000000 1.0
C      1  0.4085410000000  0.4811320000000  0.5123260000000 1.0
C      1  0.4936960000000  0.4185310000000  0.5297940000000 1.0
C      1  0.5779890000000  0.4596730000000  0.5307900000000 1.0
C      1  0.5661880000000  0.5632710000000  0.5160140000000 1.0
C      1  0.4536260000000  0.5829530000000  0.4830140000000 1.0
C      1  0.4134710000000  0.4803520000000  0.4833220000000 1.0
C      1  0.4904760000000  0.4159570000000  0.4689820000000 1.0
C      1  0.5749940000000  0.4649900000000  0.4712110000000 1.0
C      1  0.5628700000000  0.5670970000000  0.4866250000000 1.0
C      1  0.4374930000000  0.5422430000000  0.5456210000000 1.0
C      1  0.4417840000000  0.4496430000000  0.5532620000000 1.0
C      1  0.5278370000000  0.4326350000000  0.5659570000000 1.0
C      1  0.5769410000000  0.5095230000000  0.5580030000000 1.0
C      1  0.5230600000000  0.5732760000000  0.5474350000000 1.0
C      1  0.4368210000000  0.5441180000000  0.4460050000000 1.0
C      1  0.4460280000000  0.4523590000000  0.4344810000000 1.0
C      1  0.5251590000000  0.4349380000000  0.4334360000000 1.0
C      1  0.5764110000000  0.5106680000000  0.4353750000000 1.0
C      1  0.5229420000000  0.5736120000000  0.4541220000000 1.0
C      1  0.5580500000000  0.4879800000000  0.5682170000000 1.0
C      1  0.5242210000000  0.5527410000000  0.5701900000000 1.0
C      1  0.4587840000000  0.5403130000000  0.5687560000000 1.0
C      1  0.4491680000000  0.4721680000000  0.5719730000000 1.0
C      1  0.5038930000000  0.4418380000000  0.5756380000000 1.0
C      1  0.5568620000000  0.4882130000000  0.4304820000000 1.0
C      1  0.5291400000000  0.5513380000000  0.4336730000000 1.0
C      1  0.4587980000000  0.5407930000000  0.4248630000000 1.0
C      1  0.4482170000000  0.4748400000000  0.4185300000000 1.0
C      1  0.5005540000000  0.4423270000000  0.4246570000000 1.0
C      1  0.4132190000000  0.5102570000000  0.4826880000000 1.0
C      1  0.4665280000000  0.4200140000000  0.4858320000000 1.0
C      1  0.5666830000000  0.4394990000000  0.4843500000000 1.0
C      1  0.5798690000000  0.5426450000000  0.4821770000000 1.0
C      1  0.4813100000000  0.5932840000000  0.4832500000000 1.0
C      1  0.4080310000000  0.5108980000000  0.5118350000000 1.0
C      1  0.4684200000000  0.4192630000000  0.5154360000000 1.0
C      1  0.5678670000000  0.4380850000000  0.5138700000000 1.0
C      1  0.5809580000000  0.5379150000000  0.5119610000000 1.0
C      1  0.4824430000000  0.5902090000000  0.5125760000000 1.0
C      1  0.5280730000000  0.4955670000000  0.4283110000000 1.0
C      1  0.5146180000000  0.5263140000000  0.4291190000000 1.0
C      1  0.4805980000000  0.5201310000000  0.4242860000000 1.0
C      1  0.4760800000000  0.4895670000000  0.4241630000000 1.0
C      1  0.5016210000000  0.4735870000000  0.4251180000000 1.0
C      1  0.5296630000000  0.4942110000000  0.5727610000000 1.0
C      1  0.5130250000000  0.5249790000000  0.5710380000000 1.0
C      1  0.4809740000000  0.5202280000000  0.5697110000000 1.0
C      1  0.4756320000000  0.4865980000000  0.5733000000000 1.0
C      1  0.5027580000000  0.4724000000000  0.5722870000000 1.0
C      1  0.4731340000000  0.5291600000000  0.5132390000000 1.0
C      1  0.4527170000000  0.4866390000000  0.5241400000000 1.0
C      1  0.5069240000000  0.4611350000000  0.5150610000000 1.0
C      1  0.5453600000000  0.4854030000000  0.5242600000000 1.0
C      1  0.5318250000000  0.5332750000000  0.5219280000000 1.0
C      1  0.4724810000000  0.5414500000000  0.4728820000000 1.0
C      1  0.4660840000000  0.4829750000000  0.4851450000000 1.0
C      1  0.5030730000000  0.4543240000000  0.4754690000000 1.0
C      1  0.5410450000000  0.4957010000000  0.4845470000000 1.0
C      1  0.5168890000000  0.5388010000000  0.4832130000000 1.0
C      1  0.4857230000000  0.5819210000000  0.5614190000000 1.0
C      1  0.4173750000000  0.5097510000000  0.5605430000000 1.0
C      1  0.4585150000000  0.4261860000000  0.5608020000000 1.0
C      1  0.5531730000000  0.4349480000000  0.5550120000000 1.0
C      1  0.5707190000000  0.5358100000000  0.5628230000000 1.0
C      1  0.4871080000000  0.5812210000000  0.4351130000000 1.0
C      1  0.4160880000000  0.5108650000000  0.4342130000000 1.0
C      1  0.4537430000000  0.4293400000000  0.4454900000000 1.0
C      1  0.5514300000000  0.4369630000000  0.4421020000000 1.0
C      1  0.5730890000000  0.5314490000000  0.4135480000000 1.0
C      1  0.4454680000000  0.4358560000000  0.4731140000000 1.0
C      1  0.5455710000000  0.4270690000000  0.4692420000000 1.0
C      1  0.5717440000000  0.5319790000000  0.4562370000000 1.0
C      1  0.4985900000000  0.5906580000000  0.4587580000000 1.0
C      1  0.4157360000000  0.5267850000000  0.4573070000000 1.0
C      1  0.4472760000000  0.4267240000000  0.5344540000000 1.0
C      1  0.5449150000000  0.4262940000000  0.5275140000000 1.0
C      1  0.5826440000000  0.5148760000000  0.5298040000000 1.0
C      1  0.4989970000000  0.5882000000000  0.5374090000000 1.0
C      1  0.4141420000000  0.5256060000000  0.5375630000000 1.0
C      1  0.5164900000000  0.4281940000000  0.4810860000000 1.0
C      1  0.5695780000000  0.4881280000000  0.4868580000000 1.0
C      1  0.5350490000000  0.5657890000000  0.4790180000000 1.0
C      1  0.4490580000000  0.5569480000000  0.4696680000000 1.0
C      1  0.4381500000000  0.4626000000000  0.4864680000000 1.0
C      1  0.5176210000000  0.4282980000000  0.5152760000000 1.0
C      1  0.5736520000000  0.4882840000000  0.5160490000000 1.0
C      1  0.5382570000000  0.5610440000000  0.5249730000000 1.0
C      1  0.4515950000000  0.5516590000000  0.5223470000000 1.0
C      1  0.4336320000000  0.4656400000000  0.5175310000000 1.0
C      1  0.4732920000000  0.5644410000000  0.4264430000000 1.0
C      1  0.4274790000000  0.4930920000000  0.4241420000000 1.0
C      1  0.4845530000000  0.4241440000000  0.4424040000000 1.0
C      1  0.5653770000000  0.4640440000000  0.4437250000000 1.0
C      1  0.5583550000000  0.5485850000000  0.4344240000000 1.0
C      1  0.4717360000000  0.5645210000000  0.5684210000000 1.0
C      1  0.4297200000000  0.4917510000000  0.5688540000000 1.0
C      1  0.4878650000000  0.4231530000000  0.5583760000000 1.0
C      1  0.5675710000000  0.4626850000000  0.5571200000000 1.0
C      1  0.5513960000000  0.5516260000000  0.5684070000000 1.0
C      1  0.4820420000000  0.5192890000000  0.4558220000000 1.0
C      1  0.4762740000000  0.4906640000000  0.4588740000000 1.0
C      1  0.5014890000000  0.4748860000000  0.4556840000000 1.0
C      1  0.5235230000000  0.4954430000000  0.4583250000000 1.0
C      1  0.5111630000000  0.5214710000000  0.4580810000000 1.0
C      1  0.4857450000000  0.5174760000000  0.5389520000000 1.0
C      1  0.4765910000000  0.4895520000000  0.5413350000000 1.0
C      1  0.5015840000000  0.4739680000000  0.5410330000000 1.0
C      1  0.5262430000000  0.4917060000000  0.5439010000000 1.0
C      1  0.5150840000000  0.5198190000000  0.5415530000000 1.0
C      1  0.5307250000000  0.4743510000000  0.5040410000000 1.0
C      1  0.4903410000000  0.5423580000000  0.4944500000000 1.0
C      1  0.4600700000000  0.5041570000000  0.5036970000000 1.0
C      1  0.4862930000000  0.4635590000000  0.4950810000000 1.0
C      1  0.5338940000000  0.5213670000000  0.4967230000000 1.0
END
