TITL C-2441158-471-1463 0.0472638803163905 125000 -13215.6321133172 0 0 99 (C1) n - 1
REM
REM in /home/bkarasulu/work/CARBON/AIRSS/Generating-Clusters/ReaxFF-fromJPCA2015/Units_Real/with-SteepDescent/Higher-Symm
REM
REM
REM
REM
REM
REM ./C.cell (1df0a924f5614ab8850e4351716899ee)
REM
REM compiler GCC version 9.2.1 20190827 (Red Hat 9.2.1-1)
REM options -cpp -mtune=generic -march=x86-64 -g -O0 -fpre-include=/usr/include/finclude/math-vector-fortran.h
REM seed 126740107 1979381822 -701424424 1263125925 1215891419 -192182931 560734380 663645589 -742551715 -1597770807 -2037914979 2038294432 1214464985 -1817002040 -945201844 -730547059 -172431781 -2037619358 -978852966 -1815010662 -662492366 -1314203159 -1909333002 1143043171 645052220 -36110767 -444826885 -1553569027 634902500 -1709004637 -1393335498 -885514623 -1320451184
REM
CELL 1.54180   50.00000   50.00000   50.00000   90.00000   90.00000   90.00000
LATT -1
SFAC C  
C      1  0.5361280000000  0.5313680000000  0.5718150000000 1.0
C      1  0.5402460000000  0.4611840000000  0.4290590000000 1.0
C      1  0.4500840000000  0.5259420000000  0.5107620000000 1.0
C      1  0.4517300000000  0.4764550000000  0.4858440000000 1.0
C      1  0.5410410000000  0.5159380000000  0.4204780000000 1.0
C      1  0.5364990000000  0.4795230000000  0.5830160000000 1.0
C      1  0.5048980000000  0.4618360000000  0.4599710000000 1.0
C      1  0.5124760000000  0.5358540000000  0.5376370000000 1.0
C      1  0.5114310000000  0.5632610000000  0.4734170000000 1.0
C      1  0.5129430000000  0.4393100000000  0.5251410000000 1.0
C      1  0.4830800000000  0.4404740000000  0.4630780000000 1.0
C      1  0.4860590000000  0.5458110000000  0.5389700000000 1.0
C      1  0.4487160000000  0.5606540000000  0.5044110000000 1.0
C      1  0.4487530000000  0.4324670000000  0.4958360000000 1.0
C      1  0.4561470000000  0.4999470000000  0.4249760000000 1.0
C      1  0.4579350000000  0.4916240000000  0.5847640000000 1.0
C      1  0.5741020000000  0.4713770000000  0.5372180000000 1.0
C      1  0.5742800000000  0.5303520000000  0.4661670000000 1.0
C      1  0.4918520000000  0.4327380000000  0.4335550000000 1.0
C      1  0.4953240000000  0.5663090000000  0.5573280000000 1.0
C      1  0.4716540000000  0.4173060000000  0.5041050000000 1.0
C      1  0.4707660000000  0.5809640000000  0.4997710000000 1.0
C      1  0.5123730000000  0.4707400000000  0.4872510000000 1.0
C      1  0.5142700000000  0.5311920000000  0.5097990000000 1.0
C      1  0.4784300000000  0.5562470000000  0.5773830000000 1.0
C      1  0.4813380000000  0.4547160000000  0.4215540000000 1.0
C      1  0.5490680000000  0.5065770000000  0.5786920000000 1.0
C      1  0.5311320000000  0.4882500000000  0.4236080000000 1.0
C      1  0.4747380000000  0.5570660000000  0.4482140000000 1.0
C      1  0.4796460000000  0.4306640000000  0.5522400000000 1.0
C      1  0.5030450000000  0.5167480000000  0.4647470000000 1.0
C      1  0.5067680000000  0.4925970000000  0.5390030000000 1.0
C      1  0.5610530000000  0.5561990000000  0.4714310000000 1.0
C      1  0.5610620000000  0.4472120000000  0.5283660000000 1.0
C      1  0.5294400000000  0.4766940000000  0.5365950000000 1.0
C      1  0.5306180000000  0.5229510000000  0.4630940000000 1.0
C      1  0.5390790000000  0.4756440000000  0.5080350000000 1.0
C      1  0.5395200000000  0.5236330000000  0.4917670000000 1.0
C      1  0.4989250000000  0.4437270000000  0.5486880000000 1.0
C      1  0.4979120000000  0.5451420000000  0.4556070000000 1.0
C      1  0.5069000000000  0.4763840000000  0.5852200000000 1.0
C      1  0.5111720000000  0.5230520000000  0.4123090000000 1.0
C      1  0.5380240000000  0.5723150000000  0.4794590000000 1.0
C      1  0.5398990000000  0.4298950000000  0.5183910000000 1.0
C      1  0.4630230000000  0.4193930000000  0.5331520000000 1.0
C      1  0.4665090000000  0.5764140000000  0.4692710000000 1.0
C      1  0.5309250000000  0.4258100000000  0.4903250000000 1.0
C      1  0.5280550000000  0.5802960000000  0.5077020000000 1.0
C      1  0.5764900000000  0.5188340000000  0.5462950000000 1.0
C      1  0.5708960000000  0.4836780000000  0.4588230000000 1.0
C      1  0.4762030000000  0.5147450000000  0.5774700000000 1.0
C      1  0.4790620000000  0.4819720000000  0.4160100000000 1.0
C      1  0.4273810000000  0.5250400000000  0.5337090000000 1.0
C      1  0.4249220000000  0.4708210000000  0.4734410000000 1.0
C      1  0.4313810000000  0.4579760000000  0.5456120000000 1.0
C      1  0.4351840000000  0.5434170000000  0.4513730000000 1.0
C      1  0.4685810000000  0.4968380000000  0.4746750000000 1.0
C      1  0.4681530000000  0.5054290000000  0.5208010000000 1.0
C      1  0.5567270000000  0.5388440000000  0.5325830000000 1.0
C      1  0.5570400000000  0.4573860000000  0.4528420000000 1.0
C      1  0.4351300000000  0.4818270000000  0.4343370000000 1.0
C      1  0.4636910000000  0.5374860000000  0.5605250000000 1.0
C      1  0.5478320000000  0.5665600000000  0.5250940000000 1.0
C      1  0.5457040000000  0.4401170000000  0.4733040000000 1.0
C      1  0.5041650000000  0.4965750000000  0.4217890000000 1.0
C      1  0.4965280000000  0.4966220000000  0.5663610000000 1.0
C      1  0.4999370000000  0.4499780000000  0.5032020000000 1.0
C      1  0.5004710000000  0.5531580000000  0.4971990000000 1.0
C      1  0.4955430000000  0.5059680000000  0.5147380000000 1.0
C      1  0.4954870000000  0.4984250000000  0.4852070000000 1.0
C      1  0.5679290000000  0.4947610000000  0.5591920000000 1.0
C      1  0.5652410000000  0.5092900000000  0.4470160000000 1.0
C      1  0.5252050000000  0.5533150000000  0.5580780000000 1.0
C      1  0.5192550000000  0.4452270000000  0.4409320000000 1.0
C      1  0.5378100000000  0.5388650000000  0.4390750000000 1.0
C      1  0.5355140000000  0.4603360000000  0.5607630000000 1.0
C      1  0.4498830000000  0.5175260000000  0.4826810000000 1.0
C      1  0.4537990000000  0.4818110000000  0.5131520000000 1.0
C      1  0.4563680000000  0.5298360000000  0.4330030000000 1.0
C      1  0.4446330000000  0.4731400000000  0.5661420000000 1.0
C      1  0.4411880000000  0.5647040000000  0.4707370000000 1.0
C      1  0.4416610000000  0.4380350000000  0.5251040000000 1.0
C      1  0.4256430000000  0.5200250000000  0.4670370000000 1.0
C      1  0.4257180000000  0.4771970000000  0.5240370000000 1.0
C      1  0.5104210000000  0.5465940000000  0.4298450000000 1.0
C      1  0.5094090000000  0.4496030000000  0.5717410000000 1.0
C      1  0.5827980000000  0.4778210000000  0.5110470000000 1.0
C      1  0.5850510000000  0.5159180000000  0.4905200000000 1.0
C      1  0.4436210000000  0.5699690000000  0.5300340000000 1.0
C      1  0.4524510000000  0.4396860000000  0.4670510000000 1.0
C      1  0.5781280000000  0.5249810000000  0.5177270000000 1.0
C      1  0.5865180000000  0.4873400000000  0.4846420000000 1.0
C      1  0.4186630000000  0.4939730000000  0.4555200000000 1.0
C      1  0.4240200000000  0.4987780000000  0.5423500000000 1.0
C      1  0.4974860000000  0.5778970000000  0.5120360000000 1.0
C      1  0.4968400000000  0.4250620000000  0.4881970000000 1.0
C      1  0.4346240000000  0.4554310000000  0.4503070000000 1.0
C      1  0.4358050000000  0.5496230000000  0.5472340000000 1.0
C      1  0.5396890000000  0.4996080000000  0.4999900000000 1.0
END
