TITL C-2441165-58-579 0.00442406133691613 125000 -5571.46701536427 0 0 41 (C1) n - 1
REM
REM in /home/bkarasulu/work/CARBON/AIRSS/Generating-Clusters/ReaxFF-fromJPCA2015/Units_Real/with-SteepDescent/Higher-Symm
REM
REM
REM
REM
REM
REM ./C.cell (1df0a924f5614ab8850e4351716899ee)
REM
REM compiler GCC version 9.2.1 20190827 (Red Hat 9.2.1-1)
REM options -cpp -mtune=generic -march=x86-64 -g -O0 -fpre-include=/usr/include/finclude/math-vector-fortran.h
REM seed 1412555671 840383657 -1257540104 -1298368942 1980840425 -2031599236 409418902 -367101580 96832398 -273321179 1807638939 1772635723 30710885 -1434878294 -48756699 -175799805 91238579 1135977343 1569090296 -1347090715 -1170907275 -1174925266 1822579743 -1789765978 -1516743048 -140262919 -684275580 -1765895362 447331238 1103284557 -406881147 495617438 -843132118
REM
CELL 1.54180   50.00000   50.00000   50.00000   90.00000   90.00000   90.00000
LATT -1
SFAC C  
C      1  0.4578780000000  0.4436680000000  0.5180970000000 1.0
C      1  0.5143960000000  0.4652140000000  0.4448940000000 1.0
C      1  0.4476490000000  0.5159520000000  0.4649890000000 1.0
C      1  0.4604810000000  0.5538520000000  0.4864740000000 1.0
C      1  0.5416210000000  0.5539190000000  0.5159820000000 1.0
C      1  0.5393410000000  0.4483070000000  0.4862810000000 1.0
C      1  0.5146500000000  0.5379200000000  0.5536360000000 1.0
C      1  0.4871740000000  0.5396400000000  0.4450960000000 1.0
C      1  0.4864120000000  0.4623780000000  0.5532470000000 1.0
C      1  0.4468860000000  0.4870570000000  0.5385850000000 1.0
C      1  0.5564790000000  0.4854130000000  0.4648120000000 1.0
C      1  0.5545150000000  0.5135720000000  0.5391710000000 1.0
C      1  0.5418250000000  0.4706670000000  0.4443030000000 1.0
C      1  0.4431960000000  0.5357170000000  0.4820440000000 1.0
C      1  0.4783560000000  0.4446320000000  0.5348570000000 1.0
C      1  0.5354440000000  0.5209650000000  0.5557190000000 1.0
C      1  0.4593820000000  0.5320870000000  0.4444660000000 1.0
C      1  0.4661940000000  0.4798400000000  0.5551200000000 1.0
C      1  0.4427480000000  0.4641270000000  0.5249600000000 1.0
C      1  0.5574490000000  0.4649290000000  0.4819960000000 1.0
C      1  0.5588050000000  0.5366630000000  0.5256390000000 1.0
C      1  0.4697810000000  0.5567780000000  0.4588110000000 1.0
C      1  0.5233090000000  0.5552500000000  0.5354560000000 1.0
C      1  0.5294140000000  0.4464520000000  0.4584790000000 1.0
C      1  0.4986110000000  0.4724410000000  0.4657420000000 1.0
C      1  0.4645990000000  0.4958930000000  0.4746410000000 1.0
C      1  0.4672490000000  0.4507190000000  0.4952290000000 1.0
C      1  0.4928700000000  0.5280260000000  0.5413030000000 1.0
C      1  0.5046160000000  0.5234130000000  0.4578730000000 1.0
C      1  0.5077880000000  0.4733100000000  0.5415390000000 1.0
C      1  0.4585260000000  0.5085080000000  0.5270510000000 1.0
C      1  0.5466780000000  0.5099460000000  0.4720660000000 1.0
C      1  0.5422740000000  0.4925350000000  0.5272110000000 1.0
C      1  0.4731420000000  0.5425070000000  0.5074550000000 1.0
C      1  0.5326680000000  0.5407520000000  0.4946600000000 1.0
C      1  0.5271930000000  0.4588780000000  0.5074120000000 1.0
C      1  0.4692880000000  0.5321510000000  0.5306880000000 1.0
C      1  0.5306630000000  0.5317000000000  0.4684830000000 1.0
C      1  0.5314790000000  0.4691230000000  0.5306940000000 1.0
C      1  0.4696140000000  0.4664640000000  0.4722680000000 1.0
C      1  0.4931180000000  0.5008060000000  0.4717890000000 1.0
END
