TITL C-2441169-1362-1320 0.0876047601575028 125000 -26445.2660812596 0 0 187 (C1) n - 1
REM
REM in /home/bkarasulu/work/CARBON/AIRSS/Generating-Clusters/ReaxFF-fromJPCA2015/Units_Real/with-SteepDescent/Higher-Symm
REM
REM
REM
REM
REM
REM ./C.cell (1df0a924f5614ab8850e4351716899ee)
REM
REM compiler GCC version 9.2.1 20190827 (Red Hat 9.2.1-1)
REM options -cpp -mtune=generic -march=x86-64 -g -O0 -fpre-include=/usr/include/finclude/math-vector-fortran.h
REM seed 2015935842 -646040797 -463452615 -1274311179 1477663161 -376104720 -240010456 -1682638580 -1805637888 898622199 1655864020 1801742253 1854331135 -421283632 -1436825145 1017595362 -81929 335276207 258766715 -211651990 -1134508770 1391127749 -106171489 -431878133 830243909 -511596228 489925280 1001787868 1307829953 1196409257 440810859 137685151 -466328680
REM
CELL 1.54180   50.00000   50.00000   50.00000   90.00000   90.00000   90.00000
LATT -1
SFAC C  
C      1  0.5119230000000  0.6028430000000  0.4502060000000 1.0
C      1  0.4834160000000  0.3958450000000  0.4502100000000 1.0
C      1  0.4839440000000  0.6022040000000  0.4502210000000 1.0
C      1  0.5123960000000  0.3949760000000  0.4494390000000 1.0
C      1  0.4368420000000  0.4399130000000  0.5621870000000 1.0
C      1  0.5612430000000  0.5561790000000  0.5631230000000 1.0
C      1  0.5599780000000  0.4412560000000  0.5632750000000 1.0
C      1  0.4404720000000  0.5539990000000  0.5615850000000 1.0
C      1  0.5128440000000  0.4542420000000  0.5508110000000 1.0
C      1  0.4827000000000  0.5318730000000  0.5554310000000 1.0
C      1  0.4816990000000  0.4570320000000  0.5463300000000 1.0
C      1  0.5157060000000  0.5376290000000  0.5505290000000 1.0
C      1  0.4245170000000  0.5150310000000  0.4228770000000 1.0
C      1  0.5742110000000  0.4852440000000  0.4224170000000 1.0
C      1  0.5747940000000  0.5143990000000  0.4208650000000 1.0
C      1  0.4250330000000  0.4857610000000  0.4229080000000 1.0
C      1  0.4399480000000  0.5766540000000  0.5433280000000 1.0
C      1  0.5620250000000  0.4224470000000  0.5424240000000 1.0
C      1  0.5628950000000  0.5771850000000  0.5432810000000 1.0
C      1  0.4399440000000  0.4189370000000  0.5425920000000 1.0
C      1  0.4447470000000  0.5551230000000  0.4214180000000 1.0
C      1  0.5573170000000  0.4469540000000  0.4245850000000 1.0
C      1  0.5570810000000  0.5548560000000  0.4227450000000 1.0
C      1  0.4452760000000  0.4449550000000  0.4215650000000 1.0
C      1  0.5364140000000  0.5728070000000  0.4256600000000 1.0
C      1  0.4693190000000  0.4319180000000  0.4231120000000 1.0
C      1  0.4688960000000  0.5682410000000  0.4217290000000 1.0
C      1  0.5362240000000  0.4288310000000  0.4282090000000 1.0
C      1  0.5264260000000  0.4214630000000  0.4554030000000 1.0
C      1  0.4732590000000  0.5772500000000  0.4483990000000 1.0
C      1  0.4722050000000  0.4211820000000  0.4494580000000 1.0
C      1  0.5267540000000  0.5775290000000  0.4540870000000 1.0
C      1  0.5324960000000  0.5196280000000  0.5282200000000 1.0
C      1  0.4672550000000  0.4830860000000  0.5299430000000 1.0
C      1  0.4680510000000  0.5174900000000  0.5323530000000 1.0
C      1  0.5313750000000  0.4872120000000  0.5249030000000 1.0
C      1  0.4803900000000  0.4863860000000  0.4328640000000 1.0
C      1  0.5153330000000  0.5151340000000  0.4313430000000 1.0
C      1  0.5138690000000  0.4850510000000  0.4309120000000 1.0
C      1  0.4851100000000  0.5155640000000  0.4321450000000 1.0
C      1  0.4826970000000  0.5574340000000  0.4676330000000 1.0
C      1  0.5070550000000  0.4452670000000  0.4704470000000 1.0
C      1  0.5104300000000  0.5533870000000  0.4620210000000 1.0
C      1  0.4759370000000  0.4401810000000  0.4725180000000 1.0
C      1  0.4140060000000  0.5141460000000  0.5490990000000 1.0
C      1  0.5834040000000  0.4855690000000  0.5504660000000 1.0
C      1  0.5859780000000  0.5132980000000  0.5514150000000 1.0
C      1  0.4147180000000  0.4844830000000  0.5497730000000 1.0
C      1  0.5602570000000  0.4630720000000  0.4962360000000 1.0
C      1  0.4437630000000  0.5333790000000  0.4881690000000 1.0
C      1  0.4490080000000  0.4570460000000  0.4883470000000 1.0
C      1  0.5636500000000  0.5387730000000  0.4953400000000 1.0
C      1  0.5967610000000  0.4470170000000  0.5282850000000 1.0
C      1  0.4100360000000  0.5544880000000  0.5137480000000 1.0
C      1  0.4103130000000  0.4436610000000  0.5135510000000 1.0
C      1  0.5950910000000  0.5540480000000  0.5299770000000 1.0
C      1  0.5160330000000  0.4948090000000  0.5753440000000 1.0
C      1  0.4768260000000  0.5136450000000  0.5824330000000 1.0
C      1  0.4893960000000  0.4888100000000  0.5787430000000 1.0
C      1  0.5286500000000  0.5133470000000  0.5923390000000 1.0
C      1  0.5719390000000  0.5758450000000  0.4673240000000 1.0
C      1  0.4275290000000  0.4240330000000  0.4692380000000 1.0
C      1  0.4287160000000  0.5730130000000  0.4701080000000 1.0
C      1  0.5701790000000  0.4260440000000  0.4687290000000 1.0
C      1  0.5515180000000  0.5285110000000  0.4115270000000 1.0
C      1  0.4453890000000  0.4711630000000  0.4090790000000 1.0
C      1  0.4454910000000  0.5291710000000  0.4100040000000 1.0
C      1  0.5520430000000  0.4714770000000  0.4106690000000 1.0
C      1  0.4915750000000  0.5584890000000  0.4040320000000 1.0
C      1  0.5149800000000  0.4365580000000  0.4154420000000 1.0
C      1  0.5152480000000  0.5645400000000  0.4132740000000 1.0
C      1  0.4911630000000  0.4418360000000  0.4061470000000 1.0
C      1  0.5170260000000  0.4240540000000  0.5866260000000 1.0
C      1  0.4857070000000  0.5801230000000  0.5916830000000 1.0
C      1  0.4883070000000  0.4260540000000  0.5898870000000 1.0
C      1  0.5146330000000  0.5801670000000  0.5926910000000 1.0
C      1  0.4277620000000  0.4406120000000  0.4445110000000 1.0
C      1  0.5763560000000  0.5580510000000  0.4435720000000 1.0
C      1  0.5755370000000  0.4451990000000  0.4465890000000 1.0
C      1  0.4276380000000  0.5588980000000  0.4444700000000 1.0
C      1  0.4833970000000  0.4744420000000  0.6041660000000 1.0
C      1  0.5131620000000  0.5316990000000  0.6079600000000 1.0
C      1  0.5113830000000  0.4708390000000  0.6096430000000 1.0
C      1  0.4848100000000  0.5314310000000  0.6045400000000 1.0
C      1  0.4433590000000  0.5060950000000  0.4927490000000 1.0
C      1  0.5609780000000  0.4883020000000  0.4826100000000 1.0
C      1  0.5498810000000  0.5156200000000  0.4777530000000 1.0
C      1  0.4542080000000  0.4831570000000  0.4780660000000 1.0
C      1  0.3866230000000  0.5144970000000  0.5105960000000 1.0
C      1  0.6105790000000  0.4799770000000  0.5091420000000 1.0
C      1  0.6147690000000  0.5080640000000  0.5098300000000 1.0
C      1  0.3877090000000  0.4853810000000  0.5107520000000 1.0
C      1  0.5796370000000  0.5633170000000  0.4924070000000 1.0
C      1  0.4178280000000  0.4489560000000  0.4853280000000 1.0
C      1  0.4139520000000  0.5510980000000  0.4850080000000 1.0
C      1  0.5774880000000  0.4390200000000  0.4934020000000 1.0
C      1  0.5120230000000  0.6176250000000  0.4749240000000 1.0
C      1  0.4836700000000  0.3828760000000  0.4757730000000 1.0
C      1  0.4822270000000  0.6164510000000  0.4750930000000 1.0
C      1  0.5125900000000  0.3820950000000  0.4750760000000 1.0
C      1  0.4303910000000  0.5271730000000  0.5681210000000 1.0
C      1  0.5718100000000  0.4679660000000  0.5689170000000 1.0
C      1  0.5715720000000  0.5291260000000  0.5701540000000 1.0
C      1  0.4278940000000  0.4683060000000  0.5701820000000 1.0
C      1  0.4036550000000  0.4688960000000  0.4690710000000 1.0
C      1  0.5950510000000  0.5181480000000  0.4651300000000 1.0
C      1  0.5846700000000  0.4906420000000  0.4668230000000 1.0
C      1  0.4005600000000  0.5315340000000  0.4681150000000 1.0
C      1  0.4278890000000  0.5765510000000  0.5170880000000 1.0
C      1  0.5821430000000  0.4244190000000  0.5206810000000 1.0
C      1  0.5820740000000  0.5768450000000  0.5212160000000 1.0
C      1  0.4263770000000  0.4198990000000  0.5168180000000 1.0
C      1  0.4530670000000  0.5380150000000  0.5166290000000 1.0
C      1  0.5486980000000  0.4629660000000  0.5224200000000 1.0
C      1  0.5517080000000  0.5398100000000  0.5206540000000 1.0
C      1  0.4515150000000  0.4624960000000  0.5166060000000 1.0
C      1  0.5165090000000  0.5292640000000  0.4758460000000 1.0
C      1  0.4851920000000  0.4893360000000  0.4790720000000 1.0
C      1  0.4887320000000  0.5182350000000  0.4780830000000 1.0
C      1  0.5127050000000  0.4753730000000  0.4735430000000 1.0
C      1  0.4128880000000  0.5339910000000  0.4426560000000 1.0
C      1  0.5876420000000  0.4714160000000  0.4452190000000 1.0
C      1  0.5884150000000  0.5318110000000  0.4410930000000 1.0
C      1  0.4145110000000  0.4664370000000  0.4430860000000 1.0
C      1  0.3849950000000  0.5138410000000  0.4821650000000 1.0
C      1  0.6096780000000  0.4800140000000  0.4793940000000 1.0
C      1  0.6172210000000  0.5087200000000  0.4809780000000 1.0
C      1  0.3855750000000  0.4859440000000  0.4815670000000 1.0
C      1  0.4852060000000  0.4075440000000  0.5670850000000 1.0
C      1  0.5147880000000  0.5919890000000  0.5655560000000 1.0
C      1  0.5142240000000  0.4068350000000  0.5641710000000 1.0
C      1  0.4862190000000  0.5905130000000  0.5646590000000 1.0
C      1  0.5309450000000  0.6042340000000  0.4933060000000 1.0
C      1  0.4697120000000  0.4003690000000  0.4963440000000 1.0
C      1  0.4671150000000  0.6025340000000  0.4958940000000 1.0
C      1  0.5299530000000  0.3952230000000  0.4927560000000 1.0
C      1  0.4722230000000  0.4830030000000  0.4018530000000 1.0
C      1  0.5240710000000  0.5173130000000  0.4020960000000 1.0
C      1  0.5241410000000  0.4823910000000  0.4033070000000 1.0
C      1  0.4730770000000  0.5175850000000  0.4037250000000 1.0
C      1  0.4700330000000  0.5614810000000  0.5189560000000 1.0
C      1  0.5273210000000  0.4420020000000  0.5271630000000 1.0
C      1  0.5273150000000  0.5590000000000  0.5301110000000 1.0
C      1  0.4702030000000  0.4418280000000  0.5237470000000 1.0
C      1  0.5873200000000  0.4739270000000  0.5252120000000 1.0
C      1  0.4030040000000  0.5304600000000  0.5275320000000 1.0
C      1  0.4067980000000  0.4694480000000  0.5262780000000 1.0
C      1  0.5999690000000  0.5260270000000  0.5290170000000 1.0
C      1  0.5128410000000  0.4743810000000  0.5042680000000 1.0
C      1  0.4896650000000  0.5165630000000  0.5094210000000 1.0
C      1  0.4889410000000  0.4874170000000  0.5086270000000 1.0
C      1  0.5152400000000  0.5304990000000  0.5069490000000 1.0
C      1  0.4721530000000  0.5553040000000  0.5950920000000 1.0
C      1  0.5369220000000  0.4654260000000  0.6007040000000 1.0
C      1  0.5265630000000  0.5548830000000  0.5977520000000 1.0
C      1  0.4707720000000  0.4491280000000  0.5955170000000 1.0
C      1  0.5451700000000  0.4131450000000  0.4752540000000 1.0
C      1  0.4412230000000  0.5866570000000  0.4921630000000 1.0
C      1  0.4394880000000  0.4106950000000  0.4916470000000 1.0
C      1  0.5463910000000  0.5851220000000  0.4769280000000 1.0
C      1  0.5333510000000  0.5488400000000  0.5705780000000 1.0
C      1  0.4636830000000  0.4494670000000  0.5676110000000 1.0
C      1  0.4666350000000  0.5511090000000  0.5686400000000 1.0
C      1  0.5327490000000  0.4448290000000  0.5769160000000 1.0
C      1  0.4531270000000  0.5200600000000  0.4555200000000 1.0
C      1  0.5327740000000  0.4854680000000  0.4530970000000 1.0
C      1  0.5425090000000  0.5122310000000  0.4492570000000 1.0
C      1  0.4563850000000  0.4924180000000  0.4496020000000 1.0
C      1  0.5314760000000  0.4106490000000  0.5393730000000 1.0
C      1  0.4695660000000  0.5852420000000  0.5396910000000 1.0
C      1  0.4686810000000  0.4080100000000  0.5421940000000 1.0
C      1  0.5321230000000  0.5895540000000  0.5408120000000 1.0
C      1  0.4874240000000  0.5645990000000  0.4966590000000 1.0
C      1  0.5097500000000  0.4438950000000  0.5021720000000 1.0
C      1  0.5124400000000  0.5580310000000  0.5069190000000 1.0
C      1  0.4827120000000  0.4323340000000  0.5004370000000 1.0
C      1  0.5153470000000  0.6014840000000  0.5180110000000 1.0
C      1  0.4860690000000  0.3966430000000  0.5207350000000 1.0
C      1  0.4858620000000  0.6008610000000  0.5178520000000 1.0
C      1  0.5154020000000  0.3976290000000  0.5179050000000 1.0
C      1  0.4460310000000  0.5082880000000  0.5849740000000 1.0
C      1  0.5594040000000  0.4824710000000  0.5901560000000 1.0
C      1  0.5576270000000  0.5114180000000  0.5888350000000 1.0
C      1  0.4467040000000  0.4804310000000  0.5876520000000 1.0
C      1  0.4982780000000  0.5314600000000  0.3947290000000 1.0
C      1  0.4978020000000  0.4687770000000  0.3960280000000 1.0
C      1  0.5172540000000  0.4829900000000  0.5502180000000 1.0
END
