TITL C-2441160-1326-262 0.00148930923732079 125000 -9040.2864782122 0 0 61 (C1) n - 1
REM
REM in /home/bkarasulu/work/CARBON/AIRSS/Generating-Clusters/ReaxFF-fromJPCA2015/Units_Real/with-SteepDescent/Higher-Symm
REM
REM
REM
REM
REM
REM ./C.cell (1df0a924f5614ab8850e4351716899ee)
REM
REM compiler GCC version 9.2.1 20190827 (Red Hat 9.2.1-1)
REM options -cpp -mtune=generic -march=x86-64 -g -O0 -fpre-include=/usr/include/finclude/math-vector-fortran.h
REM seed -1959512017 -217367392 -1998083685 1576458688 985889818 2063262586 -28268298 -1381398649 -947727942 756670399 1760136241 -308184710 1562641586 129354315 -1052543472 1185932938 -365569565 -597482359 -2049768130 316334417 -589720022 393039378 -548132963 1255201859 848835670 388377741 370404053 1156050448 -1532531539 -1537446211 1443384429 -1245518200 -241525387
REM
CELL 1.54180   50.00000   50.00000   50.00000   90.00000   90.00000   90.00000
LATT -1
SFAC C  
C      1  0.5120310000000  0.5070590000000  0.4964670000000 1.0
C      1  0.5356820000000  0.4968010000000  0.4942490000000 1.0
C      1  0.5006410000000  0.4567570000000  0.4949240000000 1.0
C      1  0.4789970000000  0.4749960000000  0.4949810000000 1.0
C      1  0.4632190000000  0.5199800000000  0.4939000000000 1.0
C      1  0.4795030000000  0.5182910000000  0.5157520000000 1.0
C      1  0.5271650000000  0.4646500000000  0.4491010000000 1.0
C      1  0.4851970000000  0.4659070000000  0.5489050000000 1.0
C      1  0.4557500000000  0.4942380000000  0.4484570000000 1.0
C      1  0.4690710000000  0.5357080000000  0.5513290000000 1.0
C      1  0.5162700000000  0.5316910000000  0.4529400000000 1.0
C      1  0.5436240000000  0.5073940000000  0.5479110000000 1.0
C      1  0.5570000000000  0.4788810000000  0.4733850000000 1.0
C      1  0.5088910000000  0.4391970000000  0.5181340000000 1.0
C      1  0.4564280000000  0.4635170000000  0.4829200000000 1.0
C      1  0.4292440000000  0.5270110000000  0.5178830000000 1.0
C      1  0.4894010000000  0.5650200000000  0.4780490000000 1.0
C      1  0.5589400000000  0.5457700000000  0.5177750000000 1.0
C      1  0.4636640000000  0.5222900000000  0.4507330000000 1.0
C      1  0.4989230000000  0.5379360000000  0.5500850000000 1.0
C      1  0.5417490000000  0.5174730000000  0.4529770000000 1.0
C      1  0.5378510000000  0.4779840000000  0.5474360000000 1.0
C      1  0.4987300000000  0.4621880000000  0.4508800000000 1.0
C      1  0.4605150000000  0.4815340000000  0.5487070000000 1.0
C      1  0.5093370000000  0.4830890000000  0.5522060000000 1.0
C      1  0.4846510000000  0.4863090000000  0.4447360000000 1.0
C      1  0.4706630000000  0.5082540000000  0.5420160000000 1.0
C      1  0.4919450000000  0.5165350000000  0.4473150000000 1.0
C      1  0.5145760000000  0.5131200000000  0.5522830000000 1.0
C      1  0.5437290000000  0.4886020000000  0.4495470000000 1.0
C      1  0.4486420000000  0.5447750000000  0.5321220000000 1.0
C      1  0.5144380000000  0.5577860000000  0.4679200000000 1.0
C      1  0.5634490000000  0.5200760000000  0.5305460000000 1.0
C      1  0.5458270000000  0.4511220000000  0.4676090000000 1.0
C      1  0.4856740000000  0.4396570000000  0.5356680000000 1.0
C      1  0.4384190000000  0.4819250000000  0.4688400000000 1.0
C      1  0.4865250000000  0.5710810000000  0.5184560000000 1.0
C      1  0.5610960000000  0.5475590000000  0.4875500000000 1.0
C      1  0.5693430000000  0.4757080000000  0.5179150000000 1.0
C      1  0.5148260000000  0.4254330000000  0.4744590000000 1.0
C      1  0.4463940000000  0.4499520000000  0.5213530000000 1.0
C      1  0.4245510000000  0.5284430000000  0.4885100000000 1.0
C      1  0.4368630000000  0.4742940000000  0.5318960000000 1.0
C      1  0.4508280000000  0.5379000000000  0.4747750000000 1.0
C      1  0.5087460000000  0.5604870000000  0.5324390000000 1.0
C      1  0.5636560000000  0.5232280000000  0.4717320000000 1.0
C      1  0.5523340000000  0.4572510000000  0.5299790000000 1.0
C      1  0.4925440000000  0.4398130000000  0.4730140000000 1.0
C      1  0.5394200000000  0.4295520000000  0.4868360000000 1.0
C      1  0.4644340000000  0.4298940000000  0.5157540000000 1.0
C      1  0.4222310000000  0.4988180000000  0.4869170000000 1.0
C      1  0.4589850000000  0.5674080000000  0.5157640000000 1.0
C      1  0.5367230000000  0.5640910000000  0.4872180000000 1.0
C      1  0.5797230000000  0.5009490000000  0.5136240000000 1.0
C      1  0.4629670000000  0.5660340000000  0.4855120000000 1.0
C      1  0.5342440000000  0.5620120000000  0.5165980000000 1.0
C      1  0.5762080000000  0.4994590000000  0.4839630000000 1.0
C      1  0.5374780000000  0.4354920000000  0.5158570000000 1.0
C      1  0.4649200000000  0.4358910000000  0.4867670000000 1.0
C      1  0.4246960000000  0.4975930000000  0.5164150000000 1.0
C      1  0.4845610000000  0.5025770000000  0.4912420000000 1.0
END
