TITL C-2441160-1326-737 0.0493417504147926 125000 -27224.9225641071 0 0 185 (C1) n - 1
REM
REM in /home/bkarasulu/work/CARBON/AIRSS/Generating-Clusters/ReaxFF-fromJPCA2015/Units_Real/with-SteepDescent/Higher-Symm
REM
REM
REM
REM
REM
REM ./C.cell (1df0a924f5614ab8850e4351716899ee)
REM
REM compiler GCC version 9.2.1 20190827 (Red Hat 9.2.1-1)
REM options -cpp -mtune=generic -march=x86-64 -g -O0 -fpre-include=/usr/include/finclude/math-vector-fortran.h
REM seed 1814567824 -1662287896 -2019907979 -1700102408 915876260 -598786987 -1262764379 -515503525 -1149019957 701923080 1977413764 -1907638404 2008330560 1287245077 -2121354909 -240360847 -1910120118 76185500 -406706453 495140872 621989076 1410835328 -636156648 263988546 492971159 -529567157 1075549923 -1922327171 1730601440 1907717836 1376690689 -1690673948 1068953185
REM
CELL 1.54180   50.00000   50.00000   50.00000   90.00000   90.00000   90.00000
LATT -1
SFAC C  
C      1  0.5965570000000  0.4808720000000  0.5592510000000 1.0
C      1  0.5002470000000  0.4826250000000  0.3816110000000 1.0
C      1  0.4008250000000  0.4868750000000  0.5635890000000 1.0
C      1  0.6041720000000  0.5151610000000  0.4429680000000 1.0
C      1  0.4980760000000  0.5199640000000  0.6133250000000 1.0
C      1  0.3985670000000  0.5150190000000  0.4384220000000 1.0
C      1  0.6111230000000  0.5301820000000  0.4680750000000 1.0
C      1  0.4174280000000  0.5300690000000  0.4204250000000 1.0
C      1  0.4606760000000  0.5336670000000  0.6003000000000 1.0
C      1  0.6081860000000  0.4728010000000  0.5206750000000 1.0
C      1  0.4175080000000  0.4708720000000  0.5825170000000 1.0
C      1  0.4634790000000  0.4723510000000  0.3957070000000 1.0
C      1  0.4792810000000  0.5249040000000  0.5203390000000 1.0
C      1  0.5323580000000  0.5278440000000  0.5069540000000 1.0
C      1  0.4873720000000  0.5203720000000  0.4689270000000 1.0
C      1  0.4826750000000  0.4703450000000  0.4721960000000 1.0
C      1  0.5332030000000  0.4797760000000  0.4989170000000 1.0
C      1  0.4826780000000  0.4803810000000  0.5262050000000 1.0
C      1  0.5636690000000  0.4212000000000  0.4532610000000 1.0
C      1  0.4300930000000  0.4216560000000  0.4653330000000 1.0
C      1  0.5070260000000  0.4264800000000  0.5783480000000 1.0
C      1  0.5664260000000  0.5777530000000  0.5462380000000 1.0
C      1  0.4281350000000  0.5786450000000  0.5335920000000 1.0
C      1  0.5060590000000  0.5770280000000  0.4211520000000 1.0
C      1  0.5406780000000  0.4070780000000  0.5130820000000 1.0
C      1  0.4892080000000  0.4098610000000  0.4592340000000 1.0
C      1  0.4696630000000  0.4053110000000  0.5294400000000 1.0
C      1  0.5408390000000  0.5940130000000  0.4895520000000 1.0
C      1  0.4923400000000  0.5923260000000  0.5413970000000 1.0
C      1  0.4697160000000  0.5939850000000  0.4723520000000 1.0
C      1  0.5017880000000  0.5150320000000  0.5598540000000 1.0
C      1  0.5493940000000  0.5130440000000  0.4667870000000 1.0
C      1  0.4439010000000  0.5127670000000  0.4744080000000 1.0
C      1  0.5047310000000  0.4859060000000  0.4377960000000 1.0
C      1  0.5521270000000  0.4906990000000  0.5336720000000 1.0
C      1  0.4349130000000  0.4888060000000  0.5331670000000 1.0
C      1  0.5760500000000  0.4764840000000  0.5791480000000 1.0
C      1  0.5252680000000  0.4744110000000  0.3890900000000 1.0
C      1  0.4076580000000  0.4790230000000  0.5354970000000 1.0
C      1  0.5831370000000  0.5225760000000  0.4238060000000 1.0
C      1  0.5262910000000  0.5178320000000  0.6072860000000 1.0
C      1  0.3916640000000  0.5226790000000  0.4658900000000 1.0
C      1  0.4174620000000  0.4626610000000  0.4788610000000 1.0
C      1  0.5321140000000  0.4669860000000  0.5856180000000 1.0
C      1  0.5608620000000  0.4653000000000  0.4366410000000 1.0
C      1  0.4208820000000  0.5344590000000  0.5200460000000 1.0
C      1  0.5244710000000  0.5340960000000  0.4213360000000 1.0
C      1  0.5569560000000  0.5347250000000  0.5613680000000 1.0
C      1  0.4898470000000  0.4627040000000  0.6073030000000 1.0
C      1  0.5991380000000  0.4598020000000  0.4531210000000 1.0
C      1  0.4092160000000  0.4583140000000  0.4358100000000 1.0
C      1  0.4888200000000  0.5387540000000  0.3924530000000 1.0
C      1  0.5996210000000  0.5383090000000  0.5452170000000 1.0
C      1  0.4113860000000  0.5431430000000  0.5651910000000 1.0
C      1  0.4335380000000  0.4173070000000  0.4939330000000 1.0
C      1  0.5290420000000  0.4192710000000  0.5600710000000 1.0
C      1  0.5363610000000  0.4188390000000  0.4437320000000 1.0
C      1  0.4289250000000  0.5857870000000  0.5055810000000 1.0
C      1  0.5292810000000  0.5834780000000  0.4372100000000 1.0
C      1  0.5418740000000  0.5839690000000  0.5601970000000 1.0
C      1  0.4112190000000  0.5561800000000  0.5394850000000 1.0
C      1  0.5785350000000  0.5538700000000  0.5577900000000 1.0
C      1  0.5109290000000  0.5532810000000  0.4046800000000 1.0
C      1  0.4088180000000  0.4412070000000  0.4596940000000 1.0
C      1  0.5793000000000  0.4424280000000  0.4398980000000 1.0
C      1  0.5119320000000  0.4480860000000  0.5967160000000 1.0
C      1  0.5649600000000  0.5452900000000  0.4191370000000 1.0
C      1  0.3973280000000  0.5449650000000  0.4842640000000 1.0
C      1  0.5401250000000  0.5419400000000  0.5984110000000 1.0
C      1  0.5577280000000  0.4549110000000  0.5783980000000 1.0
C      1  0.4007170000000  0.4581540000000  0.5165270000000 1.0
C      1  0.5404070000000  0.4570450000000  0.4017400000000 1.0
C      1  0.4886770000000  0.4929790000000  0.6055320000000 1.0
C      1  0.5938140000000  0.4888220000000  0.4508310000000 1.0
C      1  0.4090950000000  0.4875680000000  0.4428760000000 1.0
C      1  0.4928980000000  0.5094240000000  0.3937960000000 1.0
C      1  0.5974620000000  0.5087420000000  0.5474580000000 1.0
C      1  0.4098740000000  0.5143400000000  0.5613160000000 1.0
C      1  0.4575650000000  0.4048410000000  0.5019050000000 1.0
C      1  0.5226950000000  0.4046060000000  0.5364980000000 1.0
C      1  0.5177990000000  0.4121940000000  0.4645440000000 1.0
C      1  0.4580290000000  0.5893670000000  0.5020830000000 1.0
C      1  0.5204130000000  0.5870000000000  0.4653520000000 1.0
C      1  0.5232310000000  0.5888200000000  0.5379660000000 1.0
C      1  0.5935270000000  0.5494760000000  0.5188860000000 1.0
C      1  0.4696710000000  0.5489890000000  0.4117620000000 1.0
C      1  0.4397450000000  0.5505430000000  0.5697830000000 1.0
C      1  0.5891210000000  0.4530290000000  0.4788750000000 1.0
C      1  0.4701070000000  0.4511590000000  0.5892040000000 1.0
C      1  0.4361000000000  0.4503890000000  0.4289730000000 1.0
C      1  0.5412220000000  0.4499340000000  0.4716150000000 1.0
C      1  0.4436020000000  0.4662070000000  0.4917350000000 1.0
C      1  0.5098680000000  0.4526280000000  0.5359600000000 1.0
C      1  0.5248690000000  0.5588830000000  0.5330630000000 1.0
C      1  0.4602990000000  0.5604190000000  0.5111900000000 1.0
C      1  0.5161220000000  0.5572670000000  0.4661580000000 1.0
C      1  0.4657810000000  0.4754770000000  0.5707340000000 1.0
C      1  0.5817260000000  0.4786660000000  0.4909260000000 1.0
C      1  0.4513360000000  0.4776390000000  0.4349280000000 1.0
C      1  0.4663630000000  0.5236210000000  0.4284060000000 1.0
C      1  0.5807170000000  0.5254630000000  0.5057600000000 1.0
C      1  0.4528420000000  0.5256770000000  0.5618800000000 1.0
C      1  0.5610050000000  0.4764190000000  0.4096270000000 1.0
C      1  0.3949840000000  0.4749390000000  0.4934450000000 1.0
C      1  0.5385050000000  0.4924880000000  0.6002080000000 1.0
C      1  0.5625810000000  0.5272050000000  0.5887200000000 1.0
C      1  0.3962310000000  0.5272600000000  0.5068840000000 1.0
C      1  0.5467230000000  0.5270460000000  0.4053940000000 1.0
C      1  0.4798900000000  0.4720250000000  0.4431700000000 1.0
C      1  0.4573970000000  0.4720440000000  0.5367690000000 1.0
C      1  0.5596770000000  0.4762650000000  0.5103170000000 1.0
C      1  0.4787420000000  0.5283470000000  0.5488170000000 1.0
C      1  0.4627830000000  0.5266160000000  0.4575920000000 1.0
C      1  0.5556790000000  0.5279040000000  0.4899640000000 1.0
C      1  0.4241500000000  0.5492720000000  0.4386430000000 1.0
C      1  0.4861950000000  0.5455010000000  0.6015450000000 1.0
C      1  0.5916900000000  0.5490990000000  0.4645200000000 1.0
C      1  0.4228520000000  0.4502970000000  0.5648590000000 1.0
C      1  0.4863810000000  0.4568070000000  0.3956410000000 1.0
C      1  0.5956040000000  0.4580090000000  0.5402180000000 1.0
C      1  0.5290400000000  0.4955190000000  0.4755950000000 1.0
C      1  0.4590840000000  0.4906750000000  0.4881270000000 1.0
C      1  0.5069450000000  0.4929510000000  0.5406370000000 1.0
C      1  0.5273500000000  0.5023010000000  0.5218160000000 1.0
C      1  0.4754820000000  0.5000940000000  0.5087870000000 1.0
C      1  0.5033240000000  0.4968900000000  0.4657260000000 1.0
C      1  0.5233340000000  0.4696620000000  0.5523220000000 1.0
C      1  0.5334930000000  0.4616720000000  0.4457570000000 1.0
C      1  0.4491760000000  0.4524580000000  0.5155580000000 1.0
C      1  0.5325740000000  0.5400540000000  0.4491560000000 1.0
C      1  0.5281350000000  0.5400100000000  0.5553290000000 1.0
C      1  0.4405420000000  0.5426070000000  0.4983870000000 1.0
C      1  0.5237590000000  0.4523500000000  0.4934290000000 1.0
C      1  0.4959470000000  0.4488860000000  0.4877610000000 1.0
C      1  0.4896080000000  0.4498570000000  0.5164260000000 1.0
C      1  0.5161940000000  0.5509590000000  0.5086640000000 1.0
C      1  0.4869870000000  0.5496090000000  0.5050090000000 1.0
C      1  0.4921570000000  0.5466130000000  0.4762570000000 1.0
C      1  0.5267850000000  0.5622780000000  0.5771520000000 1.0
C      1  0.5522970000000  0.5635750000000  0.4403040000000 1.0
C      1  0.4226660000000  0.5633390000000  0.4854720000000 1.0
C      1  0.5242350000000  0.4388770000000  0.4237830000000 1.0
C      1  0.5551580000000  0.4335740000000  0.5594760000000 1.0
C      1  0.4241160000000  0.4359510000000  0.5177980000000 1.0
C      1  0.4318350000000  0.4303480000000  0.5484210000000 1.0
C      1  0.5726610000000  0.4366930000000  0.5361770000000 1.0
C      1  0.4945500000000  0.4386580000000  0.4178410000000 1.0
C      1  0.4332890000000  0.5679870000000  0.4550980000000 1.0
C      1  0.5726400000000  0.5675960000000  0.4652020000000 1.0
C      1  0.4962910000000  0.5632350000000  0.5803470000000 1.0
C      1  0.4436270000000  0.4836220000000  0.5900870000000 1.0
C      1  0.6118320000000  0.4906220000000  0.5000110000000 1.0
C      1  0.4441220000000  0.4895900000000  0.4051680000000 1.0
C      1  0.4424810000000  0.5179360000000  0.4096360000000 1.0
C      1  0.6088290000000  0.5188550000000  0.4956080000000 1.0
C      1  0.4448360000000  0.5124830000000  0.5912920000000 1.0
C      1  0.5743450000000  0.5082800000000  0.5311370000000 1.0
C      1  0.4908050000000  0.5054580000000  0.4214920000000 1.0
C      1  0.4326210000000  0.5141230000000  0.5431140000000 1.0
C      1  0.5738330000000  0.4973310000000  0.4693380000000 1.0
C      1  0.4878010000000  0.4954330000000  0.5774740000000 1.0
C      1  0.4346510000000  0.4938060000000  0.4542360000000 1.0
C      1  0.5243160000000  0.3993500000000  0.4900300000000 1.0
C      1  0.4780210000000  0.3966840000000  0.4825940000000 1.0
C      1  0.4966850000000  0.3954650000000  0.5268320000000 1.0
C      1  0.5262070000000  0.6037840000000  0.5112260000000 1.0
C      1  0.4797360000000  0.6029710000000  0.5185800000000 1.0
C      1  0.4960950000000  0.6029130000000  0.4748890000000 1.0
C      1  0.4594550000000  0.4192530000000  0.5522780000000 1.0
C      1  0.5633630000000  0.4243490000000  0.5121900000000 1.0
C      1  0.4773260000000  0.4244850000000  0.4370540000000 1.0
C      1  0.4602430000000  0.5802650000000  0.4497570000000 1.0
C      1  0.5648080000000  0.5797150000000  0.4919510000000 1.0
C      1  0.4795510000000  0.5749460000000  0.5595030000000 1.0
C      1  0.5667120000000  0.4343450000000  0.4812150000000 1.0
C      1  0.4483350000000  0.4278900000000  0.4423440000000 1.0
C      1  0.4778150000000  0.4274640000000  0.5739270000000 1.0
C      1  0.5757370000000  0.5723450000000  0.5184780000000 1.0
C      1  0.4512810000000  0.5686020000000  0.5498970000000 1.0
C      1  0.4774900000000  0.5723690000000  0.4269180000000 1.0
C      1  0.5641600000000  0.5050020000000  0.4101770000000 1.0
C      1  0.5644860000000  0.4984390000000  0.5936460000000 1.0
C      1  0.3905450000000  0.5042540000000  0.4899000000000 1.0
C      1  0.5006210000000  0.6107460000000  0.5016040000000 1.0
C      1  0.4998070000000  0.3896540000000  0.4992400000000 1.0
END
