TITL C-2441155-8282-78 0.082782926378013 125000 -15140.121377893 0 0 117 (C1) n - 1
REM
REM in /home/bkarasulu/work/CARBON/AIRSS/Generating-Clusters/ReaxFF-fromJPCA2015/Units_Real/with-SteepDescent/Higher-Symm
REM
REM
REM
REM
REM
REM ./C.cell (1df0a924f5614ab8850e4351716899ee)
REM
REM compiler GCC version 9.2.1 20190827 (Red Hat 9.2.1-1)
REM options -cpp -mtune=generic -march=x86-64 -g -O0 -fpre-include=/usr/include/finclude/math-vector-fortran.h
REM seed -309757526 -1062757783 2058989306 -763296203 741339125 39945391 214307235 -339746663 -1258903781 1269604504 1606950123 1085557594 -1304536355 -534097822 -1762202923 -2015902402 298775280 1342845988 1799251001 326359730 894941477 -20566658 2071772785 1772117104 -1728453854 -539062615 2041767257 -1178987471 -1057101705 266465965 -276976829 1973014854 -1997324130
REM
CELL 1.54180   50.00000   50.00000   50.00000   90.00000   90.00000   90.00000
LATT -1
SFAC C  
C      1  0.5743540000000  0.4608030000000  0.4961760000000 1.0
C      1  0.4812890000000  0.4202400000000  0.4973410000000 1.0
C      1  0.4192140000000  0.4861960000000  0.4966970000000 1.0
C      1  0.4642340000000  0.5748530000000  0.4919630000000 1.0
C      1  0.5553460000000  0.5565130000000  0.4913570000000 1.0
C      1  0.4428440000000  0.5322540000000  0.5442950000000 1.0
C      1  0.5107540000000  0.5579890000000  0.5491600000000 1.0
C      1  0.5683440000000  0.5095080000000  0.5493780000000 1.0
C      1  0.5228940000000  0.4431230000000  0.5442570000000 1.0
C      1  0.4487260000000  0.4525350000000  0.5538720000000 1.0
C      1  0.4248940000000  0.5202930000000  0.4563950000000 1.0
C      1  0.4972720000000  0.5776680000000  0.4566900000000 1.0
C      1  0.5717520000000  0.5273130000000  0.4562260000000 1.0
C      1  0.5478070000000  0.4387470000000  0.4572150000000 1.0
C      1  0.4571600000000  0.4370410000000  0.4581080000000 1.0
C      1  0.5184100000000  0.4766100000000  0.5109600000000 1.0
C      1  0.4661820000000  0.4637650000000  0.5029830000000 1.0
C      1  0.4708440000000  0.5073510000000  0.5081800000000 1.0
C      1  0.5026900000000  0.5334610000000  0.5171260000000 1.0
C      1  0.5283370000000  0.4967670000000  0.5290820000000 1.0
C      1  0.4404770000000  0.5392610000000  0.4997330000000 1.0
C      1  0.5129130000000  0.5652900000000  0.5035020000000 1.0
C      1  0.5722850000000  0.5078870000000  0.5025980000000 1.0
C      1  0.5277860000000  0.4381170000000  0.5020200000000 1.0
C      1  0.4426320000000  0.4462670000000  0.5058430000000 1.0
C      1  0.5477640000000  0.5747410000000  0.4717310000000 1.0
C      1  0.5827930000000  0.4778460000000  0.4744600000000 1.0
C      1  0.5038820000000  0.4114680000000  0.4740540000000 1.0
C      1  0.4163490000000  0.4679120000000  0.4729520000000 1.0
C      1  0.4450410000000  0.5686550000000  0.4712310000000 1.0
C      1  0.5130020000000  0.4248970000000  0.5249330000000 1.0
C      1  0.4349750000000  0.4627150000000  0.5295270000000 1.0
C      1  0.4402900000000  0.5534960000000  0.5255040000000 1.0
C      1  0.5279660000000  0.5693120000000  0.5297860000000 1.0
C      1  0.5823430000000  0.4972110000000  0.5275890000000 1.0
C      1  0.4914990000000  0.3964720000000  0.5088920000000 1.0
C      1  0.4069680000000  0.4912800000000  0.5219330000000 1.0
C      1  0.4544670000000  0.5911270000000  0.5158340000000 1.0
C      1  0.5647360000000  0.5590300000000  0.5152360000000 1.0
C      1  0.5819790000000  0.4680820000000  0.5241580000000 1.0
C      1  0.4753610000000  0.5048100000000  0.4575580000000 1.0
C      1  0.4967080000000  0.5239540000000  0.4557050000000 1.0
C      1  0.5201870000000  0.5077420000000  0.4572730000000 1.0
C      1  0.5161610000000  0.4794110000000  0.4563260000000 1.0
C      1  0.4870500000000  0.4792950000000  0.4587590000000 1.0
C      1  0.4658220000000  0.5715910000000  0.4511450000000 1.0
C      1  0.5577830000000  0.5544130000000  0.4520220000000 1.0
C      1  0.5683180000000  0.4627320000000  0.4548180000000 1.0
C      1  0.4860930000000  0.4253400000000  0.4562270000000 1.0
C      1  0.4217260000000  0.4898850000000  0.4542890000000 1.0
C      1  0.5317820000000  0.4441970000000  0.4343820000000 1.0
C      1  0.4556740000000  0.4540350000000  0.4352730000000 1.0
C      1  0.4422810000000  0.5266990000000  0.4349030000000 1.0
C      1  0.5082580000000  0.5632560000000  0.4343830000000 1.0
C      1  0.5617630000000  0.5115610000000  0.4348140000000 1.0
C      1  0.4391310000000  0.4790320000000  0.4342470000000 1.0
C      1  0.4612550000000  0.5500890000000  0.4333520000000 1.0
C      1  0.5359160000000  0.5522810000000  0.4332210000000 1.0
C      1  0.5606960000000  0.4817150000000  0.4340240000000 1.0
C      1  0.5022570000000  0.4434360000000  0.4396140000000 1.0
C      1  0.4873000000000  0.5481210000000  0.4207240000000 1.0
C      1  0.5409960000000  0.5268660000000  0.4208950000000 1.0
C      1  0.5396700000000  0.4683970000000  0.4195660000000 1.0
C      1  0.4817870000000  0.4545420000000  0.4219980000000 1.0
C      1  0.4501630000000  0.5023500000000  0.4211350000000 1.0
C      1  0.5053870000000  0.5256990000000  0.5884420000000 1.0
C      1  0.5248120000000  0.5054020000000  0.5900140000000 1.0
C      1  0.5108100000000  0.4787130000000  0.5914640000000 1.0
C      1  0.4816540000000  0.4835190000000  0.5905890000000 1.0
C      1  0.4794370000000  0.5126740000000  0.5917440000000 1.0
C      1  0.4427330000000  0.4982270000000  0.5698000000000 1.0
C      1  0.4765370000000  0.5499750000000  0.5700320000000 1.0
C      1  0.5462140000000  0.5413220000000  0.5745340000000 1.0
C      1  0.5481440000000  0.4652060000000  0.5674270000000 1.0
C      1  0.4867740000000  0.4476490000000  0.5693830000000 1.0
C      1  0.4629130000000  0.4903900000000  0.5495500000000 1.0
C      1  0.4716480000000  0.5289800000000  0.5514030000000 1.0
C      1  0.5099350000000  0.5192510000000  0.5410720000000 1.0
C      1  0.5450680000000  0.4913890000000  0.5525650000000 1.0
C      1  0.5025410000000  0.4648920000000  0.5507150000000 1.0
C      1  0.4918240000000  0.5401160000000  0.4788780000000 1.0
C      1  0.5260840000000  0.5150400000000  0.4853900000000 1.0
C      1  0.5300490000000  0.4755610000000  0.4840370000000 1.0
C      1  0.4859580000000  0.4658910000000  0.4839110000000 1.0
C      1  0.4602120000000  0.5064620000000  0.4815430000000 1.0
C      1  0.5484720000000  0.5502200000000  0.5303180000000 1.0
C      1  0.5575720000000  0.4616380000000  0.5200620000000 1.0
C      1  0.4856920000000  0.4354570000000  0.5226000000000 1.0
C      1  0.4465530000000  0.4916270000000  0.5278150000000 1.0
C      1  0.4658840000000  0.5668330000000  0.5309600000000 1.0
C      1  0.4278180000000  0.5439120000000  0.4742730000000 1.0
C      1  0.5182070000000  0.5798090000000  0.4763970000000 1.0
C      1  0.5844490000000  0.5083950000000  0.4757200000000 1.0
C      1  0.5317280000000  0.4229700000000  0.4762180000000 1.0
C      1  0.4362070000000  0.4454870000000  0.4771290000000 1.0
C      1  0.4934040000000  0.5232760000000  0.4083990000000 1.0
C      1  0.5196390000000  0.5130730000000  0.4084430000000 1.0
C      1  0.5188100000000  0.4847430000000  0.4078210000000 1.0
C      1  0.4909980000000  0.4776760000000  0.4077120000000 1.0
C      1  0.4756250000000  0.5014250000000  0.4083630000000 1.0
C      1  0.4851210000000  0.5698650000000  0.5519650000000 1.0
C      1  0.5623180000000  0.5383260000000  0.5497550000000 1.0
C      1  0.5520490000000  0.4484930000000  0.5434030000000 1.0
C      1  0.4707900000000  0.4346660000000  0.5477620000000 1.0
C      1  0.4265050000000  0.5071600000000  0.5447570000000 1.0
C      1  0.4633340000000  0.4636420000000  0.5788390000000 1.0
C      1  0.4537180000000  0.5220160000000  0.5826420000000 1.0
C      1  0.5174810000000  0.5488830000000  0.5756040000000 1.0
C      1  0.5507430000000  0.5146040000000  0.5827470000000 1.0
C      1  0.5249190000000  0.4556990000000  0.5820340000000 1.0
C      1  0.4690920000000  0.5465010000000  0.4948310000000 1.0
C      1  0.5300910000000  0.5434940000000  0.4892130000000 1.0
C      1  0.5483440000000  0.4967010000000  0.4894880000000 1.0
C      1  0.5039880000000  0.4472680000000  0.4899340000000 1.0
C      1  0.4481170000000  0.4819640000000  0.4899640000000 1.0
C      1  0.4992710000000  0.5086840000000  0.5034240000000 1.0
C      1  0.4919180000000  0.4925980000000  0.5489130000000 1.0
END
