TITL C-2441156-4686-854 0.0591636528506389 125000 -24509.9993548312 0 0 168 (C1) n - 1
REM
REM in /home/bkarasulu/work/CARBON/AIRSS/Generating-Clusters/ReaxFF-fromJPCA2015/Units_Real/with-SteepDescent/Higher-Symm
REM
REM
REM
REM
REM
REM ./C.cell (1df0a924f5614ab8850e4351716899ee)
REM
REM compiler GCC version 9.2.1 20190827 (Red Hat 9.2.1-1)
REM options -cpp -mtune=generic -march=x86-64 -g -O0 -fpre-include=/usr/include/finclude/math-vector-fortran.h
REM seed 1413163216 -321053386 -879855371 585785232 1036862149 699417590 -982493405 1998584307 -1650108070 -1393466020 372834571 -1483774029 -1518938930 1537482601 1034001442 864910111 -312978654 -545279242 1793662656 689943422 -118020671 -1207199995 -24796667 -4202848 -659433428 -1176270417 -1260532949 417524078 1561904051 -1133012052 -282571435 798481743 -340899718
REM
CELL 1.54180   50.00000   50.00000   50.00000   90.00000   90.00000   90.00000
LATT -1
SFAC C  
C      1  0.4313580000000  0.5600490000000  0.4614100000000 1.0
C      1  0.5201640000000  0.5577400000000  0.4228790000000 1.0
C      1  0.5896420000000  0.5490630000000  0.4882750000000 1.0
C      1  0.5227770000000  0.5608290000000  0.5746170000000 1.0
C      1  0.4384350000000  0.5606600000000  0.5464620000000 1.0
C      1  0.5668700000000  0.4383320000000  0.4574870000000 1.0
C      1  0.4835590000000  0.4440850000000  0.4220780000000 1.0
C      1  0.4096710000000  0.4543240000000  0.4905660000000 1.0
C      1  0.4755580000000  0.4363590000000  0.5743960000000 1.0
C      1  0.5628600000000  0.4418070000000  0.5473870000000 1.0
C      1  0.4979330000000  0.3899890000000  0.4743090000000 1.0
C      1  0.5230660000000  0.3913340000000  0.4893190000000 1.0
C      1  0.5175350000000  0.3917380000000  0.5170910000000 1.0
C      1  0.4890210000000  0.3895470000000  0.5199910000000 1.0
C      1  0.4763370000000  0.3888160000000  0.4938130000000 1.0
C      1  0.5048930000000  0.6009270000000  0.4752510000000 1.0
C      1  0.4781570000000  0.6083550000000  0.4888850000000 1.0
C      1  0.4844920000000  0.6107950000000  0.5166470000000 1.0
C      1  0.5138200000000  0.6106800000000  0.5198170000000 1.0
C      1  0.5266550000000  0.6087810000000  0.4940370000000 1.0
C      1  0.5493260000000  0.5626690000000  0.5623490000000 1.0
C      1  0.4590210000000  0.5642570000000  0.5656490000000 1.0
C      1  0.4211700000000  0.5640750000000  0.4873850000000 1.0
C      1  0.4906030000000  0.5622990000000  0.4201140000000 1.0
C      1  0.5728150000000  0.5560740000000  0.4649510000000 1.0
C      1  0.4507260000000  0.4334800000000  0.5595890000000 1.0
C      1  0.5410890000000  0.4372520000000  0.5664340000000 1.0
C      1  0.5784690000000  0.4366160000000  0.4838260000000 1.0
C      1  0.5110310000000  0.4373000000000  0.4207360000000 1.0
C      1  0.4255130000000  0.4391440000000  0.4674070000000 1.0
C      1  0.5893800000000  0.4834430000000  0.4512860000000 1.0
C      1  0.5781770000000  0.4837900000000  0.5685390000000 1.0
C      1  0.4608820000000  0.4791720000000  0.5921180000000 1.0
C      1  0.3954560000000  0.4792670000000  0.4805260000000 1.0
C      1  0.4855460000000  0.4666650000000  0.4057390000000 1.0
C      1  0.4172100000000  0.5375190000000  0.4532400000000 1.0
C      1  0.4244620000000  0.5190770000000  0.5672790000000 1.0
C      1  0.5369240000000  0.5193500000000  0.5948710000000 1.0
C      1  0.6034510000000  0.5232110000000  0.4937710000000 1.0
C      1  0.5133530000000  0.5113860000000  0.4001340000000 1.0
C      1  0.4783700000000  0.5840050000000  0.5585920000000 1.0
C      1  0.4358470000000  0.5850110000000  0.4993700000000 1.0
C      1  0.4811020000000  0.5822620000000  0.4379440000000 1.0
C      1  0.5522670000000  0.5770450000000  0.4627930000000 1.0
C      1  0.5490280000000  0.5826260000000  0.5410430000000 1.0
C      1  0.5221840000000  0.4172970000000  0.5592490000000 1.0
C      1  0.5640450000000  0.4181440000000  0.4995990000000 1.0
C      1  0.5203750000000  0.4168650000000  0.4397500000000 1.0
C      1  0.4459360000000  0.4193460000000  0.4652120000000 1.0
C      1  0.4528330000000  0.4139990000000  0.5400010000000 1.0
C      1  0.5872440000000  0.5361960000000  0.5142490000000 1.0
C      1  0.5133520000000  0.5372540000000  0.5891840000000 1.0
C      1  0.4213170000000  0.5376160000000  0.5454360000000 1.0
C      1  0.4274100000000  0.5220310000000  0.4317840000000 1.0
C      1  0.5312400000000  0.5334150000000  0.4118160000000 1.0
C      1  0.4111130000000  0.4610840000000  0.5165970000000 1.0
C      1  0.4817570000000  0.4598390000000  0.5902050000000 1.0
C      1  0.5796630000000  0.4651760000000  0.5463190000000 1.0
C      1  0.5725830000000  0.4613890000000  0.4409380000000 1.0
C      1  0.4605280000000  0.4773970000000  0.4130810000000 1.0
C      1  0.4336740000000  0.4714450000000  0.4236740000000 1.0
C      1  0.5558460000000  0.4644720000000  0.4168500000000 1.0
C      1  0.5908590000000  0.4741480000000  0.5162040000000 1.0
C      1  0.5107860000000  0.4691110000000  0.5931540000000 1.0
C      1  0.4126950000000  0.4682280000000  0.5441460000000 1.0
C      1  0.5604680000000  0.5336880000000  0.4176710000000 1.0
C      1  0.4483210000000  0.5273970000000  0.4122230000000 1.0
C      1  0.4119370000000  0.5274440000000  0.5199630000000 1.0
C      1  0.4857420000000  0.5298360000000  0.5939630000000 1.0
C      1  0.5902920000000  0.5312300000000  0.5434900000000 1.0
C      1  0.5327530000000  0.5310340000000  0.4978840000000 1.0
C      1  0.5267320000000  0.5269230000000  0.5441250000000 1.0
C      1  0.4717210000000  0.5277410000000  0.5350130000000 1.0
C      1  0.4736080000000  0.5191370000000  0.4884280000000 1.0
C      1  0.5078240000000  0.5291830000000  0.4553050000000 1.0
C      1  0.4523630000000  0.4706480000000  0.4894090000000 1.0
C      1  0.4823990000000  0.4720470000000  0.5273710000000 1.0
C      1  0.5226850000000  0.4748920000000  0.5280200000000 1.0
C      1  0.5413260000000  0.4701110000000  0.4822020000000 1.0
C      1  0.4971510000000  0.4787050000000  0.4567680000000 1.0
C      1  0.5748710000000  0.5086820000000  0.4124110000000 1.0
C      1  0.5912060000000  0.5052240000000  0.5547090000000 1.0
C      1  0.4659040000000  0.5071990000000  0.5982470000000 1.0
C      1  0.3939700000000  0.5057910000000  0.4909520000000 1.0
C      1  0.4614050000000  0.5042570000000  0.4016130000000 1.0
C      1  0.4186310000000  0.4945660000000  0.4328390000000 1.0
C      1  0.4168050000000  0.4912890000000  0.5645120000000 1.0
C      1  0.5334630000000  0.4920630000000  0.6048080000000 1.0
C      1  0.6074760000000  0.4950400000000  0.4991060000000 1.0
C      1  0.5499620000000  0.4930070000000  0.4166590000000 1.0
C      1  0.5962020000000  0.4557350000000  0.4939890000000 1.0
C      1  0.5361300000000  0.4546330000000  0.5877870000000 1.0
C      1  0.4293960000000  0.4520030000000  0.5621900000000 1.0
C      1  0.4190660000000  0.4545520000000  0.4435750000000 1.0
C      1  0.5279860000000  0.4590560000000  0.4084760000000 1.0
C      1  0.4030640000000  0.5445200000000  0.4995980000000 1.0
C      1  0.4628480000000  0.5463900000000  0.5866340000000 1.0
C      1  0.5690690000000  0.5402410000000  0.5641580000000 1.0
C      1  0.5754750000000  0.5366620000000  0.4434600000000 1.0
C      1  0.4723860000000  0.5440340000000  0.4063240000000 1.0
C      1  0.5114170000000  0.4819220000000  0.4007990000000 1.0
C      1  0.6037480000000  0.4776350000000  0.4763700000000 1.0
C      1  0.5529310000000  0.4780160000000  0.5902440000000 1.0
C      1  0.4341770000000  0.4740110000000  0.5796180000000 1.0
C      1  0.4030120000000  0.4779440000000  0.4513670000000 1.0
C      1  0.4856070000000  0.5198650000000  0.3955240000000 1.0
C      1  0.3971640000000  0.5289750000000  0.4757510000000 1.0
C      1  0.4447240000000  0.5245220000000  0.5882330000000 1.0
C      1  0.5608000000000  0.5180270000000  0.5792530000000 1.0
C      1  0.5886900000000  0.5101080000000  0.4384640000000 1.0
C      1  0.5206240000000  0.4628760000000  0.4630220000000 1.0
C      1  0.5394840000000  0.4590620000000  0.5085310000000 1.0
C      1  0.5020830000000  0.4556930000000  0.5415970000000 1.0
C      1  0.4551620000000  0.4699170000000  0.5183510000000 1.0
C      1  0.4696990000000  0.4733440000000  0.4654740000000 1.0
C      1  0.4806860000000  0.5330120000000  0.4651730000000 1.0
C      1  0.4611810000000  0.5326310000000  0.5094370000000 1.0
C      1  0.4989550000000  0.5378880000000  0.5358070000000 1.0
C      1  0.5459940000000  0.5291300000000  0.5226680000000 1.0
C      1  0.5321220000000  0.5354060000000  0.4688280000000 1.0
C      1  0.4459320000000  0.5803490000000  0.5260080000000 1.0
C      1  0.4577810000000  0.5772340000000  0.4572170000000 1.0
C      1  0.5309270000000  0.5773740000000  0.4422140000000 1.0
C      1  0.5485770000000  0.5758180000000  0.5125100000000 1.0
C      1  0.5071310000000  0.5826960000000  0.5627340000000 1.0
C      1  0.5578000000000  0.4203410000000  0.5277310000000 1.0
C      1  0.5455530000000  0.4186260000000  0.4550630000000 1.0
C      1  0.4727420000000  0.4258620000000  0.4499820000000 1.0
C      1  0.4497890000000  0.4203580000000  0.5125590000000 1.0
C      1  0.4933170000000  0.4161260000000  0.5633840000000 1.0
C      1  0.4976740000000  0.5630640000000  0.5204350000000 1.0
C      1  0.4726260000000  0.5611190000000  0.5058070000000 1.0
C      1  0.4811440000000  0.5622570000000  0.4766510000000 1.0
C      1  0.5098750000000  0.5688410000000  0.4784540000000 1.0
C      1  0.5206790000000  0.5690510000000  0.5052680000000 1.0
C      1  0.4982310000000  0.4354480000000  0.5213750000000 1.0
C      1  0.5209340000000  0.4380140000000  0.5041770000000 1.0
C      1  0.5107870000000  0.4401500000000  0.4776640000000 1.0
C      1  0.4833490000000  0.4350880000000  0.4766270000000 1.0
C      1  0.4744620000000  0.4332500000000  0.5039060000000 1.0
C      1  0.5324110000000  0.4957000000000  0.4406250000000 1.0
C      1  0.5664870000000  0.4889620000000  0.5080160000000 1.0
C      1  0.5084400000000  0.4869380000000  0.5678930000000 1.0
C      1  0.4439730000000  0.4930190000000  0.5293010000000 1.0
C      1  0.4533100000000  0.4956370000000  0.4570890000000 1.0
C      1  0.4716110000000  0.5137790000000  0.4448100000000 1.0
C      1  0.4340310000000  0.5114210000000  0.5087080000000 1.0
C      1  0.4864040000000  0.4954380000000  0.5597090000000 1.0
C      1  0.5569950000000  0.5040400000000  0.5296490000000 1.0
C      1  0.5459340000000  0.5105730000000  0.4615290000000 1.0
C      1  0.4958290000000  0.4057370000000  0.4502220000000 1.0
C      1  0.5461130000000  0.4055490000000  0.4805570000000 1.0
C      1  0.5342130000000  0.4060040000000  0.5357580000000 1.0
C      1  0.4776040000000  0.4014070000000  0.5439460000000 1.0
C      1  0.4505660000000  0.4027770000000  0.4891610000000 1.0
C      1  0.5066630000000  0.5934940000000  0.4461250000000 1.0
C      1  0.4540520000000  0.5965150000000  0.4800210000000 1.0
C      1  0.4676500000000  0.5968920000000  0.5356090000000 1.0
C      1  0.5239110000000  0.5975030000000  0.5440730000000 1.0
C      1  0.5496940000000  0.5923360000000  0.4883070000000 1.0
C      1  0.5571150000000  0.4924840000000  0.4809030000000 1.0
C      1  0.4620430000000  0.5055170000000  0.5494530000000 1.0
C      1  0.4385140000000  0.4945730000000  0.4825030000000 1.0
C      1  0.5004510000000  0.5044300000000  0.4404540000000 1.0
C      1  0.5335690000000  0.4984890000000  0.5473350000000 1.0
C      1  0.5005850000000  0.4833090000000  0.5106800000000 1.0
C      1  0.5077360000000  0.5267570000000  0.5066660000000 1.0
C      1  0.4964510000000  0.5047920000000  0.4942280000000 1.0
END
