TITL C-2441162-9305-711 0.00153466446828384 125000 -6886.2090381886 0 0 47 (C1) n - 1
REM
REM in /home/bkarasulu/work/CARBON/AIRSS/Generating-Clusters/ReaxFF-fromJPCA2015/Units_Real/with-SteepDescent/Higher-Symm
REM
REM
REM
REM
REM
REM ./C.cell (1df0a924f5614ab8850e4351716899ee)
REM
REM compiler GCC version 9.2.1 20190827 (Red Hat 9.2.1-1)
REM options -cpp -mtune=generic -march=x86-64 -g -O0 -fpre-include=/usr/include/finclude/math-vector-fortran.h
REM seed 1466073602 2127695003 1307106207 1953772106 1641767939 -684883977 1964286902 -633838530 1076795064 496625746 -17775742 -1056389713 1962352468 -702375496 142253546 1411050647 -1497684149 296112326 2081237578 -215995075 -885091413 1240435862 -825340655 99928556 -954588799 275488995 2050188453 -11168162 -1754087473 -501038863 -235025645 1706014565 1335132257
REM
CELL 1.54180   50.00000   50.00000   50.00000   90.00000   90.00000   90.00000
LATT -1
SFAC C  
C      1  0.5178320000000  0.5117950000000  0.5547290000000 1.0
C      1  0.5172130000000  0.4887840000000  0.4475220000000 1.0
C      1  0.4881930000000  0.5121280000000  0.5539420000000 1.0
C      1  0.4872910000000  0.4874520000000  0.4466360000000 1.0
C      1  0.5298330000000  0.5146350000000  0.4427890000000 1.0
C      1  0.5313480000000  0.4868190000000  0.5595520000000 1.0
C      1  0.4727780000000  0.5122870000000  0.4434270000000 1.0
C      1  0.4727950000000  0.4885520000000  0.5590360000000 1.0
C      1  0.4417700000000  0.5344250000000  0.4743050000000 1.0
C      1  0.4590650000000  0.4626830000000  0.5252010000000 1.0
C      1  0.5587060000000  0.5343550000000  0.4762150000000 1.0
C      1  0.5496630000000  0.4642200000000  0.5248080000000 1.0
C      1  0.5382600000000  0.5248970000000  0.5383760000000 1.0
C      1  0.5380200000000  0.4745970000000  0.4626470000000 1.0
C      1  0.4686410000000  0.5253410000000  0.5353520000000 1.0
C      1  0.4659100000000  0.4745030000000  0.4620090000000 1.0
C      1  0.5252130000000  0.4534660000000  0.5308700000000 1.0
C      1  0.5322670000000  0.5478020000000  0.4723090000000 1.0
C      1  0.4707590000000  0.4445340000000  0.5432860000000 1.0
C      1  0.4644570000000  0.5524470000000  0.4695070000000 1.0
C      1  0.5121890000000  0.5633580000000  0.5270040000000 1.0
C      1  0.5096740000000  0.4360400000000  0.4763030000000 1.0
C      1  0.4892580000000  0.5665050000000  0.5244280000000 1.0
C      1  0.4875980000000  0.4290850000000  0.4747210000000 1.0
C      1  0.4435480000000  0.4919180000000  0.4719690000000 1.0
C      1  0.4461660000000  0.5105860000000  0.5231530000000 1.0
C      1  0.5601060000000  0.4923010000000  0.4729760000000 1.0
C      1  0.5588200000000  0.5091230000000  0.5254440000000 1.0
C      1  0.4447570000000  0.5135420000000  0.4524570000000 1.0
C      1  0.4503030000000  0.4872770000000  0.5400860000000 1.0
C      1  0.5575800000000  0.5148390000000  0.4541470000000 1.0
C      1  0.5556850000000  0.4858470000000  0.5427340000000 1.0
C      1  0.4964360000000  0.5201620000000  0.4946410000000 1.0
C      1  0.4796610000000  0.4706760000000  0.5038760000000 1.0
C      1  0.5224800000000  0.5344190000000  0.4960320000000 1.0
C      1  0.5255360000000  0.4691250000000  0.5067880000000 1.0
C      1  0.4716550000000  0.4523350000000  0.4806650000000 1.0
C      1  0.4804020000000  0.5414850000000  0.5139710000000 1.0
C      1  0.5315050000000  0.4533440000000  0.4809000000000 1.0
C      1  0.5323230000000  0.5447070000000  0.5206890000000 1.0
C      1  0.4870920000000  0.5329180000000  0.4607930000000 1.0
C      1  0.4863620000000  0.4616110000000  0.5598590000000 1.0
C      1  0.5151720000000  0.5384390000000  0.4508750000000 1.0
C      1  0.5157310000000  0.4627120000000  0.5551230000000 1.0
C      1  0.5620840000000  0.5110410000000  0.4958430000000 1.0
C      1  0.4402440000000  0.5112270000000  0.4942780000000 1.0
C      1  0.4992330000000  0.4917260000000  0.5026200000000 1.0
END
