TITL C-2441160-1326-595 0.0249990355228249 125000 -12477.1234153296 0 0 89 (C1) n - 1
REM
REM in /home/bkarasulu/work/CARBON/AIRSS/Generating-Clusters/ReaxFF-fromJPCA2015/Units_Real/with-SteepDescent/Higher-Symm
REM
REM
REM
REM
REM
REM ./C.cell (1df0a924f5614ab8850e4351716899ee)
REM
REM compiler GCC version 9.2.1 20190827 (Red Hat 9.2.1-1)
REM options -cpp -mtune=generic -march=x86-64 -g -O0 -fpre-include=/usr/include/finclude/math-vector-fortran.h
REM seed 577999644 2010412315 2061377426 450363414 1515680449 -1754569471 619209770 -540196597 1199210543 1052176142 1771027886 -1214503267 -1161677670 -192198723 -945481705 937181616 603625546 -150305028 -1817357093 -439528197 216884931 -1507810626 -1456034633 -813570885 585655103 2002895355 493688214 -1601153769 -857074729 884506108 -1707486015 1061665660 -1748644948
REM
CELL 1.54180   50.00000   50.00000   50.00000   90.00000   90.00000   90.00000
LATT -1
SFAC C  
C      1  0.4369940000000  0.4823870000000  0.4539820000000 1.0
C      1  0.5414970000000  0.4243720000000  0.4801760000000 1.0
C      1  0.4657930000000  0.5060310000000  0.4943940000000 1.0
C      1  0.5794830000000  0.5101870000000  0.4846370000000 1.0
C      1  0.4472080000000  0.5267240000000  0.5621450000000 1.0
C      1  0.4582780000000  0.4443430000000  0.5374930000000 1.0
C      1  0.5053230000000  0.4941840000000  0.4124960000000 1.0
C      1  0.5692080000000  0.4970530000000  0.4576090000000 1.0
C      1  0.5709390000000  0.4640520000000  0.5075140000000 1.0
C      1  0.5163780000000  0.4438580000000  0.4812000000000 1.0
C      1  0.5391910000000  0.4937170000000  0.4995690000000 1.0
C      1  0.5037280000000  0.4501160000000  0.4396760000000 1.0
C      1  0.5504820000000  0.4498320000000  0.5217210000000 1.0
C      1  0.4908520000000  0.4044330000000  0.5133820000000 1.0
C      1  0.4832210000000  0.4840580000000  0.5002540000000 1.0
C      1  0.4639120000000  0.4702690000000  0.4508700000000 1.0
C      1  0.5058360000000  0.5661060000000  0.4628820000000 1.0
C      1  0.5294060000000  0.4954870000000  0.5744940000000 1.0
C      1  0.5021200000000  0.5859930000000  0.4814440000000 1.0
C      1  0.4997970000000  0.4881190000000  0.5251300000000 1.0
C      1  0.4376620000000  0.5111890000000  0.4506040000000 1.0
C      1  0.4343610000000  0.5110900000000  0.5395850000000 1.0
C      1  0.5505550000000  0.5027990000000  0.4347820000000 1.0
C      1  0.5557190000000  0.5603240000000  0.4674420000000 1.0
C      1  0.4139620000000  0.4898180000000  0.4954550000000 1.0
C      1  0.5187160000000  0.4551620000000  0.5664900000000 1.0
C      1  0.5497030000000  0.5714370000000  0.4930900000000 1.0
C      1  0.5316190000000  0.4846080000000  0.4207120000000 1.0
C      1  0.4219130000000  0.4698400000000  0.4758900000000 1.0
C      1  0.4970890000000  0.5422640000000  0.4777070000000 1.0
C      1  0.5243240000000  0.5851750000000  0.4996570000000 1.0
C      1  0.5321120000000  0.5638030000000  0.4493140000000 1.0
C      1  0.5018440000000  0.4400050000000  0.5199300000000 1.0
C      1  0.5072100000000  0.4137780000000  0.5345040000000 1.0
C      1  0.5540940000000  0.4870480000000  0.5606660000000 1.0
C      1  0.5495120000000  0.4832470000000  0.4733140000000 1.0
C      1  0.4839890000000  0.5119470000000  0.4143380000000 1.0
C      1  0.4893530000000  0.4325550000000  0.4746510000000 1.0
C      1  0.5626960000000  0.4449370000000  0.4822230000000 1.0
C      1  0.4252180000000  0.5317630000000  0.5185930000000 1.0
C      1  0.4746650000000  0.4826090000000  0.5703310000000 1.0
C      1  0.4868410000000  0.4475660000000  0.5407640000000 1.0
C      1  0.5550720000000  0.5272730000000  0.5508890000000 1.0
C      1  0.4425810000000  0.5545960000000  0.5224870000000 1.0
C      1  0.4537500000000  0.4681630000000  0.5546050000000 1.0
C      1  0.5723230000000  0.5364270000000  0.4699520000000 1.0
C      1  0.4227940000000  0.4729670000000  0.5167660000000 1.0
C      1  0.4780080000000  0.5276440000000  0.5328970000000 1.0
C      1  0.5334160000000  0.5437990000000  0.4291610000000 1.0
C      1  0.4292540000000  0.5306570000000  0.4700100000000 1.0
C      1  0.5063570000000  0.5751500000000  0.5204130000000 1.0
C      1  0.5284030000000  0.4860850000000  0.5253750000000 1.0
C      1  0.5003600000000  0.5122770000000  0.5376880000000 1.0
C      1  0.4671420000000  0.5107780000000  0.5768620000000 1.0
C      1  0.5284900000000  0.5201810000000  0.4429180000000 1.0
C      1  0.5035040000000  0.4824970000000  0.4800420000000 1.0
C      1  0.5511830000000  0.4585970000000  0.4579810000000 1.0
C      1  0.4521320000000  0.4361220000000  0.5098810000000 1.0
C      1  0.5622720000000  0.5287800000000  0.4947170000000 1.0
C      1  0.4591140000000  0.5476760000000  0.5460200000000 1.0
C      1  0.5245210000000  0.4478950000000  0.5086640000000 1.0
C      1  0.4731120000000  0.4193110000000  0.4961330000000 1.0
C      1  0.5296870000000  0.4583640000000  0.4350230000000 1.0
C      1  0.5104360000000  0.5412790000000  0.5620270000000 1.0
C      1  0.5684070000000  0.5024680000000  0.5406640000000 1.0
C      1  0.4174980000000  0.5190120000000  0.4944700000000 1.0
C      1  0.4708110000000  0.5300080000000  0.4784650000000 1.0
C      1  0.4672920000000  0.5470610000000  0.4257910000000 1.0
C      1  0.4309600000000  0.4518610000000  0.4983400000000 1.0
C      1  0.4859360000000  0.4870090000000  0.4582390000000 1.0
C      1  0.4606860000000  0.5230070000000  0.4318640000000 1.0
C      1  0.4982280000000  0.5059110000000  0.4382900000000 1.0
C      1  0.5590720000000  0.5506820000000  0.5101230000000 1.0
C      1  0.4504500000000  0.5504980000000  0.4765320000000 1.0
C      1  0.5037940000000  0.4783990000000  0.5746100000000 1.0
C      1  0.5412750000000  0.4651240000000  0.5464650000000 1.0
C      1  0.5034330000000  0.4316800000000  0.5584650000000 1.0
C      1  0.4597780000000  0.5089970000000  0.5218750000000 1.0
C      1  0.4862470000000  0.5316560000000  0.5730810000000 1.0
C      1  0.5449470000000  0.5479830000000  0.5332730000000 1.0
C      1  0.5106520000000  0.5329360000000  0.5016370000000 1.0
C      1  0.4831610000000  0.5794120000000  0.5025850000000 1.0
C      1  0.5769160000000  0.4917350000000  0.5140580000000 1.0
C      1  0.4781300000000  0.4438530000000  0.4493240000000 1.0
C      1  0.5164110000000  0.5492350000000  0.5290290000000 1.0
C      1  0.5331030000000  0.5238070000000  0.5701860000000 1.0
C      1  0.4324400000000  0.4816870000000  0.5414730000000 1.0
C      1  0.4565700000000  0.5670980000000  0.4999090000000 1.0
C      1  0.5170920000000  0.5080780000000  0.4896280000000 1.0
END
