TITL C-2441157-2117-362 0.0617470960911402 125000 -24335.3242638758 0 0 169 (C1) n - 1
REM
REM in /home/bkarasulu/work/CARBON/AIRSS/Generating-Clusters/ReaxFF-fromJPCA2015/Units_Real/with-SteepDescent/Higher-Symm
REM
REM
REM
REM
REM
REM ./C.cell (1df0a924f5614ab8850e4351716899ee)
REM
REM compiler GCC version 9.2.1 20190827 (Red Hat 9.2.1-1)
REM options -cpp -mtune=generic -march=x86-64 -g -O0 -fpre-include=/usr/include/finclude/math-vector-fortran.h
REM seed 1297404715 -544587482 967122120 -1887744444 -432985724 -946497725 -1762916886 -1467989559 -270625362 -578501259 -1657170019 1762971632 1364860990 -1272661394 373329180 1956851544 -1270782800 1453460650 646863453 -1983317447 -1708546430 -610109674 1423704730 859052012 -1912232795 -839011532 491908573 -166754843 -84904119 949924663 -345513904 -93234788 1977312376
REM
CELL 1.54180   50.00000   50.00000   50.00000   90.00000   90.00000   90.00000
LATT -1
SFAC C  
C      1  0.4175040000000  0.5528790000000  0.4739120000000 1.0
C      1  0.5477640000000  0.4867260000000  0.4151250000000 1.0
C      1  0.4877380000000  0.4159150000000  0.5521830000000 1.0
C      1  0.4137140000000  0.4473780000000  0.5210290000000 1.0
C      1  0.5825600000000  0.5509840000000  0.5103820000000 1.0
C      1  0.5866720000000  0.4474080000000  0.4885560000000 1.0
C      1  0.5503000000000  0.5220430000000  0.5846590000000 1.0
C      1  0.4463240000000  0.4855720000000  0.5845960000000 1.0
C      1  0.4486640000000  0.5122880000000  0.4138960000000 1.0
C      1  0.4858110000000  0.5820570000000  0.4536980000000 1.0
C      1  0.5207520000000  0.4144430000000  0.4457960000000 1.0
C      1  0.5105430000000  0.5851200000000  0.5521690000000 1.0
C      1  0.5812070000000  0.5501210000000  0.4802320000000 1.0
C      1  0.4502960000000  0.4844580000000  0.4185250000000 1.0
C      1  0.5198550000000  0.4185500000000  0.5502520000000 1.0
C      1  0.5839940000000  0.4491850000000  0.5190600000000 1.0
C      1  0.4213930000000  0.5552990000000  0.5314630000000 1.0
C      1  0.4167410000000  0.4461600000000  0.4788450000000 1.0
C      1  0.4488460000000  0.5141860000000  0.5768900000000 1.0
C      1  0.5512030000000  0.4901000000000  0.5856950000000 1.0
C      1  0.5499630000000  0.5143870000000  0.4131670000000 1.0
C      1  0.5132440000000  0.5845100000000  0.4520800000000 1.0
C      1  0.4765340000000  0.4176560000000  0.4483260000000 1.0
C      1  0.4809220000000  0.5806210000000  0.5498890000000 1.0
C      1  0.5668960000000  0.4745000000000  0.5687870000000 1.0
C      1  0.4763360000000  0.5494730000000  0.5470980000000 1.0
C      1  0.5501630000000  0.5544430000000  0.4766510000000 1.0
C      1  0.5696360000000  0.5260710000000  0.4298920000000 1.0
C      1  0.4437500000000  0.4769930000000  0.4456920000000 1.0
C      1  0.4454610000000  0.5182760000000  0.5465840000000 1.0
C      1  0.4800680000000  0.4460700000000  0.4533030000000 1.0
C      1  0.5272070000000  0.5663380000000  0.4358180000000 1.0
C      1  0.5189180000000  0.4471230000000  0.5511970000000 1.0
C      1  0.5552390000000  0.4503030000000  0.5193080000000 1.0
C      1  0.4497900000000  0.5517720000000  0.5266820000000 1.0
C      1  0.4453350000000  0.4494660000000  0.4866820000000 1.0
C      1  0.4379500000000  0.4753970000000  0.5602890000000 1.0
C      1  0.5229120000000  0.5599840000000  0.5556710000000 1.0
C      1  0.4462150000000  0.5532950000000  0.4790060000000 1.0
C      1  0.4296320000000  0.5262250000000  0.4291440000000 1.0
C      1  0.5564110000000  0.4733230000000  0.4387610000000 1.0
C      1  0.5501640000000  0.5222220000000  0.5563660000000 1.0
C      1  0.5197260000000  0.4436890000000  0.4455110000000 1.0
C      1  0.4722880000000  0.5632280000000  0.4384620000000 1.0
C      1  0.4740740000000  0.4397490000000  0.5599340000000 1.0
C      1  0.4427110000000  0.4480900000000  0.5153270000000 1.0
C      1  0.5634950000000  0.5640280000000  0.5265860000000 1.0
C      1  0.5698470000000  0.4301260000000  0.4737720000000 1.0
C      1  0.4029750000000  0.4714460000000  0.4722640000000 1.0
C      1  0.4722410000000  0.4712270000000  0.4069590000000 1.0
C      1  0.4714430000000  0.4032900000000  0.4731970000000 1.0
C      1  0.4033750000000  0.5316200000000  0.5307820000000 1.0
C      1  0.5973840000000  0.4725670000000  0.5292320000000 1.0
C      1  0.5955440000000  0.5261820000000  0.4704650000000 1.0
C      1  0.4676110000000  0.5285390000000  0.5945090000000 1.0
C      1  0.5285020000000  0.4753210000000  0.5949350000000 1.0
C      1  0.5273850000000  0.5284000000000  0.4025280000000 1.0
C      1  0.4706850000000  0.5947040000000  0.5280950000000 1.0
C      1  0.5272950000000  0.4075330000000  0.5255050000000 1.0
C      1  0.5261380000000  0.5980940000000  0.4733600000000 1.0
C      1  0.5951490000000  0.4699420000000  0.4729960000000 1.0
C      1  0.5280210000000  0.4725190000000  0.4020140000000 1.0
C      1  0.5279070000000  0.4022380000000  0.4711180000000 1.0
C      1  0.5919440000000  0.5290640000000  0.5249640000000 1.0
C      1  0.4002100000000  0.4725140000000  0.5282570000000 1.0
C      1  0.4034960000000  0.5286330000000  0.4698900000000 1.0
C      1  0.5251510000000  0.5297790000000  0.5964300000000 1.0
C      1  0.4693840000000  0.4734480000000  0.5977600000000 1.0
C      1  0.4709160000000  0.5264970000000  0.4034050000000 1.0
C      1  0.5251350000000  0.5979810000000  0.5307140000000 1.0
C      1  0.4735950000000  0.4029470000000  0.5309950000000 1.0
C      1  0.4717590000000  0.5966100000000  0.4729200000000 1.0
C      1  0.4205020000000  0.4356990000000  0.5470420000000 1.0
C      1  0.4267510000000  0.5552100000000  0.4260490000000 1.0
C      1  0.5459500000000  0.4177280000000  0.4305110000000 1.0
C      1  0.4195110000000  0.5694510000000  0.4501370000000 1.0
C      1  0.5708790000000  0.4256560000000  0.4444090000000 1.0
C      1  0.5703060000000  0.5658170000000  0.5543720000000 1.0
C      1  0.4316810000000  0.4500460000000  0.5697900000000 1.0
C      1  0.5643300000000  0.5522230000000  0.5787930000000 1.0
C      1  0.5577600000000  0.4445860000000  0.4278700000000 1.0
C      1  0.5462060000000  0.5722510000000  0.5681570000000 1.0
C      1  0.4469730000000  0.4271930000000  0.5575680000000 1.0
C      1  0.4455800000000  0.5734840000000  0.4374350000000 1.0
C      1  0.5753420000000  0.4295000000000  0.5477730000000 1.0
C      1  0.5757740000000  0.5549720000000  0.4287580000000 1.0
C      1  0.4487530000000  0.4226050000000  0.4387440000000 1.0
C      1  0.5792710000000  0.5699660000000  0.4532210000000 1.0
C      1  0.4237400000000  0.4329730000000  0.4531670000000 1.0
C      1  0.4251030000000  0.5675880000000  0.5587300000000 1.0
C      1  0.5675260000000  0.4441740000000  0.5715140000000 1.0
C      1  0.4400540000000  0.5526290000000  0.5777690000000 1.0
C      1  0.4371210000000  0.4486660000000  0.4329590000000 1.0
C      1  0.4515870000000  0.5758340000000  0.5674510000000 1.0
C      1  0.5517160000000  0.4220910000000  0.5618500000000 1.0
C      1  0.5555870000000  0.5744970000000  0.4367920000000 1.0
C      1  0.5100630000000  0.5454770000000  0.5790040000000 1.0
C      1  0.5457870000000  0.5838810000000  0.5161370000000 1.0
C      1  0.5762270000000  0.5152790000000  0.5441380000000 1.0
C      1  0.5142010000000  0.4536880000000  0.4185970000000 1.0
C      1  0.4849340000000  0.5463640000000  0.4189850000000 1.0
C      1  0.4853360000000  0.4545780000000  0.5831830000000 1.0
C      1  0.5480310000000  0.4165310000000  0.4852380000000 1.0
C      1  0.4528110000000  0.5809160000000  0.4864750000000 1.0
C      1  0.4534860000000  0.4192070000000  0.5168400000000 1.0
C      1  0.5806910000000  0.4832380000000  0.4521910000000 1.0
C      1  0.4138540000000  0.5135910000000  0.4491960000000 1.0
C      1  0.4143660000000  0.4868880000000  0.5480790000000 1.0
C      1  0.4827410000000  0.5443450000000  0.5760730000000 1.0
C      1  0.4510840000000  0.5788830000000  0.5154050000000 1.0
C      1  0.4176220000000  0.5140330000000  0.5459770000000 1.0
C      1  0.4872550000000  0.4566940000000  0.4258660000000 1.0
C      1  0.5136520000000  0.5479560000000  0.4182360000000 1.0
C      1  0.5136140000000  0.4562710000000  0.5785240000000 1.0
C      1  0.4566800000000  0.4212180000000  0.4890670000000 1.0
C      1  0.5429790000000  0.5807720000000  0.4877680000000 1.0
C      1  0.5438830000000  0.4244570000000  0.5113560000000 1.0
C      1  0.4170330000000  0.4864920000000  0.4533740000000 1.0
C      1  0.5838490000000  0.5112530000000  0.4496270000000 1.0
C      1  0.5829970000000  0.4877050000000  0.5488360000000 1.0
C      1  0.4846160000000  0.4835810000000  0.3833280000000 1.0
C      1  0.4858120000000  0.3818560000000  0.4859150000000 1.0
C      1  0.3821280000000  0.4872280000000  0.4859510000000 1.0
C      1  0.4832000000000  0.5158010000000  0.6165800000000 1.0
C      1  0.5129940000000  0.4873430000000  0.6170660000000 1.0
C      1  0.5126280000000  0.5136750000000  0.3822490000000 1.0
C      1  0.4831610000000  0.6177860000000  0.5154270000000 1.0
C      1  0.5158240000000  0.3836610000000  0.5138460000000 1.0
C      1  0.5126890000000  0.6187140000000  0.4874420000000 1.0
C      1  0.3838150000000  0.5174440000000  0.5142670000000 1.0
C      1  0.6165700000000  0.4862520000000  0.5148240000000 1.0
C      1  0.6157530000000  0.5140900000000  0.4849110000000 1.0
C      1  0.5136740000000  0.4848840000000  0.3818310000000 1.0
C      1  0.5138670000000  0.3827830000000  0.4852490000000 1.0
C      1  0.6170350000000  0.4852130000000  0.4858620000000 1.0
C      1  0.5122130000000  0.5163200000000  0.6167020000000 1.0
C      1  0.4838210000000  0.4869780000000  0.6173340000000 1.0
C      1  0.4840580000000  0.5128420000000  0.3830930000000 1.0
C      1  0.5124650000000  0.6186560000000  0.5156160000000 1.0
C      1  0.4865100000000  0.3817670000000  0.5152830000000 1.0
C      1  0.4842830000000  0.6183890000000  0.4859150000000 1.0
C      1  0.6152870000000  0.5155040000000  0.5140660000000 1.0
C      1  0.3815850000000  0.4882790000000  0.5144940000000 1.0
C      1  0.3840700000000  0.5166530000000  0.4851320000000 1.0
C      1  0.4871700000000  0.5209580000000  0.4590570000000 1.0
C      1  0.5178420000000  0.4616370000000  0.4670960000000 1.0
C      1  0.4655130000000  0.4729120000000  0.5228700000000 1.0
C      1  0.4759120000000  0.4802370000000  0.5494820000000 1.0
C      1  0.5204330000000  0.5116680000000  0.5445010000000 1.0
C      1  0.5306880000000  0.4867830000000  0.4614070000000 1.0
C      1  0.5259000000000  0.5494440000000  0.5221510000000 1.0
C      1  0.4896510000000  0.4622160000000  0.5067060000000 1.0
C      1  0.4657390000000  0.5315560000000  0.4803070000000 1.0
C      1  0.4551820000000  0.5075080000000  0.4941930000000 1.0
C      1  0.5447230000000  0.4872110000000  0.4858800000000 1.0
C      1  0.5393320000000  0.5019820000000  0.5229280000000 1.0
C      1  0.5161710000000  0.5141640000000  0.4603120000000 1.0
C      1  0.4930910000000  0.4555980000000  0.4792700000000 1.0
C      1  0.5404920000000  0.4742180000000  0.5110380000000 1.0
C      1  0.5039040000000  0.4855310000000  0.5481460000000 1.0
C      1  0.4948730000000  0.5279450000000  0.5373870000000 1.0
C      1  0.4777940000000  0.4940810000000  0.4597270000000 1.0
C      1  0.5017260000000  0.5350730000000  0.5099700000000 1.0
C      1  0.5120070000000  0.4636430000000  0.5264590000000 1.0
C      1  0.5320800000000  0.5316520000000  0.4777850000000 1.0
C      1  0.5447590000000  0.5129850000000  0.4966340000000 1.0
C      1  0.4593250000000  0.4816600000000  0.4769560000000 1.0
C      1  0.4553450000000  0.5033720000000  0.5229530000000 1.0
C      1  0.4951700000000  0.5095360000000  0.4969540000000 1.0
END
