TITL C-2441163-1170-688 0.155934968178013 125000 -21039.7889830607 0 0 173 (C1) n - 1
REM
REM in /home/bkarasulu/work/CARBON/AIRSS/Generating-Clusters/ReaxFF-fromJPCA2015/Units_Real/with-SteepDescent/Higher-Symm
REM
REM
REM
REM
REM
REM ./C.cell (1df0a924f5614ab8850e4351716899ee)
REM
REM compiler GCC version 9.2.1 20190827 (Red Hat 9.2.1-1)
REM options -cpp -mtune=generic -march=x86-64 -g -O0 -fpre-include=/usr/include/finclude/math-vector-fortran.h
REM seed -2025970780 117733529 -1399168948 367700060 -1880433424 1949371243 1886598490 1038035363 -930652081 1254061329 1381524386 486822828 -1960638622 916361048 -503170562 518465347 230482608 1180569766 1601114808 -93702450 -688492021 -1310784032 -335702203 -1150925154 -1295443454 805864520 919537169 653711929 1161474562 -460150562 1193858569 2006549632 1070635924
REM
CELL 1.54180   50.00000   50.00000   50.00000   90.00000   90.00000   90.00000
LATT -1
SFAC C  
C      1  0.4444660000000  0.5152830000000  0.5895640000000 1.0
C      1  0.4859190000000  0.5521290000000  0.5920040000000 1.0
C      1  0.5272590000000  0.5434590000000  0.5933280000000 1.0
C      1  0.5686010000000  0.5060600000000  0.5898520000000 1.0
C      1  0.5441320000000  0.4541940000000  0.5839000000000 1.0
C      1  0.4894920000000  0.4362050000000  0.5879380000000 1.0
C      1  0.4450170000000  0.4745700000000  0.5887470000000 1.0
C      1  0.4128390000000  0.4847800000000  0.4432400000000 1.0
C      1  0.4302800000000  0.5552300000000  0.4478150000000 1.0
C      1  0.4981310000000  0.5942880000000  0.4551470000000 1.0
C      1  0.5739550000000  0.5527790000000  0.4447700000000 1.0
C      1  0.5862700000000  0.4765340000000  0.4457980000000 1.0
C      1  0.5403590000000  0.4188560000000  0.4521840000000 1.0
C      1  0.4627990000000  0.4154450000000  0.4572750000000 1.0
C      1  0.4747690000000  0.4759950000000  0.4119720000000 1.0
C      1  0.4649480000000  0.5035790000000  0.4048200000000 1.0
C      1  0.4819280000000  0.5274600000000  0.4110920000000 1.0
C      1  0.5128540000000  0.5302760000000  0.4156350000000 1.0
C      1  0.5330520000000  0.5100740000000  0.4058270000000 1.0
C      1  0.5311750000000  0.4810200000000  0.4043730000000 1.0
C      1  0.5060170000000  0.4645890000000  0.4105360000000 1.0
C      1  0.3957460000000  0.5216200000000  0.4869840000000 1.0
C      1  0.4554450000000  0.5941260000000  0.4852400000000 1.0
C      1  0.5430880000000  0.5973590000000  0.4878620000000 1.0
C      1  0.6039630000000  0.5262340000000  0.4888870000000 1.0
C      1  0.5809310000000  0.4329930000000  0.4847220000000 1.0
C      1  0.4992580000000  0.3966640000000  0.4855340000000 1.0
C      1  0.4181340000000  0.4313340000000  0.4901220000000 1.0
C      1  0.4903160000000  0.4062490000000  0.5394910000000 1.0
C      1  0.4231780000000  0.4524730000000  0.5390280000000 1.0
C      1  0.4110840000000  0.5306360000000  0.5403690000000 1.0
C      1  0.4737440000000  0.5900300000000  0.5373500000000 1.0
C      1  0.5547920000000  0.5786670000000  0.5364960000000 1.0
C      1  0.5954440000000  0.5098570000000  0.5392710000000 1.0
C      1  0.5681340000000  0.4320500000000  0.5382120000000 1.0
C      1  0.4733370000000  0.5283490000000  0.4493650000000 1.0
C      1  0.5255640000000  0.5346510000000  0.4425400000000 1.0
C      1  0.5386600000000  0.5118190000000  0.4562060000000 1.0
C      1  0.5353260000000  0.4797410000000  0.4485270000000 1.0
C      1  0.5123790000000  0.4628970000000  0.4428890000000 1.0
C      1  0.4669070000000  0.4760340000000  0.4467740000000 1.0
C      1  0.4564480000000  0.5043100000000  0.4499470000000 1.0
C      1  0.5252550000000  0.5894010000000  0.4651860000000 1.0
C      1  0.5880510000000  0.5352910000000  0.4632510000000 1.0
C      1  0.5798910000000  0.4529270000000  0.4620560000000 1.0
C      1  0.5139150000000  0.4104870000000  0.4624530000000 1.0
C      1  0.4391770000000  0.4302120000000  0.4653410000000 1.0
C      1  0.4056840000000  0.5060580000000  0.4623220000000 1.0
C      1  0.4475150000000  0.5740980000000  0.4625170000000 1.0
C      1  0.4367480000000  0.4722650000000  0.5211580000000 1.0
C      1  0.4405660000000  0.5334610000000  0.5271690000000 1.0
C      1  0.4883840000000  0.5664840000000  0.5257130000000 1.0
C      1  0.5454990000000  0.5548200000000  0.5207480000000 1.0
C      1  0.5716810000000  0.4992180000000  0.5226480000000 1.0
C      1  0.5407020000000  0.4409830000000  0.5243310000000 1.0
C      1  0.4824840000000  0.4325810000000  0.5286950000000 1.0
C      1  0.5415500000000  0.5982320000000  0.5177630000000 1.0
C      1  0.6027090000000  0.5306680000000  0.5182630000000 1.0
C      1  0.5856610000000  0.4359880000000  0.5146020000000 1.0
C      1  0.5037890000000  0.3949270000000  0.5153280000000 1.0
C      1  0.4201130000000  0.4297460000000  0.5194760000000 1.0
C      1  0.3956020000000  0.5190300000000  0.5170140000000 1.0
C      1  0.4528330000000  0.5934460000000  0.5146510000000 1.0
C      1  0.4471380000000  0.4950820000000  0.5759940000000 1.0
C      1  0.4616460000000  0.5390180000000  0.5859030000000 1.0
C      1  0.5079340000000  0.5557650000000  0.5830510000000 1.0
C      1  0.5511250000000  0.5303420000000  0.5895000000000 1.0
C      1  0.5504140000000  0.4821530000000  0.5874670000000 1.0
C      1  0.5129990000000  0.4508750000000  0.5764910000000 1.0
C      1  0.4675660000000  0.4551580000000  0.5848990000000 1.0
C      1  0.5203060000000  0.4235230000000  0.5643630000000 1.0
C      1  0.4519500000000  0.4386830000000  0.5660420000000 1.0
C      1  0.4252250000000  0.4984960000000  0.5598870000000 1.0
C      1  0.4535630000000  0.5610720000000  0.5674360000000 1.0
C      1  0.5153200000000  0.5755470000000  0.5634090000000 1.0
C      1  0.5493500000000  0.5407080000000  0.5601170000000 1.0
C      1  0.5538700000000  0.4857060000000  0.5586630000000 1.0
C      1  0.4859050000000  0.5710590000000  0.4677660000000 1.0
C      1  0.5560470000000  0.5619450000000  0.4685750000000 1.0
C      1  0.5804810000000  0.4945430000000  0.4706830000000 1.0
C      1  0.5339640000000  0.4460410000000  0.4782900000000 1.0
C      1  0.4806440000000  0.4378040000000  0.4719120000000 1.0
C      1  0.4220530000000  0.4683560000000  0.4685740000000 1.0
C      1  0.4316480000000  0.5358430000000  0.4734270000000 1.0
C      1  0.5202340000000  0.4629160000000  0.5292950000000 1.0
C      1  0.4963260000000  0.4573720000000  0.5484490000000 1.0
C      1  0.4727600000000  0.4807430000000  0.5397960000000 1.0
C      1  0.4630880000000  0.5176200000000  0.5398130000000 1.0
C      1  0.4897710000000  0.5373970000000  0.5463230000000 1.0
C      1  0.5197340000000  0.5293620000000  0.5507010000000 1.0
C      1  0.5341530000000  0.5051370000000  0.5508010000000 1.0
C      1  0.5372410000000  0.4355720000000  0.4251560000000 1.0
C      1  0.4757940000000  0.4348460000000  0.4243990000000 1.0
C      1  0.4333210000000  0.4818880000000  0.4223810000000 1.0
C      1  0.4424300000000  0.5414000000000  0.4248420000000 1.0
C      1  0.4934150000000  0.5718050000000  0.4246240000000 1.0
C      1  0.5532090000000  0.5415110000000  0.4271300000000 1.0
C      1  0.5685210000000  0.4854600000000  0.4246010000000 1.0
C      1  0.4937930000000  0.4137610000000  0.5680300000000 1.0
C      1  0.4293410000000  0.4551460000000  0.5680410000000 1.0
C      1  0.4192620000000  0.5244950000000  0.5673900000000 1.0
C      1  0.4751750000000  0.5788260000000  0.5635110000000 1.0
C      1  0.5443820000000  0.5710260000000  0.5633520000000 1.0
C      1  0.5875820000000  0.5085120000000  0.5670050000000 1.0
C      1  0.5625780000000  0.4398930000000  0.5663530000000 1.0
C      1  0.4336340000000  0.5080550000000  0.4688970000000 1.0
C      1  0.4680040000000  0.5548930000000  0.4588510000000 1.0
C      1  0.5262380000000  0.5594190000000  0.4619180000000 1.0
C      1  0.5669450000000  0.5170020000000  0.4618840000000 1.0
C      1  0.5530780000000  0.4633530000000  0.4655540000000 1.0
C      1  0.5012970000000  0.4350450000000  0.4520520000000 1.0
C      1  0.4449920000000  0.4561310000000  0.4559560000000 1.0
C      1  0.5869780000000  0.5540290000000  0.5268080000000 1.0
C      1  0.5944220000000  0.4612670000000  0.5258300000000 1.0
C      1  0.5320450000000  0.3970060000000  0.5216350000000 1.0
C      1  0.4413140000000  0.4108860000000  0.5244690000000 1.0
C      1  0.3934770000000  0.4912440000000  0.5235380000000 1.0
C      1  0.4299000000000  0.5786410000000  0.5233590000000 1.0
C      1  0.5134540000000  0.6021470000000  0.5228850000000 1.0
C      1  0.5331250000000  0.5104300000000  0.5065410000000 1.0
C      1  0.5232290000000  0.4928580000000  0.5283720000000 1.0
C      1  0.5034590000000  0.4615430000000  0.5076690000000 1.0
C      1  0.4781950000000  0.4703240000000  0.5124050000000 1.0
C      1  0.4729630000000  0.5161900000000  0.5137380000000 1.0
C      1  0.4937780000000  0.5290520000000  0.5189400000000 1.0
C      1  0.5166660000000  0.5321020000000  0.5064700000000 1.0
C      1  0.5703360000000  0.4748140000000  0.5378890000000 1.0
C      1  0.5299510000000  0.4196390000000  0.5385270000000 1.0
C      1  0.4575990000000  0.4289840000000  0.5399900000000 1.0
C      1  0.4202240000000  0.4914570000000  0.5348900000000 1.0
C      1  0.4409890000000  0.5585020000000  0.5409710000000 1.0
C      1  0.5137780000000  0.5741490000000  0.5339060000000 1.0
C      1  0.5633060000000  0.5361360000000  0.5337270000000 1.0
C      1  0.4733960000000  0.4286980000000  0.5001410000000 1.0
C      1  0.4248940000000  0.4826580000000  0.4957170000000 1.0
C      1  0.4400380000000  0.5450980000000  0.4993160000000 1.0
C      1  0.4950220000000  0.5701300000000  0.4953980000000 1.0
C      1  0.5589370000000  0.5487040000000  0.4954380000000 1.0
C      1  0.5739390000000  0.4851020000000  0.4972850000000 1.0
C      1  0.5375410000000  0.4293680000000  0.4993710000000 1.0
C      1  0.4383530000000  0.5097340000000  0.4141730000000 1.0
C      1  0.4678060000000  0.5519420000000  0.4166740000000 1.0
C      1  0.5197980000000  0.5630070000000  0.4145000000000 1.0
C      1  0.5586820000000  0.5151300000000  0.4163960000000 1.0
C      1  0.5512390000000  0.4634780000000  0.4158260000000 1.0
C      1  0.5106720000000  0.4352800000000  0.4130850000000 1.0
C      1  0.4554030000000  0.4544690000000  0.4154020000000 1.0
C      1  0.6098270000000  0.4983370000000  0.4842910000000 1.0
C      1  0.5625040000000  0.4130120000000  0.4737570000000 1.0
C      1  0.4709990000000  0.3946660000000  0.4769320000000 1.0
C      1  0.3997040000000  0.4517400000000  0.4839930000000 1.0
C      1  0.4038530000000  0.5487900000000  0.4805740000000 1.0
C      1  0.4802380000000  0.6079420000000  0.4776680000000 1.0
C      1  0.5695300000000  0.5861390000000  0.4829500000000 1.0
C      1  0.4888050000000  0.5233370000000  0.4723380000000 1.0
C      1  0.5104790000000  0.5457450000000  0.4840210000000 1.0
C      1  0.5315900000000  0.5033200000000  0.4810360000000 1.0
C      1  0.5124080000000  0.4628790000000  0.4846380000000 1.0
C      1  0.4815340000000  0.4672240000000  0.4675100000000 1.0
C      1  0.4680110000000  0.4810410000000  0.4882810000000 1.0
C      1  0.4708210000000  0.5087920000000  0.4894260000000 1.0
C      1  0.3964040000000  0.4767730000000  0.4985170000000 1.0
C      1  0.4202080000000  0.5654660000000  0.4989620000000 1.0
C      1  0.4998360000000  0.6012090000000  0.4974760000000 1.0
C      1  0.5820720000000  0.5657980000000  0.4997990000000 1.0
C      1  0.6006720000000  0.4753950000000  0.5000530000000 1.0
C      1  0.5463880000000  0.4021860000000  0.4960190000000 1.0
C      1  0.4551850000000  0.4070690000000  0.4991110000000 1.0
C      1  0.4996410000000  0.4995850000000  0.5928670000000 1.0
C      1  0.5118970000000  0.4879460000000  0.4790530000000 1.0
C      1  0.4978260000000  0.4959510000000  0.5420220000000 1.0
C      1  0.4980020000000  0.4975270000000  0.5689860000000 1.0
C      1  0.5006840000000  0.5001350000000  0.4562960000000 1.0
END
