TITL C-2441162-9305-1384 0.0859221945861464 125000 -18746.6254776435 0 0 143 (C1) n - 1
REM
REM in /home/bkarasulu/work/CARBON/AIRSS/Generating-Clusters/ReaxFF-fromJPCA2015/Units_Real/with-SteepDescent/Higher-Symm
REM
REM
REM
REM
REM
REM ./C.cell (1df0a924f5614ab8850e4351716899ee)
REM
REM compiler GCC version 9.2.1 20190827 (Red Hat 9.2.1-1)
REM options -cpp -mtune=generic -march=x86-64 -g -O0 -fpre-include=/usr/include/finclude/math-vector-fortran.h
REM seed 256540871 -1245487 -353184555 -1518255965 -1342846043 1148578426 -669403696 -1148340107 -443179076 918016129 2051038838 713122573 473208252 -1662604306 -274794743 146587269 -293411388 -547703270 -128622878 1612929056 -1634443866 -306759054 -499242371 -1005416034 1111920122 -1271922733 -2081590509 -1499141914 -1407459844 -204860689 932119225 1267841377 -1653903225
REM
CELL 1.54180   50.00000   50.00000   50.00000   90.00000   90.00000   90.00000
LATT -1
SFAC C  
C      1  0.4795380000000  0.4243100000000  0.5525210000000 1.0
C      1  0.4853720000000  0.5224500000000  0.5937620000000 1.0
C      1  0.4857050000000  0.5910220000000  0.4990010000000 1.0
C      1  0.4862980000000  0.5491550000000  0.4141360000000 1.0
C      1  0.4875030000000  0.4259710000000  0.4486900000000 1.0
C      1  0.5592080000000  0.5725760000000  0.4885010000000 1.0
C      1  0.5589380000000  0.5194010000000  0.4482370000000 1.0
C      1  0.5612460000000  0.4326670000000  0.4651510000000 1.0
C      1  0.5643710000000  0.4469910000000  0.5505220000000 1.0
C      1  0.5587350000000  0.5282040000000  0.5712670000000 1.0
C      1  0.5908160000000  0.5213250000000  0.4823860000000 1.0
C      1  0.5906350000000  0.4832660000000  0.4635140000000 1.0
C      1  0.5866030000000  0.4683130000000  0.5025420000000 1.0
C      1  0.5843910000000  0.4922580000000  0.5377410000000 1.0
C      1  0.5825350000000  0.5307590000000  0.5230610000000 1.0
C      1  0.4602870000000  0.5254380000000  0.4583650000000 1.0
C      1  0.4619360000000  0.4686360000000  0.4617880000000 1.0
C      1  0.4634440000000  0.4513610000000  0.5156200000000 1.0
C      1  0.4607930000000  0.5054710000000  0.5532150000000 1.0
C      1  0.4613480000000  0.5498450000000  0.5085930000000 1.0
C      1  0.4488110000000  0.5099280000000  0.5813340000000 1.0
C      1  0.4486780000000  0.5811590000000  0.5161010000000 1.0
C      1  0.4433120000000  0.5412430000000  0.4343870000000 1.0
C      1  0.4446570000000  0.4502020000000  0.4377470000000 1.0
C      1  0.4448690000000  0.4247400000000  0.5303540000000 1.0
C      1  0.5557580000000  0.5724000000000  0.4602430000000 1.0
C      1  0.5630160000000  0.4790500000000  0.4097240000000 1.0
C      1  0.5581300000000  0.4123300000000  0.4857900000000 1.0
C      1  0.5595730000000  0.4612910000000  0.5753450000000 1.0
C      1  0.5566780000000  0.5567540000000  0.5663020000000 1.0
C      1  0.4610630000000  0.4829810000000  0.5902920000000 1.0
C      1  0.4577370000000  0.5817320000000  0.5436340000000 1.0
C      1  0.4561760000000  0.5664020000000  0.4345240000000 1.0
C      1  0.4575020000000  0.4608320000000  0.4154600000000 1.0
C      1  0.4559800000000  0.4065710000000  0.5113650000000 1.0
C      1  0.5134560000000  0.5551800000000  0.4714310000000 1.0
C      1  0.5224720000000  0.4920550000000  0.4395380000000 1.0
C      1  0.5220940000000  0.4393650000000  0.4914070000000 1.0
C      1  0.5242100000000  0.4768250000000  0.5548970000000 1.0
C      1  0.5218370000000  0.5441680000000  0.5424310000000 1.0
C      1  0.4250400000000  0.4956660000000  0.4328580000000 1.0
C      1  0.4231840000000  0.4350200000000  0.4877910000000 1.0
C      1  0.4242480000000  0.4687830000000  0.5567810000000 1.0
C      1  0.4232560000000  0.5439500000000  0.5475570000000 1.0
C      1  0.4260720000000  0.5631800000000  0.4781750000000 1.0
C      1  0.5327570000000  0.5883860000000  0.4479710000000 1.0
C      1  0.5344120000000  0.4792060000000  0.3966040000000 1.0
C      1  0.5327670000000  0.3952930000000  0.4883000000000 1.0
C      1  0.5360670000000  0.4546430000000  0.5928030000000 1.0
C      1  0.5323790000000  0.5744210000000  0.5740270000000 1.0
C      1  0.4624400000000  0.5209140000000  0.5279330000000 1.0
C      1  0.4696360000000  0.5369540000000  0.4839940000000 1.0
C      1  0.4683120000000  0.4979360000000  0.4618530000000 1.0
C      1  0.4712130000000  0.4590240000000  0.4881800000000 1.0
C      1  0.4647190000000  0.4781500000000  0.5259540000000 1.0
C      1  0.4930380000000  0.5233020000000  0.4936750000000 1.0
C      1  0.4933410000000  0.5012060000000  0.4758590000000 1.0
C      1  0.4947380000000  0.4762240000000  0.4910990000000 1.0
C      1  0.4925110000000  0.4843910000000  0.5188010000000 1.0
C      1  0.4927860000000  0.5129990000000  0.5204490000000 1.0
C      1  0.5070040000000  0.5382410000000  0.3993260000000 1.0
C      1  0.5155740000000  0.4165240000000  0.4445310000000 1.0
C      1  0.5048950000000  0.4208730000000  0.5641720000000 1.0
C      1  0.5116170000000  0.5327430000000  0.5975190000000 1.0
C      1  0.5138580000000  0.6001040000000  0.4952120000000 1.0
C      1  0.4877790000000  0.4678650000000  0.5883510000000 1.0
C      1  0.4867310000000  0.5748370000000  0.5562250000000 1.0
C      1  0.4848020000000  0.5756780000000  0.4452860000000 1.0
C      1  0.4869700000000  0.4737850000000  0.4110060000000 1.0
C      1  0.4853890000000  0.4036500000000  0.4982610000000 1.0
C      1  0.4105650000000  0.5193120000000  0.5409090000000 1.0
C      1  0.4099330000000  0.5457620000000  0.4929720000000 1.0
C      1  0.4093030000000  0.5040140000000  0.4538890000000 1.0
C      1  0.4107810000000  0.4591200000000  0.4795760000000 1.0
C      1  0.4114230000000  0.4667050000000  0.5314210000000 1.0
C      1  0.5193950000000  0.5415020000000  0.4960060000000 1.0
C      1  0.5181480000000  0.5097710000000  0.4604960000000 1.0
C      1  0.5203270000000  0.4646550000000  0.4789720000000 1.0
C      1  0.5190230000000  0.4698650000000  0.5270190000000 1.0
C      1  0.5196570000000  0.5170670000000  0.5365880000000 1.0
C      1  0.5402250000000  0.5232970000000  0.5930860000000 1.0
C      1  0.5410690000000  0.5904620000000  0.5024640000000 1.0
C      1  0.5324170000000  0.5291760000000  0.4064970000000 1.0
C      1  0.5424550000000  0.4290840000000  0.4430460000000 1.0
C      1  0.5429140000000  0.4272780000000  0.5508940000000 1.0
C      1  0.5306970000000  0.4201170000000  0.5256140000000 1.0
C      1  0.5304240000000  0.4984150000000  0.5876830000000 1.0
C      1  0.5333050000000  0.5809250000000  0.5302020000000 1.0
C      1  0.5312760000000  0.5487540000000  0.4296840000000 1.0
C      1  0.5324080000000  0.4543770000000  0.4307510000000 1.0
C      1  0.5222560000000  0.5021240000000  0.4105540000000 1.0
C      1  0.5177550000000  0.4150740000000  0.4732740000000 1.0
C      1  0.5253000000000  0.4392300000000  0.5695060000000 1.0
C      1  0.5158930000000  0.5508640000000  0.5748960000000 1.0
C      1  0.5156760000000  0.5838520000000  0.4712090000000 1.0
C      1  0.4169150000000  0.4918300000000  0.5422770000000 1.0
C      1  0.4156570000000  0.5383090000000  0.5213320000000 1.0
C      1  0.4188290000000  0.5226640000000  0.4764050000000 1.0
C      1  0.4206650000000  0.4829370000000  0.4714920000000 1.0
C      1  0.4178550000000  0.4562080000000  0.5060190000000 1.0
C      1  0.4478840000000  0.5569290000000  0.5577540000000 1.0
C      1  0.4462550000000  0.5765170000000  0.4640910000000 1.0
C      1  0.4476270000000  0.4902450000000  0.4171610000000 1.0
C      1  0.4471670000000  0.4179790000000  0.4850780000000 1.0
C      1  0.4486190000000  0.4631370000000  0.5724770000000 1.0
C      1  0.5460040000000  0.4791880000000  0.4839560000000 1.0
C      1  0.5423640000000  0.4825840000000  0.5128910000000 1.0
C      1  0.5418520000000  0.5092590000000  0.5196160000000 1.0
C      1  0.5455700000000  0.5258940000000  0.4969040000000 1.0
C      1  0.5446820000000  0.5086420000000  0.4731860000000 1.0
C      1  0.5489980000000  0.4319970000000  0.5044750000000 1.0
C      1  0.5499900000000  0.4877510000000  0.5667180000000 1.0
C      1  0.5488340000000  0.5574120000000  0.5388590000000 1.0
C      1  0.5555340000000  0.5479230000000  0.4444380000000 1.0
C      1  0.5513270000000  0.4806230000000  0.4362120000000 1.0
C      1  0.5135790000000  0.4615890000000  0.4064500000000 1.0
C      1  0.5120310000000  0.3973010000000  0.5087550000000 1.0
C      1  0.5148560000000  0.4729790000000  0.5982260000000 1.0
C      1  0.5138790000000  0.5868260000000  0.5550590000000 1.0
C      1  0.5118840000000  0.5758370000000  0.4324890000000 1.0
C      1  0.4852240000000  0.4376480000000  0.5271730000000 1.0
C      1  0.4857690000000  0.5167510000000  0.5653360000000 1.0
C      1  0.4861220000000  0.5654610000000  0.5129160000000 1.0
C      1  0.4843890000000  0.5266720000000  0.4327970000000 1.0
C      1  0.4854650000000  0.4539810000000  0.4491120000000 1.0
C      1  0.4766140000000  0.4987350000000  0.4199190000000 1.0
C      1  0.4738610000000  0.4146670000000  0.4734580000000 1.0
C      1  0.4733580000000  0.4473590000000  0.5719010000000 1.0
C      1  0.4747240000000  0.5506450000000  0.5665940000000 1.0
C      1  0.4736390000000  0.5832740000000  0.4723060000000 1.0
C      1  0.5804310000000  0.4648820000000  0.5315690000000 1.0
C      1  0.5800340000000  0.5181250000000  0.5483480000000 1.0
C      1  0.5743970000000  0.5431420000000  0.4979770000000 1.0
C      1  0.5862460000000  0.5117450000000  0.4547720000000 1.0
C      1  0.5724420000000  0.4621770000000  0.4762450000000 1.0
C      1  0.5127400000000  0.5024670000000  0.5605130000000 1.0
C      1  0.5118850000000  0.5571020000000  0.5191250000000 1.0
C      1  0.5120780000000  0.5359610000000  0.4497100000000 1.0
C      1  0.5124790000000  0.4650230000000  0.4507520000000 1.0
C      1  0.5114670000000  0.4414350000000  0.5193090000000 1.0
C      1  0.4491010000000  0.4989310000000  0.5128490000000 1.0
C      1  0.5979940000000  0.4933260000000  0.4902890000000 1.0
C      1  0.4318330000000  0.5009100000000  0.4899320000000 1.0
END
