TITL C-2441168-9922-1497 0.0580848626329142 125000 -22679.0169081347 0 0 162 (C1) n - 1
REM
REM in /home/bkarasulu/work/CARBON/AIRSS/Generating-Clusters/ReaxFF-fromJPCA2015/Units_Real/with-SteepDescent/Higher-Symm
REM
REM
REM
REM
REM
REM ./C.cell (1df0a924f5614ab8850e4351716899ee)
REM
REM compiler GCC version 9.2.1 20190827 (Red Hat 9.2.1-1)
REM options -cpp -mtune=generic -march=x86-64 -g -O0 -fpre-include=/usr/include/finclude/math-vector-fortran.h
REM seed -1150023420 -1683676199 -1313798345 -1327281232 -1203934312 -2122193343 -735945932 995092422 398638074 2030344965 -1301432591 -1973192206 -2114619370 332065043 784304304 1166696014 -1274665337 -509701035 829607445 -281662698 -107699676 1915890716 -1845101294 -1801954298 433236898 -478260818 413458380 -620226928 -1849578545 -556710199 -339887112 1636840701 1711063724
REM
CELL 1.54180   50.00000   50.00000   50.00000   90.00000   90.00000   90.00000
LATT -1
SFAC C  
C      1  0.4710860000000  0.4032190000000  0.4782600000000 1.0
C      1  0.5122880000000  0.4039500000000  0.4675160000000 1.0
C      1  0.5369270000000  0.4049130000000  0.5018710000000 1.0
C      1  0.5095050000000  0.4053080000000  0.5365010000000 1.0
C      1  0.4675850000000  0.4048040000000  0.5203640000000 1.0
C      1  0.4710220000000  0.5971790000000  0.4774330000000 1.0
C      1  0.5115430000000  0.5957990000000  0.4664280000000 1.0
C      1  0.5359620000000  0.5951320000000  0.5017120000000 1.0
C      1  0.5084080000000  0.5949040000000  0.5357920000000 1.0
C      1  0.4690070000000  0.5956470000000  0.5200540000000 1.0
C      1  0.5115220000000  0.4866580000000  0.5630150000000 1.0
C      1  0.4357040000000  0.4886250000000  0.5229830000000 1.0
C      1  0.4700910000000  0.4839410000000  0.4424320000000 1.0
C      1  0.5356460000000  0.4874320000000  0.4450720000000 1.0
C      1  0.5585230000000  0.4844020000000  0.5262700000000 1.0
C      1  0.4957110000000  0.5132610000000  0.5686470000000 1.0
C      1  0.4315570000000  0.5148010000000  0.5182540000000 1.0
C      1  0.4642010000000  0.5154870000000  0.4454370000000 1.0
C      1  0.5414280000000  0.5161670000000  0.4458740000000 1.0
C      1  0.5602210000000  0.5150870000000  0.5262060000000 1.0
C      1  0.4230940000000  0.4704020000000  0.4404050000000 1.0
C      1  0.5334670000000  0.4684650000000  0.4046400000000 1.0
C      1  0.5969690000000  0.4696180000000  0.5023350000000 1.0
C      1  0.5290180000000  0.4686780000000  0.5966250000000 1.0
C      1  0.4171780000000  0.4674750000000  0.5573490000000 1.0
C      1  0.4207040000000  0.5316460000000  0.4398910000000 1.0
C      1  0.5332440000000  0.5317330000000  0.4045480000000 1.0
C      1  0.5979540000000  0.5315360000000  0.5023160000000 1.0
C      1  0.5288060000000  0.5314450000000  0.5952920000000 1.0
C      1  0.4177950000000  0.5321190000000  0.5573190000000 1.0
C      1  0.4824990000000  0.5511280000000  0.5255910000000 1.0
C      1  0.4770090000000  0.5559410000000  0.4826010000000 1.0
C      1  0.4933560000000  0.5444910000000  0.4614820000000 1.0
C      1  0.5271240000000  0.5485370000000  0.4986330000000 1.0
C      1  0.5338400000000  0.5376200000000  0.5268800000000 1.0
C      1  0.4816530000000  0.4472470000000  0.5248030000000 1.0
C      1  0.4760740000000  0.4444170000000  0.4817440000000 1.0
C      1  0.4885480000000  0.4590380000000  0.4589040000000 1.0
C      1  0.5264000000000  0.4500190000000  0.4989580000000 1.0
C      1  0.5332290000000  0.4612500000000  0.5276910000000 1.0
C      1  0.5252010000000  0.5542190000000  0.5768010000000 1.0
C      1  0.4353040000000  0.5533350000000  0.5471240000000 1.0
C      1  0.4360300000000  0.5528600000000  0.4539430000000 1.0
C      1  0.5255120000000  0.5536760000000  0.4215700000000 1.0
C      1  0.5777350000000  0.5524000000000  0.4999320000000 1.0
C      1  0.5250350000000  0.4472570000000  0.5773650000000 1.0
C      1  0.4347220000000  0.4460760000000  0.5486860000000 1.0
C      1  0.4366320000000  0.4476050000000  0.4531640000000 1.0
C      1  0.5248890000000  0.4465190000000  0.4216720000000 1.0
C      1  0.5779420000000  0.4471300000000  0.4999260000000 1.0
C      1  0.4085830000000  0.4802170000000  0.5325920000000 1.0
C      1  0.4456560000000  0.4811880000000  0.4241600000000 1.0
C      1  0.5534960000000  0.4804380000000  0.4220230000000 1.0
C      1  0.5883190000000  0.4806300000000  0.5284490000000 1.0
C      1  0.5029140000000  0.4805770000000  0.5934370000000 1.0
C      1  0.4068170000000  0.5214980000000  0.5317750000000 1.0
C      1  0.4415900000000  0.5204120000000  0.4227290000000 1.0
C      1  0.5559000000000  0.5219850000000  0.4205500000000 1.0
C      1  0.5899360000000  0.5211950000000  0.5280720000000 1.0
C      1  0.5010060000000  0.5208400000000  0.5970360000000 1.0
C      1  0.4795660000000  0.4246930000000  0.4297040000000 1.0
C      1  0.5577990000000  0.4300880000000  0.4598590000000 1.0
C      1  0.5596320000000  0.4269550000000  0.5475030000000 1.0
C      1  0.4750650000000  0.4287920000000  0.5710830000000 1.0
C      1  0.4290830000000  0.4312460000000  0.4981220000000 1.0
C      1  0.4786530000000  0.5741710000000  0.4276490000000 1.0
C      1  0.5570950000000  0.5697990000000  0.4604590000000 1.0
C      1  0.5598420000000  0.5735410000000  0.5461890000000 1.0
C      1  0.4751040000000  0.5715570000000  0.5695850000000 1.0
C      1  0.4302590000000  0.5691460000000  0.4981490000000 1.0
C      1  0.4847290000000  0.5231040000000  0.5205630000000 1.0
C      1  0.4769170000000  0.5140180000000  0.4942970000000 1.0
C      1  0.4983860000000  0.5204320000000  0.4750100000000 1.0
C      1  0.5210140000000  0.5196650000000  0.4924450000000 1.0
C      1  0.5132060000000  0.5146600000000  0.5220410000000 1.0
C      1  0.4824820000000  0.4763360000000  0.5248790000000 1.0
C      1  0.4769060000000  0.4857370000000  0.4962550000000 1.0
C      1  0.4974430000000  0.4791840000000  0.4773390000000 1.0
C      1  0.5203850000000  0.4790720000000  0.4935670000000 1.0
C      1  0.5133050000000  0.4832410000000  0.5224780000000 1.0
C      1  0.6060220000000  0.5151060000000  0.4797700000000 1.0
C      1  0.5523980000000  0.5151060000000  0.5972310000000 1.0
C      1  0.4249520000000  0.5147760000000  0.5796580000000 1.0
C      1  0.4010200000000  0.5152010000000  0.4537830000000 1.0
C      1  0.5140960000000  0.5150240000000  0.3918700000000 1.0
C      1  0.6047290000000  0.4856790000000  0.4794120000000 1.0
C      1  0.5523710000000  0.4855670000000  0.5971670000000 1.0
C      1  0.4271140000000  0.4854030000000  0.5784230000000 1.0
C      1  0.4025830000000  0.4857630000000  0.4542730000000 1.0
C      1  0.5146810000000  0.4862090000000  0.3920320000000 1.0
C      1  0.5832890000000  0.4474870000000  0.4510040000000 1.0
C      1  0.5733140000000  0.4475800000000  0.5654500000000 1.0
C      1  0.4607710000000  0.4503840000000  0.5859750000000 1.0
C      1  0.4035690000000  0.4478770000000  0.4908920000000 1.0
C      1  0.4796810000000  0.4492240000000  0.4044050000000 1.0
C      1  0.5829770000000  0.5535790000000  0.4518930000000 1.0
C      1  0.5751570000000  0.5549850000000  0.5653230000000 1.0
C      1  0.4605050000000  0.5530040000000  0.5901130000000 1.0
C      1  0.4030180000000  0.5531700000000  0.4908620000000 1.0
C      1  0.4775370000000  0.5543660000000  0.4031850000000 1.0
C      1  0.4321960000000  0.5154740000000  0.4902120000000 1.0
C      1  0.4926340000000  0.5172140000000  0.4304990000000 1.0
C      1  0.5592650000000  0.5144170000000  0.4692680000000 1.0
C      1  0.5532950000000  0.5145880000000  0.5543130000000 1.0
C      1  0.4682950000000  0.5155930000000  0.5587360000000 1.0
C      1  0.4339260000000  0.4850560000000  0.4914060000000 1.0
C      1  0.4985420000000  0.4888790000000  0.4320870000000 1.0
C      1  0.5565330000000  0.4836960000000  0.4677030000000 1.0
C      1  0.5447820000000  0.4877970000000  0.5560300000000 1.0
C      1  0.4611950000000  0.4887060000000  0.5469370000000 1.0
C      1  0.5536870000000  0.4493960000000  0.4829310000000 1.0
C      1  0.5343530000000  0.4420290000000  0.5503010000000 1.0
C      1  0.4631910000000  0.4393260000000  0.5460190000000 1.0
C      1  0.4468960000000  0.4501480000000  0.4812190000000 1.0
C      1  0.5017750000000  0.4418120000000  0.4384210000000 1.0
C      1  0.5540140000000  0.5508270000000  0.4832880000000 1.0
C      1  0.5342910000000  0.5578120000000  0.5489390000000 1.0
C      1  0.4644810000000  0.5545480000000  0.5486450000000 1.0
C      1  0.4469970000000  0.5496120000000  0.4812300000000 1.0
C      1  0.5010840000000  0.5564650000000  0.4370710000000 1.0
C      1  0.4872780000000  0.4053600000000  0.4557330000000 1.0
C      1  0.5391090000000  0.4059940000000  0.4744190000000 1.0
C      1  0.5358040000000  0.4062440000000  0.5297430000000 1.0
C      1  0.4832480000000  0.4043770000000  0.5432270000000 1.0
C      1  0.4515980000000  0.4061240000000  0.4979520000000 1.0
C      1  0.4867880000000  0.5942530000000  0.4548530000000 1.0
C      1  0.5380850000000  0.5939050000000  0.4744250000000 1.0
C      1  0.5352420000000  0.5943370000000  0.5293030000000 1.0
C      1  0.4824540000000  0.5935050000000  0.5441090000000 1.0
C      1  0.4523170000000  0.5942020000000  0.4980050000000 1.0
C      1  0.4509460000000  0.5457700000000  0.4104960000000 1.0
C      1  0.5700200000000  0.5472120000000  0.4268650000000 1.0
C      1  0.5914340000000  0.5461000000000  0.5431040000000 1.0
C      1  0.4861010000000  0.5461760000000  0.6014140000000 1.0
C      1  0.4000770000000  0.5472070000000  0.5187940000000 1.0
C      1  0.4523030000000  0.4554470000000  0.4104710000000 1.0
C      1  0.5687060000000  0.4552930000000  0.4273050000000 1.0
C      1  0.5908700000000  0.4554850000000  0.5440020000000 1.0
C      1  0.4854250000000  0.4579650000000  0.5985680000000 1.0
C      1  0.4009730000000  0.4554440000000  0.5188440000000 1.0
C      1  0.5856400000000  0.5267320000000  0.4623660000000 1.0
C      1  0.5660080000000  0.5287230000000  0.5747440000000 1.0
C      1  0.4516700000000  0.5264820000000  0.5816740000000 1.0
C      1  0.4061640000000  0.5265610000000  0.4801500000000 1.0
C      1  0.4915220000000  0.5286920000000  0.4040740000000 1.0
C      1  0.5845750000000  0.4744020000000  0.4611050000000 1.0
C      1  0.5632180000000  0.4729890000000  0.5738790000000 1.0
C      1  0.4544010000000  0.4760190000000  0.5735210000000 1.0
C      1  0.4078960000000  0.4747440000000  0.4809840000000 1.0
C      1  0.4923780000000  0.4750330000000  0.4064010000000 1.0
C      1  0.4497770000000  0.5660360000000  0.4317930000000 1.0
C      1  0.5488580000000  0.5657310000000  0.4323150000000 1.0
C      1  0.5798000000000  0.5654550000000  0.5255140000000 1.0
C      1  0.4996410000000  0.5655680000000  0.5847680000000 1.0
C      1  0.4215330000000  0.5644650000000  0.5252490000000 1.0
C      1  0.4511260000000  0.4345110000000  0.4313550000000 1.0
C      1  0.5489160000000  0.4350140000000  0.4318320000000 1.0
C      1  0.5802200000000  0.4349480000000  0.5264910000000 1.0
C      1  0.4996140000000  0.4368660000000  0.5856520000000 1.0
C      1  0.4205220000000  0.4360550000000  0.5265140000000 1.0
C      1  0.4964870000000  0.5603740000000  0.5022720000000 1.0
C      1  0.4955260000000  0.4392720000000  0.5012520000000 1.0
END
