TITL C-2441154-10-419 0.040527356046568 125000 -14120.9303322745 0 0 103 (C1) n - 1
REM
REM in /home/bkarasulu/work/CARBON/AIRSS/Generating-Clusters/ReaxFF-fromJPCA2015/Units_Real/with-SteepDescent/Higher-Symm
REM
REM
REM
REM
REM
REM ./C.cell (1df0a924f5614ab8850e4351716899ee)
REM
REM compiler GCC version 9.2.1 20190827 (Red Hat 9.2.1-1)
REM options -cpp -mtune=generic -march=x86-64 -g -O0 -fpre-include=/usr/include/finclude/math-vector-fortran.h
REM seed 1182768676 -420697764 174244620 820413669 -235478636 1811232700 -818065143 2114448211 -2128559035 -1110737215 -1607688424 -852501528 -1457802941 730728390 1124480634 -538899684 -2125788245 -2111312832 567330560 273399951 -1740866345 2105846597 799084490 136284629 1819710213 407778341 1995209345 -1283457548 -1924224743 -893757772 -414273038 -1361900338 247663915
REM
CELL 1.54180   50.00000   50.00000   50.00000   90.00000   90.00000   90.00000
LATT -1
SFAC C  
C      1  0.5111130000000  0.5102050000000  0.4125290000000 1.0
C      1  0.5775270000000  0.5144130000000  0.4899020000000 1.0
C      1  0.5500880000000  0.5120360000000  0.5771290000000 1.0
C      1  0.4349060000000  0.5138680000000  0.5650320000000 1.0
C      1  0.4256490000000  0.5113010000000  0.4564550000000 1.0
C      1  0.4625540000000  0.5337110000000  0.4267560000000 1.0
C      1  0.5538290000000  0.5268690000000  0.4348570000000 1.0
C      1  0.5737090000000  0.5344960000000  0.5369800000000 1.0
C      1  0.4892210000000  0.5334800000000  0.5802900000000 1.0
C      1  0.4170920000000  0.5333120000000  0.5164110000000 1.0
C      1  0.4572140000000  0.5135300000000  0.4845440000000 1.0
C      1  0.5029640000000  0.5285780000000  0.4660410000000 1.0
C      1  0.5425420000000  0.5253150000000  0.4934440000000 1.0
C      1  0.5105120000000  0.5202020000000  0.5634610000000 1.0
C      1  0.4703990000000  0.5157010000000  0.5401010000000 1.0
C      1  0.4574620000000  0.5616360000000  0.5508030000000 1.0
C      1  0.4364910000000  0.5578500000000  0.4775200000000 1.0
C      1  0.5030370000000  0.5611840000000  0.4340870000000 1.0
C      1  0.5664590000000  0.5649010000000  0.4838340000000 1.0
C      1  0.5370090000000  0.5597790000000  0.5554130000000 1.0
C      1  0.4614580000000  0.5668300000000  0.4646210000000 1.0
C      1  0.5239930000000  0.5685370000000  0.4528900000000 1.0
C      1  0.5507540000000  0.5683060000000  0.5070460000000 1.0
C      1  0.5091060000000  0.5647200000000  0.5480100000000 1.0
C      1  0.4563000000000  0.5668130000000  0.5226860000000 1.0
C      1  0.4809930000000  0.4851740000000  0.5790640000000 1.0
C      1  0.4227350000000  0.4907790000000  0.5141140000000 1.0
C      1  0.4653940000000  0.4870210000000  0.4308190000000 1.0
C      1  0.5557990000000  0.4872070000000  0.4464060000000 1.0
C      1  0.5681400000000  0.4884720000000  0.5365560000000 1.0
C      1  0.5090500000000  0.5571040000000  0.4757290000000 1.0
C      1  0.5274180000000  0.5547840000000  0.5008020000000 1.0
C      1  0.5069590000000  0.5642520000000  0.5198310000000 1.0
C      1  0.4811800000000  0.5691410000000  0.5096410000000 1.0
C      1  0.4832060000000  0.5689730000000  0.4826160000000 1.0
C      1  0.5462670000000  0.5418440000000  0.5765190000000 1.0
C      1  0.4381150000000  0.5458170000000  0.5658280000000 1.0
C      1  0.4169900000000  0.5387220000000  0.4647290000000 1.0
C      1  0.5076880000000  0.5416370000000  0.4129620000000 1.0
C      1  0.5807370000000  0.5408700000000  0.4759100000000 1.0
C      1  0.5408730000000  0.4247150000000  0.5039660000000 1.0
C      1  0.5074630000000  0.4244650000000  0.5412100000000 1.0
C      1  0.4625980000000  0.4237130000000  0.5212080000000 1.0
C      1  0.4671620000000  0.4218910000000  0.4715630000000 1.0
C      1  0.5151570000000  0.4223760000000  0.4609760000000 1.0
C      1  0.5213970000000  0.4878030000000  0.4709980000000 1.0
C      1  0.5273310000000  0.4782920000000  0.5146220000000 1.0
C      1  0.5058120000000  0.4819440000000  0.5332480000000 1.0
C      1  0.4678780000000  0.4760440000000  0.5149200000000 1.0
C      1  0.4934290000000  0.4865440000000  0.4702060000000 1.0
C      1  0.5275820000000  0.4181130000000  0.4826050000000 1.0
C      1  0.5237110000000  0.4186950000000  0.5222200000000 1.0
C      1  0.4848030000000  0.4172910000000  0.5313870000000 1.0
C      1  0.4655870000000  0.4171970000000  0.4967090000000 1.0
C      1  0.4913880000000  0.4135260000000  0.4655790000000 1.0
C      1  0.5562450000000  0.5579210000000  0.5333470000000 1.0
C      1  0.4839130000000  0.5506900000000  0.5559700000000 1.0
C      1  0.4369330000000  0.5545010000000  0.5060960000000 1.0
C      1  0.4740890000000  0.5569650000000  0.4404130000000 1.0
C      1  0.5525510000000  0.5664250000000  0.4578580000000 1.0
C      1  0.4240830000000  0.4614890000000  0.5164610000000 1.0
C      1  0.4674500000000  0.4595870000000  0.4410210000000 1.0
C      1  0.5463330000000  0.4594280000000  0.4490050000000 1.0
C      1  0.5690010000000  0.4595400000000  0.5302230000000 1.0
C      1  0.4855480000000  0.4593480000000  0.5668730000000 1.0
C      1  0.4991230000000  0.5126420000000  0.5386340000000 1.0
C      1  0.4719000000000  0.5116050000000  0.5106610000000 1.0
C      1  0.4795340000000  0.5133480000000  0.4664640000000 1.0
C      1  0.5272610000000  0.5145830000000  0.4703100000000 1.0
C      1  0.5272870000000  0.5081960000000  0.5107680000000 1.0
C      1  0.5691930000000  0.4909220000000  0.4729430000000 1.0
C      1  0.5480530000000  0.4896240000000  0.5588770000000 1.0
C      1  0.4590060000000  0.4934170000000  0.5587300000000 1.0
C      1  0.4335440000000  0.4948740000000  0.4808730000000 1.0
C      1  0.4945990000000  0.4871470000000  0.4227920000000 1.0
C      1  0.5650200000000  0.4440920000000  0.5060100000000 1.0
C      1  0.5108270000000  0.4457920000000  0.5634570000000 1.0
C      1  0.4412140000000  0.4430910000000  0.5350470000000 1.0
C      1  0.4504940000000  0.4433170000000  0.4579160000000 1.0
C      1  0.5241730000000  0.4428110000000  0.4392290000000 1.0
C      1  0.4847640000000  0.4634140000000  0.5370540000000 1.0
C      1  0.4475400000000  0.4607970000000  0.4990680000000 1.0
C      1  0.4874300000000  0.4592040000000  0.4611850000000 1.0
C      1  0.5366540000000  0.4646340000000  0.4773960000000 1.0
C      1  0.5400680000000  0.4584420000000  0.5341270000000 1.0
C      1  0.5645430000000  0.4658820000000  0.4866900000000 1.0
C      1  0.5340070000000  0.4636750000000  0.5622930000000 1.0
C      1  0.4455820000000  0.4656780000000  0.5512100000000 1.0
C      1  0.4382710000000  0.4651040000000  0.4724150000000 1.0
C      1  0.5111900000000  0.4649230000000  0.4283900000000 1.0
C      1  0.4481030000000  0.5096250000000  0.4370690000000 1.0
C      1  0.5405070000000  0.5067350000000  0.4283670000000 1.0
C      1  0.5776230000000  0.5109840000000  0.5206390000000 1.0
C      1  0.5012700000000  0.5043370000000  0.5843910000000 1.0
C      1  0.4234500000000  0.5104210000000  0.5340490000000 1.0
C      1  0.5709790000000  0.5449930000000  0.4479190000000 1.0
C      1  0.5704320000000  0.5299440000000  0.5661420000000 1.0
C      1  0.4559980000000  0.5298380000000  0.5793660000000 1.0
C      1  0.4071900000000  0.5305680000000  0.4897290000000 1.0
C      1  0.4843430000000  0.5271640000000  0.4085620000000 1.0
C      1  0.5009930000000  0.5196310000000  0.5105030000000 1.0
C      1  0.4900180000000  0.4756010000000  0.4975440000000 1.0
C      1  0.4958190000000  0.4474890000000  0.4884570000000 1.0
END
