TITL C-2441157-2117-1364 0.00097561803525501 125000 -4315.08412887973 0 0 30 (C2) n - 1
REM
REM in /home/bkarasulu/work/CARBON/AIRSS/Generating-Clusters/ReaxFF-fromJPCA2015/Units_Real/with-SteepDescent/Higher-Symm
REM
REM
REM
REM
REM
REM ./C.cell (1df0a924f5614ab8850e4351716899ee)
REM
REM compiler GCC version 9.2.1 20190827 (Red Hat 9.2.1-1)
REM options -cpp -mtune=generic -march=x86-64 -g -O0 -fpre-include=/usr/include/finclude/math-vector-fortran.h
REM seed 2026173668 -1360232765 576494594 1153064574 1739043160 -1903677955 1519089337 127556436 1531944250 -1274161162 -670256363 697904386 83401492 1212459900 1949114334 1990457023 -359015264 -1806682291 -1915089689 -1351057515 -368694996 -1080032012 -470096501 1052361390 -955921952 -793446209 10597242 1946101417 1002225609 -1865226510 199029131 -1774006890 597497045
REM
CELL 1.54180   50.00000   50.00000   50.00000   90.00000   90.00000   90.00000
LATT -1
SFAC C  
C      1  0.4829850000000  0.4581510000000  0.5031950000000 1.0
C      1  0.5170150000000  0.5418490000000  0.5031950000000 1.0
C      1  0.5357630000000  0.4881060000000  0.4867710000000 1.0
C      1  0.4642370000000  0.5118940000000  0.4867710000000 1.0
C      1  0.4758680000000  0.4856800000000  0.5436550000000 1.0
C      1  0.5241320000000  0.5143200000000  0.5436550000000 1.0
C      1  0.4830670000000  0.5303930000000  0.4467890000000 1.0
C      1  0.5169330000000  0.4696070000000  0.4467890000000 1.0
C      1  0.5140610000000  0.5350780000000  0.4750920000000 1.0
C      1  0.4859390000000  0.4649220000000  0.4750920000000 1.0
C      1  0.5238140000000  0.4947190000000  0.4380930000000 1.0
C      1  0.4761860000000  0.5052810000000  0.4380930000000 1.0
C      1  0.5116080000000  0.4518220000000  0.4680040000000 1.0
C      1  0.4883920000000  0.5481780000000  0.4680040000000 1.0
C      1  0.4633570000000  0.4732840000000  0.5201090000000 1.0
C      1  0.5366430000000  0.5267160000000  0.5201090000000 1.0
C      1  0.5154040000000  0.5053580000000  0.4690210000000 1.0
C      1  0.4845960000000  0.4946420000000  0.4690210000000 1.0
C      1  0.4525420000000  0.4942810000000  0.5045360000000 1.0
C      1  0.5474580000000  0.5057190000000  0.5045360000000 1.0
C      1  0.5280260000000  0.4596140000000  0.4910590000000 1.0
C      1  0.4719740000000  0.5403860000000  0.4910590000000 1.0
C      1  0.4743470000000  0.5140180000000  0.5483870000000 1.0
C      1  0.5256530000000  0.4859820000000  0.5483870000000 1.0
C      1  0.4826770000000  0.5397970000000  0.5390510000000 1.0
C      1  0.5173230000000  0.4602030000000  0.5390510000000 1.0
C      1  0.4901110000000  0.5472910000000  0.5126250000000 1.0
C      1  0.5098890000000  0.4527090000000  0.5126250000000 1.0
C      1  0.4998660000000  0.4746660000000  0.5536120000000 1.0
C      1  0.5001340000000  0.5253340000000  0.5536120000000 1.0
END
