TITL C-2441164-471-187 0.116093983550734 125000 -25715.2425141263 0 0 196 (C1) n - 1
REM
REM in /home/bkarasulu/work/CARBON/AIRSS/Generating-Clusters/ReaxFF-fromJPCA2015/Units_Real/with-SteepDescent/Higher-Symm
REM
REM
REM
REM
REM
REM ./C.cell (1df0a924f5614ab8850e4351716899ee)
REM
REM compiler GCC version 9.2.1 20190827 (Red Hat 9.2.1-1)
REM options -cpp -mtune=generic -march=x86-64 -g -O0 -fpre-include=/usr/include/finclude/math-vector-fortran.h
REM seed 1371505610 -208726064 849316047 1760075729 -1977877588 -196364084 1002112679 -436399774 24141130 -1997920549 988394105 -331029871 417547419 476189567 608878437 1595792461 369929730 486544091 -267620368 458800701 -2002510827 829011550 31710640 -1719097291 -2055317088 -1070516064 637064340 993992126 495191777 1355711283 1464486805 1044118399 497998612
REM
CELL 1.54180   50.00000   50.00000   50.00000   90.00000   90.00000   90.00000
LATT -1
SFAC C  
C      1  0.4509940000000  0.4930730000000  0.5450010000000 1.0
C      1  0.5053650000000  0.4904400000000  0.5584900000000 1.0
C      1  0.5336540000000  0.4860650000000  0.5537500000000 1.0
C      1  0.5521410000000  0.5057330000000  0.5407170000000 1.0
C      1  0.5636260000000  0.4928440000000  0.5165350000000 1.0
C      1  0.5531700000000  0.4870040000000  0.4641790000000 1.0
C      1  0.5278580000000  0.5067210000000  0.4368770000000 1.0
C      1  0.4912850000000  0.4917330000000  0.4443130000000 1.0
C      1  0.4477100000000  0.5115460000000  0.4544690000000 1.0
C      1  0.4342230000000  0.4888520000000  0.4650700000000 1.0
C      1  0.4384400000000  0.4972540000000  0.5188420000000 1.0
C      1  0.6004040000000  0.5126010000000  0.5496990000000 1.0
C      1  0.6098340000000  0.5045590000000  0.4878380000000 1.0
C      1  0.5847690000000  0.5087520000000  0.4317770000000 1.0
C      1  0.5368010000000  0.4999730000000  0.3897900000000 1.0
C      1  0.4713590000000  0.5089140000000  0.3925360000000 1.0
C      1  0.4171930000000  0.5035590000000  0.4224280000000 1.0
C      1  0.3881780000000  0.5092890000000  0.4824940000000 1.0
C      1  0.3979310000000  0.5082910000000  0.5435390000000 1.0
C      1  0.4337840000000  0.4957800000000  0.5881820000000 1.0
C      1  0.4995930000000  0.5099540000000  0.6095120000000 1.0
C      1  0.5558790000000  0.5070750000000  0.5933970000000 1.0
C      1  0.5616710000000  0.4396440000000  0.4296220000000 1.0
C      1  0.5134860000000  0.4312260000000  0.4201380000000 1.0
C      1  0.4666300000000  0.4362720000000  0.4202170000000 1.0
C      1  0.4277120000000  0.4329190000000  0.4463620000000 1.0
C      1  0.4171550000000  0.4312290000000  0.4921410000000 1.0
C      1  0.4194660000000  0.4376490000000  0.5465520000000 1.0
C      1  0.4631710000000  0.4257040000000  0.5700590000000 1.0
C      1  0.5037460000000  0.4385540000000  0.5886300000000 1.0
C      1  0.5574740000000  0.4358930000000  0.5723560000000 1.0
C      1  0.5822180000000  0.4363060000000  0.5275170000000 1.0
C      1  0.5849040000000  0.4368110000000  0.4792490000000 1.0
C      1  0.4484980000000  0.5342200000000  0.3895090000000 1.0
C      1  0.4036020000000  0.5276240000000  0.4410360000000 1.0
C      1  0.3874970000000  0.5315490000000  0.5027840000000 1.0
C      1  0.4060380000000  0.5292980000000  0.5624670000000 1.0
C      1  0.4601940000000  0.5289140000000  0.6055630000000 1.0
C      1  0.5191250000000  0.5325090000000  0.6054210000000 1.0
C      1  0.5788720000000  0.5272280000000  0.5930640000000 1.0
C      1  0.6058870000000  0.5358720000000  0.5301490000000 1.0
C      1  0.6057460000000  0.5273240000000  0.4679240000000 1.0
C      1  0.5741500000000  0.5278300000000  0.4140770000000 1.0
C      1  0.5148150000000  0.5264570000000  0.3905130000000 1.0
C      1  0.4378260000000  0.5983420000000  0.4964130000000 1.0
C      1  0.4420080000000  0.6026810000000  0.5214360000000 1.0
C      1  0.4553260000000  0.5922620000000  0.5401380000000 1.0
C      1  0.5058130000000  0.5811770000000  0.5656520000000 1.0
C      1  0.5313500000000  0.5859420000000  0.5482070000000 1.0
C      1  0.5678090000000  0.5870330000000  0.5279680000000 1.0
C      1  0.5573820000000  0.5895090000000  0.5011030000000 1.0
C      1  0.5432620000000  0.5916500000000  0.4625720000000 1.0
C      1  0.5201870000000  0.5862220000000  0.4453170000000 1.0
C      1  0.4797800000000  0.5921570000000  0.4438310000000 1.0
C      1  0.4569830000000  0.5899190000000  0.4622670000000 1.0
C      1  0.4579950000000  0.5568180000000  0.5960500000000 1.0
C      1  0.5157130000000  0.5609120000000  0.5992000000000 1.0
C      1  0.5701410000000  0.5527770000000  0.5813650000000 1.0
C      1  0.5946710000000  0.5634580000000  0.5284610000000 1.0
C      1  0.6004580000000  0.5558820000000  0.4711180000000 1.0
C      1  0.5693430000000  0.5550900000000  0.4225990000000 1.0
C      1  0.5187960000000  0.5542360000000  0.3966480000000 1.0
C      1  0.4582730000000  0.5561520000000  0.4052390000000 1.0
C      1  0.4135140000000  0.5548060000000  0.4411150000000 1.0
C      1  0.3999670000000  0.5573190000000  0.5002050000000 1.0
C      1  0.4168710000000  0.5551670000000  0.5549900000000 1.0
C      1  0.5229860000000  0.4430460000000  0.4022640000000 1.0
C      1  0.4755120000000  0.4598490000000  0.4044210000000 1.0
C      1  0.4393770000000  0.4384280000000  0.4221160000000 1.0
C      1  0.4032880000000  0.4476590000000  0.4824120000000 1.0
C      1  0.4045640000000  0.4589720000000  0.5328310000000 1.0
C      1  0.4466520000000  0.4396330000000  0.5856110000000 1.0
C      1  0.4839410000000  0.4499660000000  0.5981420000000 1.0
C      1  0.5449950000000  0.4467340000000  0.5920500000000 1.0
C      1  0.5884100000000  0.4587240000000  0.5450040000000 1.0
C      1  0.5980700000000  0.4376020000000  0.5041200000000 1.0
C      1  0.5799500000000  0.4593180000000  0.4377590000000 1.0
C      1  0.6137290000000  0.4839960000000  0.5093310000000 1.0
C      1  0.6152260000000  0.4977580000000  0.4406770000000 1.0
C      1  0.5533860000000  0.4808910000000  0.4051020000000 1.0
C      1  0.4894490000000  0.4976360000000  0.3688500000000 1.0
C      1  0.4342330000000  0.4847710000000  0.4067680000000 1.0
C      1  0.3824620000000  0.4958580000000  0.4549990000000 1.0
C      1  0.3701220000000  0.4969990000000  0.5284110000000 1.0
C      1  0.4180510000000  0.4755370000000  0.5747230000000 1.0
C      1  0.4702650000000  0.5062270000000  0.6209440000000 1.0
C      1  0.5454230000000  0.4933960000000  0.6207390000000 1.0
C      1  0.5955120000000  0.5074850000000  0.5792510000000 1.0
C      1  0.5738680000000  0.5514370000000  0.5513900000000 1.0
C      1  0.5902030000000  0.5567770000000  0.4988720000000 1.0
C      1  0.5798030000000  0.5542410000000  0.4502220000000 1.0
C      1  0.5409790000000  0.5515840000000  0.4156770000000 1.0
C      1  0.4900560000000  0.5539550000000  0.4094620000000 1.0
C      1  0.4393560000000  0.5493670000000  0.4278420000000 1.0
C      1  0.4138970000000  0.5546480000000  0.4729700000000 1.0
C      1  0.4150350000000  0.5518500000000  0.5254570000000 1.0
C      1  0.4397190000000  0.5497710000000  0.5737680000000 1.0
C      1  0.4872240000000  0.5549390000000  0.5896900000000 1.0
C      1  0.5416450000000  0.5582170000000  0.5826790000000 1.0
C      1  0.5509760000000  0.3963530000000  0.5187750000000 1.0
C      1  0.5521300000000  0.3974500000000  0.4892850000000 1.0
C      1  0.5318390000000  0.3916900000000  0.4721680000000 1.0
C      1  0.5121100000000  0.3935280000000  0.4527310000000 1.0
C      1  0.4829940000000  0.3956450000000  0.4539630000000 1.0
C      1  0.4594970000000  0.3967300000000  0.4713960000000 1.0
C      1  0.4520520000000  0.4003490000000  0.4990980000000 1.0
C      1  0.4534780000000  0.3958190000000  0.5275740000000 1.0
C      1  0.4787290000000  0.3916600000000  0.5409270000000 1.0
C      1  0.5039150000000  0.3875560000000  0.5275760000000 1.0
C      1  0.5306400000000  0.3913800000000  0.5385730000000 1.0
C      1  0.5573840000000  0.4215730000000  0.5297470000000 1.0
C      1  0.5612420000000  0.4209830000000  0.4744630000000 1.0
C      1  0.5467210000000  0.4241750000000  0.4495970000000 1.0
C      1  0.5176530000000  0.4205540000000  0.4436850000000 1.0
C      1  0.4773220000000  0.4231030000000  0.4450720000000 1.0
C      1  0.4516690000000  0.4216760000000  0.4586350000000 1.0
C      1  0.4377260000000  0.4241520000000  0.5043000000000 1.0
C      1  0.4367660000000  0.4196200000000  0.5320410000000 1.0
C      1  0.4825830000000  0.4149070000000  0.5568700000000 1.0
C      1  0.5088350000000  0.4297400000000  0.5587550000000 1.0
C      1  0.5388960000000  0.4178540000000  0.5523150000000 1.0
C      1  0.4916670000000  0.5246320000000  0.4062960000000 1.0
C      1  0.4418300000000  0.5198090000000  0.4271690000000 1.0
C      1  0.4101190000000  0.5252600000000  0.4689190000000 1.0
C      1  0.4092460000000  0.5232310000000  0.5201650000000 1.0
C      1  0.4296790000000  0.5224020000000  0.5765570000000 1.0
C      1  0.4829250000000  0.5265490000000  0.5891640000000 1.0
C      1  0.5335950000000  0.5288330000000  0.5790640000000 1.0
C      1  0.5729290000000  0.5229910000000  0.5499420000000 1.0
C      1  0.5897280000000  0.5278220000000  0.5066010000000 1.0
C      1  0.5780230000000  0.5251790000000  0.4565630000000 1.0
C      1  0.5455560000000  0.5203120000000  0.4164870000000 1.0
C      1  0.5115580000000  0.4857080000000  0.3836450000000 1.0
C      1  0.4624070000000  0.4856780000000  0.4063460000000 1.0
C      1  0.4096010000000  0.4814260000000  0.4483600000000 1.0
C      1  0.3876170000000  0.4880050000000  0.5080140000000 1.0
C      1  0.4057250000000  0.4813080000000  0.5503020000000 1.0
C      1  0.4539180000000  0.4872920000000  0.6061740000000 1.0
C      1  0.5200830000000  0.4840460000000  0.6118780000000 1.0
C      1  0.5742240000000  0.4875930000000  0.5794370000000 1.0
C      1  0.5936490000000  0.4851880000000  0.5315350000000 1.0
C      1  0.6089090000000  0.4833410000000  0.4646480000000 1.0
C      1  0.5691670000000  0.4844000000000  0.4301640000000 1.0
C      1  0.4941790000000  0.5165280000000  0.4579570000000 1.0
C      1  0.4695360000000  0.5243320000000  0.4691460000000 1.0
C      1  0.4650240000000  0.5340250000000  0.4944890000000 1.0
C      1  0.4571820000000  0.5203310000000  0.5158850000000 1.0
C      1  0.4676570000000  0.5165340000000  0.5426340000000 1.0
C      1  0.4947180000000  0.5160310000000  0.5521540000000 1.0
C      1  0.5207110000000  0.5275900000000  0.5504640000000 1.0
C      1  0.5345060000000  0.5250070000000  0.5247800000000 1.0
C      1  0.5580210000000  0.5183040000000  0.5040920000000 1.0
C      1  0.5507670000000  0.5150610000000  0.4743450000000 1.0
C      1  0.5232390000000  0.5221150000000  0.4601900000000 1.0
C      1  0.5029400000000  0.4682600000000  0.4527210000000 1.0
C      1  0.4763410000000  0.4725860000000  0.4600650000000 1.0
C      1  0.4539840000000  0.4722140000000  0.4788070000000 1.0
C      1  0.4516580000000  0.4733310000000  0.5078800000000 1.0
C      1  0.4631170000000  0.4687500000000  0.5346000000000 1.0
C      1  0.4889180000000  0.4692180000000  0.5475560000000 1.0
C      1  0.5084590000000  0.4506450000000  0.5395120000000 1.0
C      1  0.5323030000000  0.4654750000000  0.5341380000000 1.0
C      1  0.5461860000000  0.4718560000000  0.5101320000000 1.0
C      1  0.5441930000000  0.4664280000000  0.4824340000000 1.0
C      1  0.5300070000000  0.4722030000000  0.4577860000000 1.0
C      1  0.4423350000000  0.5731310000000  0.4827810000000 1.0
C      1  0.4584950000000  0.5582230000000  0.5023760000000 1.0
C      1  0.4632010000000  0.5682390000000  0.5300940000000 1.0
C      1  0.4842400000000  0.5676460000000  0.5507550000000 1.0
C      1  0.5092860000000  0.5701850000000  0.5411640000000 1.0
C      1  0.5495290000000  0.5683250000000  0.5347480000000 1.0
C      1  0.5408240000000  0.5662140000000  0.5056550000000 1.0
C      1  0.5549090000000  0.5677550000000  0.4797030000000 1.0
C      1  0.5336490000000  0.5667930000000  0.4599250000000 1.0
C      1  0.4968740000000  0.5684520000000  0.4392370000000 1.0
C      1  0.4748140000000  0.5691100000000  0.4570200000000 1.0
C      1  0.5936660000000  0.4572710000000  0.4614930000000 1.0
C      1  0.5498190000000  0.4527920000000  0.4067390000000 1.0
C      1  0.5025880000000  0.4604060000000  0.3944980000000 1.0
C      1  0.4340580000000  0.4570570000000  0.4062060000000 1.0
C      1  0.4078830000000  0.4521610000000  0.4545920000000 1.0
C      1  0.3922230000000  0.4596700000000  0.5063460000000 1.0
C      1  0.4238790000000  0.4479620000000  0.5726150000000 1.0
C      1  0.4606410000000  0.4591580000000  0.6024350000000 1.0
C      1  0.5231280000000  0.4537360000000  0.6070450000000 1.0
C      1  0.5777130000000  0.4588610000000  0.5711860000000 1.0
C      1  0.6112930000000  0.4567240000000  0.5067560000000 1.0
C      1  0.5043910000000  0.5379770000000  0.5005740000000 1.0
C      1  0.5008130000000  0.5903520000000  0.4988110000000 1.0
C      1  0.5042990000000  0.5113000000000  0.5023470000000 1.0
C      1  0.4989100000000  0.4345690000000  0.4990280000000 1.0
C      1  0.5006110000000  0.4065190000000  0.5037580000000 1.0
C      1  0.5002490000000  0.6147190000000  0.5006470000000 1.0
C      1  0.5014120000000  0.5641420000000  0.4968320000000 1.0
C      1  0.4985700000000  0.4598540000000  0.4981610000000 1.0
C      1  0.5002010000000  0.4856930000000  0.4994060000000 1.0
END
