TITL C-2441161-5029-1295 0.0263495373696826 125000 -9284.31170332073 0 0 68 (C1) n - 1
REM
REM in /home/bkarasulu/work/CARBON/AIRSS/Generating-Clusters/ReaxFF-fromJPCA2015/Units_Real/with-SteepDescent/Higher-Symm
REM
REM
REM
REM
REM
REM ./C.cell (1df0a924f5614ab8850e4351716899ee)
REM
REM compiler GCC version 9.2.1 20190827 (Red Hat 9.2.1-1)
REM options -cpp -mtune=generic -march=x86-64 -g -O0 -fpre-include=/usr/include/finclude/math-vector-fortran.h
REM seed 928138041 712486521 -953099599 733933448 -1417131952 -1189817189 -116230018 1825264006 -431999911 -1132316034 -685080256 1370713508 -816018311 -183378915 -444455769 571511950 1928910681 -1349667403 1688298550 1329768990 -260176751 966311656 1594481108 600240624 -1273492858 -307439047 1359612724 -1406142612 -1911836355 -1627030989 169192560 902439601 118344315
REM
CELL 1.54180   50.00000   50.00000   50.00000   90.00000   90.00000   90.00000
LATT -1
SFAC C  
C      1  0.4962110000000  0.5089180000000  0.5323020000000 1.0
C      1  0.5421350000000  0.5358330000000  0.5424050000000 1.0
C      1  0.5214860000000  0.4716660000000  0.4335440000000 1.0
C      1  0.5312060000000  0.4605140000000  0.5501990000000 1.0
C      1  0.5447580000000  0.4621250000000  0.4761910000000 1.0
C      1  0.4966510000000  0.5183320000000  0.5624770000000 1.0
C      1  0.5532250000000  0.5070890000000  0.4520740000000 1.0
C      1  0.4554510000000  0.5093160000000  0.5790310000000 1.0
C      1  0.5777560000000  0.4961460000000  0.4929080000000 1.0
C      1  0.4347800000000  0.5368460000000  0.5220700000000 1.0
C      1  0.4894160000000  0.5281120000000  0.4837770000000 1.0
C      1  0.4812790000000  0.5187700000000  0.4290100000000 1.0
C      1  0.4592740000000  0.5590200000000  0.4895760000000 1.0
C      1  0.4803380000000  0.5425300000000  0.5518900000000 1.0
C      1  0.4727390000000  0.4915110000000  0.4576090000000 1.0
C      1  0.4494440000000  0.4967240000000  0.5562620000000 1.0
C      1  0.5264380000000  0.5283650000000  0.5655530000000 1.0
C      1  0.4630760000000  0.4756140000000  0.4798310000000 1.0
C      1  0.4988720000000  0.4891150000000  0.5737480000000 1.0
C      1  0.5442430000000  0.5052640000000  0.5702900000000 1.0
C      1  0.5152640000000  0.5271410000000  0.4939830000000 1.0
C      1  0.5202020000000  0.5047520000000  0.4741530000000 1.0
C      1  0.5225030000000  0.5467200000000  0.5168370000000 1.0
C      1  0.4547870000000  0.5509900000000  0.5387000000000 1.0
C      1  0.4774700000000  0.4957940000000  0.5162870000000 1.0
C      1  0.4723640000000  0.4504930000000  0.4851950000000 1.0
C      1  0.4928110000000  0.4663040000000  0.4302170000000 1.0
C      1  0.5117360000000  0.4458600000000  0.5079800000000 1.0
C      1  0.4350580000000  0.4813610000000  0.4908340000000 1.0
C      1  0.4650420000000  0.5334930000000  0.4480510000000 1.0
C      1  0.4499370000000  0.4979250000000  0.5124720000000 1.0
C      1  0.5612660000000  0.5200320000000  0.4954940000000 1.0
C      1  0.5121250000000  0.5221480000000  0.4297400000000 1.0
C      1  0.5663930000000  0.4893540000000  0.5235770000000 1.0
C      1  0.4338730000000  0.5105470000000  0.5331770000000 1.0
C      1  0.4422400000000  0.5239970000000  0.4667150000000 1.0
C      1  0.5403680000000  0.4493430000000  0.5060590000000 1.0
C      1  0.5192090000000  0.5433050000000  0.4462370000000 1.0
C      1  0.5135510000000  0.5640280000000  0.4643980000000 1.0
C      1  0.4710350000000  0.5621810000000  0.5164970000000 1.0
C      1  0.5183560000000  0.4947170000000  0.5228680000000 1.0
C      1  0.5446590000000  0.5597540000000  0.4733510000000 1.0
C      1  0.4784060000000  0.5516670000000  0.4673830000000 1.0
C      1  0.4866910000000  0.4304860000000  0.4727150000000 1.0
C      1  0.4381820000000  0.5405260000000  0.4924300000000 1.0
C      1  0.5121840000000  0.4302870000000  0.4561210000000 1.0
C      1  0.4579510000000  0.4668430000000  0.5516120000000 1.0
C      1  0.5426070000000  0.5014390000000  0.5114160000000 1.0
C      1  0.5552740000000  0.5324440000000  0.4700780000000 1.0
C      1  0.5312430000000  0.4996120000000  0.4332860000000 1.0
C      1  0.4390580000000  0.4505960000000  0.5047370000000 1.0
C      1  0.5038780000000  0.4764940000000  0.5047990000000 1.0
C      1  0.5596580000000  0.5129090000000  0.5462600000000 1.0
C      1  0.5263040000000  0.4810570000000  0.5704980000000 1.0
C      1  0.5256060000000  0.5664260000000  0.4937510000000 1.0
C      1  0.4593300000000  0.4513110000000  0.5265310000000 1.0
C      1  0.4899310000000  0.4421590000000  0.5262310000000 1.0
C      1  0.4292840000000  0.4983100000000  0.4648660000000 1.0
C      1  0.4953000000000  0.5511070000000  0.5291870000000 1.0
C      1  0.5319360000000  0.4505040000000  0.4508480000000 1.0
C      1  0.5028840000000  0.4521030000000  0.5491840000000 1.0
C      1  0.4752240000000  0.4899760000000  0.4286950000000 1.0
C      1  0.5647740000000  0.4861080000000  0.4692230000000 1.0
C      1  0.4934930000000  0.5074270000000  0.4661420000000 1.0
C      1  0.5198480000000  0.4782960000000  0.4813940000000 1.0
C      1  0.5512460000000  0.4627940000000  0.5286110000000 1.0
C      1  0.4827440000000  0.4662760000000  0.5662480000000 1.0
C      1  0.4879390000000  0.4407920000000  0.4441860000000 1.0
END
