TITL C-2441159-1093-996 0.0556920930708097 125000 -11056.4272556187 0 0 86 (C1) n - 1
REM
REM in /home/bkarasulu/work/CARBON/AIRSS/Generating-Clusters/ReaxFF-fromJPCA2015/Units_Real/with-SteepDescent/Higher-Symm
REM
REM
REM
REM
REM
REM ./C.cell (1df0a924f5614ab8850e4351716899ee)
REM
REM compiler GCC version 9.2.1 20190827 (Red Hat 9.2.1-1)
REM options -cpp -mtune=generic -march=x86-64 -g -O0 -fpre-include=/usr/include/finclude/math-vector-fortran.h
REM seed 1318580011 -2023470560 -1645235714 -397895523 -573157244 943641348 1664131004 1916721929 -628584627 63683576 -452640230 1672883036 -1754449809 1054694579 1581034007 1875780656 -936280435 -1508414284 -1836998300 741229897 1129643627 2136954272 -1429143635 2023170805 -1446838158 -110081618 1986754817 723097925 -813263800 -1487338204 -1282288052 -222571416 -908759878
REM
CELL 1.54180   50.00000   50.00000   50.00000   90.00000   90.00000   90.00000
LATT -1
SFAC C  
C      1  0.5565800000000  0.4974130000000  0.5645710000000 1.0
C      1  0.5648370000000  0.4887520000000  0.5376610000000 1.0
C      1  0.5413940000000  0.5700310000000  0.5004760000000 1.0
C      1  0.5192000000000  0.5559740000000  0.4551330000000 1.0
C      1  0.4932900000000  0.5463490000000  0.5551850000000 1.0
C      1  0.4197280000000  0.5019960000000  0.4553740000000 1.0
C      1  0.5316870000000  0.4528930000000  0.5612050000000 1.0
C      1  0.5656270000000  0.4413230000000  0.4946160000000 1.0
C      1  0.5222160000000  0.5026210000000  0.4760200000000 1.0
C      1  0.5195110000000  0.4634190000000  0.4461460000000 1.0
C      1  0.5297770000000  0.4821180000000  0.5690000000000 1.0
C      1  0.4956150000000  0.5713200000000  0.4511320000000 1.0
C      1  0.5284220000000  0.4128210000000  0.4988170000000 1.0
C      1  0.5345650000000  0.4415590000000  0.4569030000000 1.0
C      1  0.5458020000000  0.5013970000000  0.5180990000000 1.0
C      1  0.5726370000000  0.5058600000000  0.4689040000000 1.0
C      1  0.5733200000000  0.4675370000000  0.5233030000000 1.0
C      1  0.4802320000000  0.4515040000000  0.5369920000000 1.0
C      1  0.4670190000000  0.5715590000000  0.4898290000000 1.0
C      1  0.4187560000000  0.4645650000000  0.5051850000000 1.0
C      1  0.4197840000000  0.5119630000000  0.4818620000000 1.0
C      1  0.4400200000000  0.4825240000000  0.5542040000000 1.0
C      1  0.5215320000000  0.5775470000000  0.5235520000000 1.0
C      1  0.4674170000000  0.4534800000000  0.4925540000000 1.0
C      1  0.5589370000000  0.4653880000000  0.5037100000000 1.0
C      1  0.4623540000000  0.4394080000000  0.5175770000000 1.0
C      1  0.5020580000000  0.4413180000000  0.5250500000000 1.0
C      1  0.4853400000000  0.4803980000000  0.5462410000000 1.0
C      1  0.4619570000000  0.4986760000000  0.4824780000000 1.0
C      1  0.5454970000000  0.5476190000000  0.5457940000000 1.0
C      1  0.5432830000000  0.5470270000000  0.4682770000000 1.0
C      1  0.5327790000000  0.4814620000000  0.4985970000000 1.0
C      1  0.5496010000000  0.4253970000000  0.5141790000000 1.0
C      1  0.5173350000000  0.5592430000000  0.5461840000000 1.0
C      1  0.4534540000000  0.5363740000000  0.4449340000000 1.0
C      1  0.5653460000000  0.4785910000000  0.4600210000000 1.0
C      1  0.4981100000000  0.5130680000000  0.4636380000000 1.0
C      1  0.5248170000000  0.4536350000000  0.5335660000000 1.0
C      1  0.4767620000000  0.4438590000000  0.4670410000000 1.0
C      1  0.5274160000000  0.5279710000000  0.4899140000000 1.0
C      1  0.5451480000000  0.4349090000000  0.5417470000000 1.0
C      1  0.5065390000000  0.5112160000000  0.4338910000000 1.0
C      1  0.4517160000000  0.4978610000000  0.5108480000000 1.0
C      1  0.4297020000000  0.4653010000000  0.5327890000000 1.0
C      1  0.5129960000000  0.4948360000000  0.5481720000000 1.0
C      1  0.4930490000000  0.4221600000000  0.4782500000000 1.0
C      1  0.4399870000000  0.5111400000000  0.4367640000000 1.0
C      1  0.5366680000000  0.5105850000000  0.4365930000000 1.0
C      1  0.4886810000000  0.4848760000000  0.4294640000000 1.0
C      1  0.4859920000000  0.5517240000000  0.4986920000000 1.0
C      1  0.5096600000000  0.4662970000000  0.4937310000000 1.0
C      1  0.4452350000000  0.5508190000000  0.4843910000000 1.0
C      1  0.5225520000000  0.5204220000000  0.5192190000000 1.0
C      1  0.4597600000000  0.4884720000000  0.4324420000000 1.0
C      1  0.4311280000000  0.5103370000000  0.5511770000000 1.0
C      1  0.4643450000000  0.5454880000000  0.5520150000000 1.0
C      1  0.4759980000000  0.4974430000000  0.5255980000000 1.0
C      1  0.5518130000000  0.5235370000000  0.5573910000000 1.0
C      1  0.4584150000000  0.4802750000000  0.4595830000000 1.0
C      1  0.4288250000000  0.5399030000000  0.5078440000000 1.0
C      1  0.4860240000000  0.4753010000000  0.4941310000000 1.0
C      1  0.4499050000000  0.5505200000000  0.5263970000000 1.0
C      1  0.4291300000000  0.5129600000000  0.5213560000000 1.0
C      1  0.5211270000000  0.4190260000000  0.4703620000000 1.0
C      1  0.4939710000000  0.5359440000000  0.4168920000000 1.0
C      1  0.4932740000000  0.5167600000000  0.5177010000000 1.0
C      1  0.5602880000000  0.4511080000000  0.4668140000000 1.0
C      1  0.5552260000000  0.5250400000000  0.4529150000000 1.0
C      1  0.5701870000000  0.5335060000000  0.5017070000000 1.0
C      1  0.4611740000000  0.5292120000000  0.4718330000000 1.0
C      1  0.4919250000000  0.4629140000000  0.4482480000000 1.0
C      1  0.5011200000000  0.4194410000000  0.5067030000000 1.0
C      1  0.5052600000000  0.5186400000000  0.5647980000000 1.0
C      1  0.4558330000000  0.5200380000000  0.5641800000000 1.0
C      1  0.5145210000000  0.5818030000000  0.4962580000000 1.0
C      1  0.4336640000000  0.4417040000000  0.5168180000000 1.0
C      1  0.4780250000000  0.5517030000000  0.4342160000000 1.0
C      1  0.4903150000000  0.5843100000000  0.4769320000000 1.0
C      1  0.5586570000000  0.5530720000000  0.5176050000000 1.0
C      1  0.5033420000000  0.5390340000000  0.4776250000000 1.0
C      1  0.4194910000000  0.4851320000000  0.4854470000000 1.0
C      1  0.5713260000000  0.5092240000000  0.4980610000000 1.0
C      1  0.4653930000000  0.4920650000000  0.5643390000000 1.0
C      1  0.5369370000000  0.4870870000000  0.4518820000000 1.0
C      1  0.5084370000000  0.5042580000000  0.5880600000000 1.0
C      1  0.4732290000000  0.5366410000000  0.5141940000000 1.0
END
