TITL C-2441160-1326-411 0.00225646022289634 125000 -4039.06037146375 0 0 29 (C1) n - 1
REM
REM in /home/bkarasulu/work/CARBON/AIRSS/Generating-Clusters/ReaxFF-fromJPCA2015/Units_Real/with-SteepDescent/Higher-Symm
REM
REM
REM
REM
REM
REM ./C.cell (1df0a924f5614ab8850e4351716899ee)
REM
REM compiler GCC version 9.2.1 20190827 (Red Hat 9.2.1-1)
REM options -cpp -mtune=generic -march=x86-64 -g -O0 -fpre-include=/usr/include/finclude/math-vector-fortran.h
REM seed -438180482 209158647 -518992516 -228879056 1725077343 1491209405 -1179002219 -843137595 1178159773 1462668992 -1011313183 -1592367808 -1531899356 1190665095 -1598717491 841687348 -1746877821 -527617800 -548449050 -1651933343 -1795501624 -1981628191 767073915 -632664946 871466983 -1174160917 1738729534 1995500818 342531457 -1348326871 -146629231 750202435 -534538100
REM
CELL 1.54180   50.00000   50.00000   50.00000   90.00000   90.00000   90.00000
LATT -1
SFAC C  
C      1  0.4959110000000  0.5385160000000  0.5277140000000 1.0
C      1  0.4629980000000  0.4964050000000  0.5268740000000 1.0
C      1  0.5052250000000  0.4634050000000  0.5273750000000 1.0
C      1  0.5381080000000  0.5055650000000  0.5270320000000 1.0
C      1  0.5042630000000  0.5325320000000  0.4798760000000 1.0
C      1  0.4712850000000  0.5046950000000  0.4788320000000 1.0
C      1  0.4970480000000  0.4696440000000  0.4796970000000 1.0
C      1  0.5303460000000  0.4978910000000  0.4790390000000 1.0
C      1  0.5174150000000  0.4878610000000  0.5648260000000 1.0
C      1  0.5135410000000  0.5176050000000  0.5649630000000 1.0
C      1  0.4837400000000  0.5137090000000  0.5649570000000 1.0
C      1  0.4876350000000  0.4839770000000  0.5647620000000 1.0
C      1  0.5147040000000  0.4759260000000  0.4390810000000 1.0
C      1  0.5198840000000  0.5166540000000  0.4356840000000 1.0
C      1  0.4915370000000  0.5232960000000  0.4356830000000 1.0
C      1  0.4758610000000  0.4855610000000  0.4387940000000 1.0
C      1  0.4910880000000  0.4638150000000  0.4493040000000 1.0
C      1  0.5337810000000  0.4941500000000  0.4488490000000 1.0
C      1  0.5092450000000  0.5373370000000  0.4520680000000 1.0
C      1  0.4683950000000  0.5105330000000  0.4489460000000 1.0
C      1  0.4798180000000  0.4743150000000  0.5385760000000 1.0
C      1  0.5273530000000  0.4801900000000  0.5386870000000 1.0
C      1  0.5213330000000  0.5275660000000  0.5388850000000 1.0
C      1  0.4737440000000  0.5215560000000  0.5388940000000 1.0
C      1  0.5454440000000  0.5039430000000  0.4995460000000 1.0
C      1  0.4982450000000  0.5466770000000  0.5005490000000 1.0
C      1  0.4557020000000  0.4987310000000  0.4993920000000 1.0
C      1  0.5029920000000  0.4552000000000  0.5001510000000 1.0
C      1  0.5005380000000  0.4994160000000  0.4882430000000 1.0
END
