TITL C-2441164-471-71 -0.00021199169361985 125000 -322.092244915726 0 0 4 (Td) n - 1
REM
REM in /home/bkarasulu/work/CARBON/AIRSS/Generating-Clusters/ReaxFF-fromJPCA2015/Units_Real/with-SteepDescent/Higher-Symm
REM
REM
REM
REM
REM
REM ./C.cell (1df0a924f5614ab8850e4351716899ee)
REM
REM compiler GCC version 9.2.1 20190827 (Red Hat 9.2.1-1)
REM options -cpp -mtune=generic -march=x86-64 -g -O0 -fpre-include=/usr/include/finclude/math-vector-fortran.h
REM seed -1322800779 -464371536 558784685 -1833894692 1416517457 459081435 1663742757 911328416 -671641903 1807451980 710657653 -1213426792 -868931479 -254073392 1623111950 1941593766 1199012609 -580165289 -907367626 333159677 -912879290 -66559965 -1402272311 1043840086 -683635472 -1067511713 602384271 -1848584417 -1035783277 -1993204807 -1809051749 -1019680497 -2147323433
REM
CELL 1.54180   50.00000   50.00000   50.00000   90.00000   90.00000   90.00000
LATT -1
SFAC C  
C      1  0.5109960000000  0.4898300000000  0.4903080000000 1.0
C      1  0.4902490000000  0.4898290000000  0.5110540000000 1.0
C      1  0.4909720000000  0.5100510000000  0.4910320000000 1.0
C      1  0.5102620000000  0.5100530000000  0.5103220000000 1.0
END
