TITL C-2441161-5029-149 0.0093222999494905 125000 -16455.920668784 0 0 113 (C1) n - 1
REM
REM in /home/bkarasulu/work/CARBON/AIRSS/Generating-Clusters/ReaxFF-fromJPCA2015/Units_Real/with-SteepDescent/Higher-Symm
REM
REM
REM
REM
REM
REM ./C.cell (1df0a924f5614ab8850e4351716899ee)
REM
REM compiler GCC version 9.2.1 20190827 (Red Hat 9.2.1-1)
REM options -cpp -mtune=generic -march=x86-64 -g -O0 -fpre-include=/usr/include/finclude/math-vector-fortran.h
REM seed 47908198 -1496827753 -592251826 -310303039 -34455063 -590552507 2092585327 1211114408 155705130 838725268 -506821338 -1499875939 783141823 -1949211024 -730031070 -619552088 -1513287574 1215062925 164218938 -1732133101 338185438 -537259912 1524021258 118552171 -672282612 -1643349715 -1255963747 -2048257078 671453401 -871983038 -1860899619 -286451117 691316693
REM
CELL 1.54180   50.00000   50.00000   50.00000   90.00000   90.00000   90.00000
LATT -1
SFAC C  
C      1  0.5180660000000  0.5390640000000  0.5088940000000 1.0
C      1  0.5945530000000  0.5181600000000  0.5262170000000 1.0
C      1  0.4251840000000  0.4578020000000  0.4559000000000 1.0
C      1  0.5438970000000  0.5599610000000  0.4422590000000 1.0
C      1  0.4373360000000  0.5572550000000  0.4738560000000 1.0
C      1  0.5202620000000  0.4990810000000  0.5305460000000 1.0
C      1  0.4212000000000  0.4983980000000  0.5511230000000 1.0
C      1  0.5724540000000  0.5248590000000  0.5103610000000 1.0
C      1  0.5505400000000  0.5707470000000  0.4872870000000 1.0
C      1  0.4938990000000  0.4405230000000  0.4502590000000 1.0
C      1  0.4837180000000  0.5882430000000  0.5196080000000 1.0
C      1  0.4913320000000  0.5667280000000  0.4333390000000 1.0
C      1  0.4919470000000  0.5311350000000  0.5199310000000 1.0
C      1  0.4999480000000  0.5675790000000  0.4707680000000 1.0
C      1  0.5282550000000  0.4219180000000  0.5307380000000 1.0
C      1  0.4414210000000  0.5000040000000  0.5730100000000 1.0
C      1  0.4330160000000  0.5083730000000  0.4563510000000 1.0
C      1  0.5021210000000  0.4821400000000  0.5823960000000 1.0
C      1  0.5125130000000  0.5893980000000  0.5127050000000 1.0
C      1  0.5447310000000  0.4213350000000  0.4492580000000 1.0
C      1  0.4311490000000  0.5693060000000  0.5250640000000 1.0
C      1  0.5352920000000  0.4604040000000  0.4664490000000 1.0
C      1  0.4837540000000  0.4668560000000  0.4917370000000 1.0
C      1  0.5065220000000  0.4730990000000  0.5346750000000 1.0
C      1  0.5587540000000  0.5073500000000  0.4392560000000 1.0
C      1  0.4682850000000  0.4811880000000  0.5100370000000 1.0
C      1  0.5181400000000  0.4310400000000  0.5560870000000 1.0
C      1  0.4887080000000  0.4762850000000  0.5574030000000 1.0
C      1  0.5040160000000  0.4126370000000  0.5164030000000 1.0
C      1  0.4867300000000  0.5275610000000  0.5744590000000 1.0
C      1  0.4895270000000  0.4748630000000  0.4113000000000 1.0
C      1  0.5686100000000  0.4875760000000  0.4535570000000 1.0
C      1  0.5536140000000  0.5201030000000  0.4845280000000 1.0
C      1  0.4603910000000  0.4785440000000  0.4205210000000 1.0
C      1  0.5178670000000  0.5846800000000  0.5595110000000 1.0
C      1  0.4355730000000  0.4507270000000  0.5256980000000 1.0
C      1  0.5674520000000  0.4621210000000  0.4544240000000 1.0
C      1  0.4874580000000  0.5033980000000  0.5088030000000 1.0
C      1  0.4821470000000  0.4214680000000  0.4716980000000 1.0
C      1  0.4791030000000  0.4202100000000  0.5304040000000 1.0
C      1  0.4412910000000  0.5733570000000  0.4985970000000 1.0
C      1  0.4427590000000  0.4550280000000  0.5723820000000 1.0
C      1  0.5539450000000  0.4438480000000  0.4336360000000 1.0
C      1  0.4876790000000  0.5127940000000  0.4809360000000 1.0
C      1  0.4179420000000  0.4855590000000  0.4663120000000 1.0
C      1  0.5466160000000  0.4926160000000  0.5241530000000 1.0
C      1  0.5025260000000  0.4499250000000  0.4181210000000 1.0
C      1  0.5629530000000  0.5583070000000  0.4625030000000 1.0
C      1  0.4621180000000  0.4892480000000  0.5536190000000 1.0
C      1  0.4810900000000  0.4866910000000  0.4700380000000 1.0
C      1  0.4944070000000  0.4707540000000  0.4517640000000 1.0
C      1  0.4838730000000  0.5419640000000  0.4786240000000 1.0
C      1  0.4238330000000  0.5473680000000  0.5408590000000 1.0
C      1  0.5895290000000  0.4898080000000  0.5253010000000 1.0
C      1  0.4656800000000  0.5893670000000  0.4968350000000 1.0
C      1  0.5369010000000  0.5523810000000  0.5296430000000 1.0
C      1  0.4546560000000  0.4298200000000  0.5171640000000 1.0
C      1  0.5576020000000  0.4528460000000  0.5451160000000 1.0
C      1  0.5179470000000  0.5550040000000  0.4328400000000 1.0
C      1  0.5020580000000  0.4061030000000  0.4872000000000 1.0
C      1  0.5305030000000  0.4030060000000  0.4840310000000 1.0
C      1  0.5309020000000  0.4554270000000  0.4205940000000 1.0
C      1  0.4955680000000  0.5174720000000  0.4353900000000 1.0
C      1  0.5610830000000  0.5644820000000  0.5139500000000 1.0
C      1  0.4455210000000  0.4629280000000  0.4374020000000 1.0
C      1  0.5466960000000  0.4993510000000  0.5675840000000 1.0
C      1  0.5224060000000  0.5792710000000  0.4873870000000 1.0
C      1  0.4271700000000  0.4674280000000  0.5482800000000 1.0
C      1  0.5650760000000  0.4831990000000  0.5449200000000 1.0
C      1  0.5257780000000  0.5307630000000  0.4819190000000 1.0
C      1  0.5312320000000  0.5839340000000  0.5350530000000 1.0
C      1  0.5084800000000  0.5471130000000  0.5712920000000 1.0
C      1  0.4475690000000  0.5649080000000  0.5473150000000 1.0
C      1  0.5331300000000  0.5372030000000  0.5574740000000 1.0
C      1  0.5666060000000  0.4351480000000  0.4955150000000 1.0
C      1  0.5829830000000  0.4804920000000  0.4989910000000 1.0
C      1  0.5312950000000  0.4706880000000  0.4923900000000 1.0
C      1  0.4684470000000  0.5264630000000  0.4279670000000 1.0
C      1  0.5154760000000  0.5310560000000  0.4529250000000 1.0
C      1  0.5667520000000  0.5285320000000  0.4586800000000 1.0
C      1  0.4521970000000  0.5235930000000  0.5131050000000 1.0
C      1  0.4192840000000  0.4892710000000  0.4942420000000 1.0
C      1  0.5556880000000  0.4147500000000  0.4772180000000 1.0
C      1  0.5277250000000  0.5122850000000  0.5553160000000 1.0
C      1  0.4423910000000  0.4491310000000  0.4775900000000 1.0
C      1  0.4161040000000  0.5207750000000  0.5333660000000 1.0
C      1  0.4704640000000  0.5445860000000  0.5045090000000 1.0
C      1  0.4292210000000  0.5300500000000  0.4753120000000 1.0
C      1  0.4874430000000  0.5053190000000  0.5935080000000 1.0
C      1  0.4883390000000  0.4267560000000  0.5578440000000 1.0
C      1  0.5309310000000  0.4776420000000  0.5785950000000 1.0
C      1  0.5214680000000  0.4351260000000  0.4607280000000 1.0
C      1  0.5082900000000  0.4634580000000  0.5072130000000 1.0
C      1  0.4760290000000  0.5849360000000  0.4693950000000 1.0
C      1  0.4497380000000  0.5047610000000  0.4317920000000 1.0
C      1  0.5530680000000  0.4889010000000  0.4979290000000 1.0
C      1  0.4669430000000  0.4403930000000  0.5687160000000 1.0
C      1  0.5846270000000  0.5478540000000  0.5190410000000 1.0
C      1  0.4738080000000  0.5758980000000  0.5442630000000 1.0
C      1  0.5336360000000  0.4969130000000  0.4253940000000 1.0
C      1  0.4552040000000  0.5701360000000  0.4539630000000 1.0
C      1  0.4598490000000  0.5123550000000  0.5372680000000 1.0
C      1  0.5223590000000  0.4764270000000  0.4444480000000 1.0
C      1  0.5540990000000  0.4354230000000  0.5222430000000 1.0
C      1  0.5368710000000  0.4518250000000  0.5652620000000 1.0
C      1  0.4580060000000  0.4268260000000  0.4866870000000 1.0
C      1  0.4938600000000  0.5731250000000  0.5667280000000 1.0
C      1  0.4399580000000  0.4702270000000  0.5021250000000 1.0
C      1  0.4651200000000  0.5562570000000  0.4296000000000 1.0
C      1  0.5064320000000  0.4991780000000  0.4153430000000 1.0
C      1  0.4616380000000  0.5174660000000  0.5862000000000 1.0
C      1  0.4221040000000  0.5166780000000  0.5026520000000 1.0
C      1  0.5795410000000  0.4579040000000  0.4808780000000 1.0
END
