TITL C-2441160-1326-174 0.0725427562324767 125000 -20725.1219909158 0 0 151 (C1) n - 1
REM
REM in /home/bkarasulu/work/CARBON/AIRSS/Generating-Clusters/ReaxFF-fromJPCA2015/Units_Real/with-SteepDescent/Higher-Symm
REM
REM
REM
REM
REM
REM ./C.cell (1df0a924f5614ab8850e4351716899ee)
REM
REM compiler GCC version 9.2.1 20190827 (Red Hat 9.2.1-1)
REM options -cpp -mtune=generic -march=x86-64 -g -O0 -fpre-include=/usr/include/finclude/math-vector-fortran.h
REM seed -1862488738 -88461410 1632673105 1733542737 2025897984 1366654544 -528184021 -1648058465 1852803180 -1130880000 -840826192 -1915056110 -1006322958 1852430820 1737696639 2039655335 -76662204 -1161043988 -1647370483 954402598 -136934192 319069824 -1878118850 -1824457861 -1392661506 -1457351476 -616629076 -1572231438 1733338140 1185430598 64620398 -1537978521 1839432738
REM
CELL 1.54180   50.00000   50.00000   50.00000   90.00000   90.00000   90.00000
LATT -1
SFAC C  
C      1  0.5638050000000  0.4775380000000  0.5529360000000 1.0
C      1  0.5605710000000  0.5183650000000  0.4374320000000 1.0
C      1  0.4362290000000  0.4811380000000  0.5587380000000 1.0
C      1  0.4337150000000  0.5193010000000  0.4472370000000 1.0
C      1  0.5631480000000  0.5235030000000  0.5457590000000 1.0
C      1  0.5643920000000  0.4765720000000  0.4456820000000 1.0
C      1  0.4326140000000  0.5118440000000  0.5478270000000 1.0
C      1  0.4400090000000  0.4816860000000  0.4405180000000 1.0
C      1  0.5176590000000  0.5349830000000  0.5287480000000 1.0
C      1  0.5175400000000  0.4735040000000  0.4718640000000 1.0
C      1  0.5000700000000  0.5458960000000  0.5004110000000 1.0
C      1  0.4936380000000  0.4707210000000  0.4864760000000 1.0
C      1  0.5213030000000  0.4678260000000  0.5303640000000 1.0
C      1  0.5259030000000  0.5344340000000  0.4663610000000 1.0
C      1  0.4950540000000  0.4543750000000  0.5111730000000 1.0
C      1  0.4807070000000  0.5335420000000  0.4831700000000 1.0
C      1  0.4132980000000  0.4621290000000  0.5557470000000 1.0
C      1  0.4059570000000  0.5279600000000  0.4336430000000 1.0
C      1  0.5871680000000  0.4612040000000  0.5582780000000 1.0
C      1  0.5870700000000  0.5268710000000  0.4458190000000 1.0
C      1  0.4148560000000  0.5344280000000  0.5589740000000 1.0
C      1  0.4143700000000  0.4674660000000  0.4450130000000 1.0
C      1  0.5861400000000  0.5352670000000  0.5574540000000 1.0
C      1  0.5930710000000  0.4713200000000  0.4354130000000 1.0
C      1  0.5402420000000  0.4823550000000  0.5126730000000 1.0
C      1  0.5418710000000  0.5232360000000  0.4858960000000 1.0
C      1  0.4730570000000  0.4711120000000  0.5294720000000 1.0
C      1  0.4609110000000  0.5107730000000  0.4893970000000 1.0
C      1  0.5261700000000  0.5120820000000  0.5090090000000 1.0
C      1  0.5412500000000  0.4752180000000  0.4858520000000 1.0
C      1  0.4715100000000  0.4986720000000  0.5155800000000 1.0
C      1  0.4723870000000  0.4862870000000  0.4755120000000 1.0
C      1  0.5848140000000  0.5334390000000  0.5849850000000 1.0
C      1  0.5814700000000  0.4702490000000  0.4074110000000 1.0
C      1  0.4166130000000  0.5326870000000  0.5873280000000 1.0
C      1  0.4093040000000  0.4657990000000  0.4183160000000 1.0
C      1  0.5859520000000  0.4672770000000  0.5863530000000 1.0
C      1  0.5950780000000  0.5320690000000  0.4221930000000 1.0
C      1  0.4086190000000  0.4642890000000  0.5834900000000 1.0
C      1  0.4164110000000  0.5302270000000  0.4058090000000 1.0
C      1  0.4851200000000  0.4336600000000  0.5751110000000 1.0
C      1  0.4849160000000  0.5762150000000  0.4309710000000 1.0
C      1  0.5137400000000  0.4336040000000  0.5744650000000 1.0
C      1  0.5142190000000  0.5704180000000  0.4299440000000 1.0
C      1  0.4854580000000  0.5672950000000  0.5771150000000 1.0
C      1  0.4866550000000  0.4253700000000  0.4283520000000 1.0
C      1  0.5142010000000  0.5672340000000  0.5752780000000 1.0
C      1  0.5146200000000  0.4260700000000  0.4346460000000 1.0
C      1  0.5427870000000  0.4584700000000  0.5483910000000 1.0
C      1  0.5472520000000  0.5412610000000  0.4489590000000 1.0
C      1  0.4514400000000  0.4625050000000  0.5439320000000 1.0
C      1  0.4418060000000  0.5461230000000  0.4436140000000 1.0
C      1  0.5426840000000  0.5420440000000  0.5406320000000 1.0
C      1  0.5566470000000  0.4500370000000  0.4422400000000 1.0
C      1  0.4547410000000  0.5304390000000  0.5489640000000 1.0
C      1  0.4578750000000  0.4584320000000  0.4422750000000 1.0
C      1  0.4189770000000  0.5109580000000  0.5252960000000 1.0
C      1  0.4193780000000  0.4882670000000  0.4857730000000 1.0
C      1  0.5779590000000  0.5131170000000  0.5257710000000 1.0
C      1  0.5670740000000  0.4829870000000  0.4757660000000 1.0
C      1  0.4189850000000  0.4871420000000  0.5124930000000 1.0
C      1  0.4288910000000  0.5144790000000  0.4775670000000 1.0
C      1  0.5689260000000  0.4855770000000  0.5239830000000 1.0
C      1  0.5687120000000  0.5154610000000  0.4787540000000 1.0
C      1  0.5778280000000  0.4350460000000  0.5289120000000 1.0
C      1  0.5792310000000  0.5629830000000  0.4751540000000 1.0
C      1  0.4227130000000  0.4366010000000  0.5247860000000 1.0
C      1  0.4240440000000  0.5653730000000  0.4825360000000 1.0
C      1  0.5749630000000  0.5645260000000  0.5238250000000 1.0
C      1  0.5753340000000  0.4335700000000  0.4818390000000 1.0
C      1  0.4251070000000  0.5612980000000  0.5297800000000 1.0
C      1  0.4218160000000  0.4383270000000  0.4728110000000 1.0
C      1  0.4794270000000  0.5861920000000  0.4826360000000 1.0
C      1  0.4687890000000  0.4078360000000  0.5174810000000 1.0
C      1  0.5457960000000  0.5937580000000  0.4942630000000 1.0
C      1  0.5353600000000  0.4147510000000  0.5083660000000 1.0
C      1  0.4527750000000  0.4089550000000  0.4948760000000 1.0
C      1  0.4636060000000  0.5860030000000  0.5073400000000 1.0
C      1  0.5193250000000  0.4189920000000  0.4843150000000 1.0
C      1  0.5278070000000  0.5932200000000  0.5152440000000 1.0
C      1  0.5613210000000  0.5664500000000  0.4519010000000 1.0
C      1  0.5573580000000  0.4336610000000  0.5514220000000 1.0
C      1  0.4342100000000  0.5706290000000  0.4541250000000 1.0
C      1  0.4434930000000  0.4347520000000  0.5474610000000 1.0
C      1  0.5636600000000  0.4268430000000  0.4542630000000 1.0
C      1  0.5540710000000  0.5680050000000  0.5451430000000 1.0
C      1  0.4445240000000  0.4362830000000  0.4525810000000 1.0
C      1  0.4462650000000  0.5582030000000  0.5503200000000 1.0
C      1  0.4364230000000  0.4838170000000  0.5926250000000 1.0
C      1  0.4411880000000  0.5146210000000  0.3990280000000 1.0
C      1  0.5608740000000  0.4858180000000  0.5948660000000 1.0
C      1  0.5551410000000  0.5134900000000  0.4071850000000 1.0
C      1  0.4378260000000  0.5139070000000  0.6006220000000 1.0
C      1  0.4404750000000  0.4837770000000  0.4070710000000 1.0
C      1  0.5616200000000  0.5150540000000  0.5981880000000 1.0
C      1  0.5564420000000  0.4843740000000  0.3989930000000 1.0
C      1  0.5877360000000  0.5387790000000  0.5159700000000 1.0
C      1  0.5850800000000  0.4598750000000  0.4886440000000 1.0
C      1  0.4117290000000  0.5371880000000  0.5177680000000 1.0
C      1  0.4073470000000  0.4622830000000  0.4831330000000 1.0
C      1  0.5873830000000  0.4607120000000  0.5169290000000 1.0
C      1  0.5881200000000  0.5365110000000  0.4857900000000 1.0
C      1  0.4085750000000  0.4599440000000  0.5147010000000 1.0
C      1  0.4149040000000  0.5390960000000  0.4889850000000 1.0
C      1  0.4829060000000  0.5377130000000  0.5851110000000 1.0
C      1  0.4802960000000  0.4535320000000  0.4192440000000 1.0
C      1  0.5154950000000  0.5366440000000  0.5804410000000 1.0
C      1  0.5095940000000  0.4659550000000  0.4221750000000 1.0
C      1  0.4811350000000  0.4645570000000  0.5808610000000 1.0
C      1  0.4831160000000  0.5419870000000  0.4228770000000 1.0
C      1  0.5156020000000  0.4637130000000  0.5798910000000 1.0
C      1  0.5142830000000  0.5419770000000  0.4193260000000 1.0
C      1  0.5353410000000  0.5262870000000  0.6013970000000 1.0
C      1  0.5302710000000  0.4701800000000  0.4021760000000 1.0
C      1  0.4635590000000  0.5260490000000  0.6057760000000 1.0
C      1  0.4623930000000  0.4682990000000  0.3974250000000 1.0
C      1  0.5349280000000  0.4734230000000  0.6009340000000 1.0
C      1  0.5334200000000  0.5288020000000  0.3975010000000 1.0
C      1  0.4619990000000  0.4717810000000  0.6026980000000 1.0
C      1  0.4664080000000  0.5288010000000  0.4017780000000 1.0
C      1  0.4828230000000  0.4854630000000  0.5546210000000 1.0
C      1  0.4843350000000  0.5244530000000  0.4524300000000 1.0
C      1  0.5120120000000  0.4868330000000  0.5528940000000 1.0
C      1  0.5127280000000  0.5210940000000  0.4451180000000 1.0
C      1  0.4791500000000  0.5171850000000  0.5575300000000 1.0
C      1  0.4825910000000  0.4951840000000  0.4515340000000 1.0
C      1  0.5086070000000  0.5186400000000  0.5519480000000 1.0
C      1  0.5103260000000  0.4859050000000  0.4454900000000 1.0
C      1  0.4676590000000  0.4197420000000  0.5567080000000 1.0
C      1  0.4564300000000  0.5840760000000  0.4403880000000 1.0
C      1  0.5318920000000  0.4188750000000  0.5562660000000 1.0
C      1  0.5353690000000  0.5801190000000  0.4473060000000 1.0
C      1  0.4680420000000  0.5776710000000  0.5558680000000 1.0
C      1  0.4671620000000  0.4173930000000  0.4485090000000 1.0
C      1  0.5298770000000  0.5817220000000  0.5556610000000 1.0
C      1  0.5407900000000  0.4128370000000  0.4411500000000 1.0
C      1  0.5096950000000  0.5922690000000  0.5348840000000 1.0
C      1  0.5204590000000  0.4096110000000  0.4577520000000 1.0
C      1  0.4794040000000  0.5874150000000  0.5315770000000 1.0
C      1  0.4749530000000  0.4168180000000  0.4768530000000 1.0
C      1  0.5189050000000  0.4113880000000  0.5320740000000 1.0
C      1  0.5263420000000  0.5853550000000  0.4739200000000 1.0
C      1  0.4879430000000  0.4085720000000  0.5357690000000 1.0
C      1  0.4767510000000  0.5907190000000  0.4554110000000 1.0
C      1  0.4288070000000  0.4260670000000  0.4980730000000 1.0
C      1  0.4358440000000  0.5761430000000  0.5068580000000 1.0
C      1  0.5639530000000  0.4223730000000  0.5062380000000 1.0
C      1  0.5714380000000  0.5779080000000  0.4985580000000 1.0
C      1  0.5039320000000  0.5713400000000  0.4869450000000 1.0
C      1  0.4949250000000  0.4301350000000  0.4931390000000 1.0
C      1  0.4974210000000  0.5049380000000  0.5091370000000 1.0
END
