TITL C-2441160-1326-539 0.0020168110930386 125000 -10157.3749364979 0 0 71 (C1) n - 1
REM
REM in /home/bkarasulu/work/CARBON/AIRSS/Generating-Clusters/ReaxFF-fromJPCA2015/Units_Real/with-SteepDescent/Higher-Symm
REM
REM
REM
REM
REM
REM ./C.cell (1df0a924f5614ab8850e4351716899ee)
REM
REM compiler GCC version 9.2.1 20190827 (Red Hat 9.2.1-1)
REM options -cpp -mtune=generic -march=x86-64 -g -O0 -fpre-include=/usr/include/finclude/math-vector-fortran.h
REM seed -1722023865 1204149054 1112674994 1683799130 1431540903 1864043050 -315724755 -923373288 1289819941 -1056344730 -1794674162 1876288657 2124306680 -749567171 83254978 436181913 1566669946 -1838931055 -1671173766 -567675235 -2085273640 -1319331678 352236598 1918739707 -1923553020 130409065 -1192988535 -1201058719 -724984476 656034568 -1688591663 -1213273095 1815920645
REM
CELL 1.54180   50.00000   50.00000   50.00000   90.00000   90.00000   90.00000
LATT -1
SFAC C  
C      1  0.5578680000000  0.4739640000000  0.5523110000000 1.0
C      1  0.5585750000000  0.4419300000000  0.4921310000000 1.0
C      1  0.5590540000000  0.4894350000000  0.4422980000000 1.0
C      1  0.5572520000000  0.5518030000000  0.4730770000000 1.0
C      1  0.5577570000000  0.5418410000000  0.5413900000000 1.0
C      1  0.5524340000000  0.5161000000000  0.5538240000000 1.0
C      1  0.5517740000000  0.4534180000000  0.5318020000000 1.0
C      1  0.5532810000000  0.4555820000000  0.4665600000000 1.0
C      1  0.5532790000000  0.5177200000000  0.4476820000000 1.0
C      1  0.5520130000000  0.5555900000000  0.5013070000000 1.0
C      1  0.4619400000000  0.5338660000000  0.4471490000000 1.0
C      1  0.4613100000000  0.5600020000000  0.5173680000000 1.0
C      1  0.4615610000000  0.5026780000000  0.5648190000000 1.0
C      1  0.4611020000000  0.4395900000000  0.5217640000000 1.0
C      1  0.4616350000000  0.4600920000000  0.4498860000000 1.0
C      1  0.4972730000000  0.4392520000000  0.5429530000000 1.0
C      1  0.4989790000000  0.4407890000000  0.4531970000000 1.0
C      1  0.4995020000000  0.5251880000000  0.4296290000000 1.0
C      1  0.4974750000000  0.5742030000000  0.5005510000000 1.0
C      1  0.4991430000000  0.5203950000000  0.5736450000000 1.0
C      1  0.4663160000000  0.5526360000000  0.4895610000000 1.0
C      1  0.4646480000000  0.5295710000000  0.5524730000000 1.0
C      1  0.4657920000000  0.4617410000000  0.5403580000000 1.0
C      1  0.4659710000000  0.4496480000000  0.4770540000000 1.0
C      1  0.4666590000000  0.5049950000000  0.4452060000000 1.0
C      1  0.4889180000000  0.4293290000000  0.5180680000000 1.0
C      1  0.4885250000000  0.4612000000000  0.4371960000000 1.0
C      1  0.4884460000000  0.5465930000000  0.4440480000000 1.0
C      1  0.4885010000000  0.5689180000000  0.5267820000000 1.0
C      1  0.4884350000000  0.4944970000000  0.5734220000000 1.0
C      1  0.4805820000000  0.5216030000000  0.4885400000000 1.0
C      1  0.4834980000000  0.5237530000000  0.5300060000000 1.0
C      1  0.4793950000000  0.4826090000000  0.5187800000000 1.0
C      1  0.4822540000000  0.4724430000000  0.4894900000000 1.0
C      1  0.4834530000000  0.4972140000000  0.4702880000000 1.0
C      1  0.4466120000000  0.5409250000000  0.4720720000000 1.0
C      1  0.4454900000000  0.5396270000000  0.5323290000000 1.0
C      1  0.4471690000000  0.4828630000000  0.5478730000000 1.0
C      1  0.4458500000000  0.4494380000000  0.4982100000000 1.0
C      1  0.4462460000000  0.4855120000000  0.4520560000000 1.0
C      1  0.5248810000000  0.5298880000000  0.5685360000000 1.0
C      1  0.5240910000000  0.4443320000000  0.5494510000000 1.0
C      1  0.5254140000000  0.4354080000000  0.4617310000000 1.0
C      1  0.5259870000000  0.5160490000000  0.4275830000000 1.0
C      1  0.5246920000000  0.5736760000000  0.4930000000000 1.0
C      1  0.5305450000000  0.4674010000000  0.5653020000000 1.0
C      1  0.5320280000000  0.4263740000000  0.4884080000000 1.0
C      1  0.5326510000000  0.4879600000000  0.4262410000000 1.0
C      1  0.5311290000000  0.5655800000000  0.4660920000000 1.0
C      1  0.5321870000000  0.5532900000000  0.5531460000000 1.0
C      1  0.5122440000000  0.5515390000000  0.5318670000000 1.0
C      1  0.5097710000000  0.4849860000000  0.5544040000000 1.0
C      1  0.5108050000000  0.4415280000000  0.5014080000000 1.0
C      1  0.5114980000000  0.4793300000000  0.4443020000000 1.0
C      1  0.5103550000000  0.5448950000000  0.4643910000000 1.0
C      1  0.5121610000000  0.4716020000000  0.4977820000000 1.0
C      1  0.5134680000000  0.4919070000000  0.4717720000000 1.0
C      1  0.5108240000000  0.5231910000000  0.4849990000000 1.0
C      1  0.5110880000000  0.5241310000000  0.5186610000000 1.0
C      1  0.5087570000000  0.4907350000000  0.5253390000000 1.0
C      1  0.4312760000000  0.5202820000000  0.4867710000000 1.0
C      1  0.4307900000000  0.5198610000000  0.5163820000000 1.0
C      1  0.4313240000000  0.4915020000000  0.5244910000000 1.0
C      1  0.4312560000000  0.4749250000000  0.5001190000000 1.0
C      1  0.4314910000000  0.4927820000000  0.4767390000000 1.0
C      1  0.5581960000000  0.5232740000000  0.4753190000000 1.0
C      1  0.5580920000000  0.5310990000000  0.5148440000000 1.0
C      1  0.5578620000000  0.4961930000000  0.5338320000000 1.0
C      1  0.5579010000000  0.4666670000000  0.5071480000000 1.0
C      1  0.5587260000000  0.4833630000000  0.4706080000000 1.0
C      1  0.4717150000000  0.5086720000000  0.5120410000000 1.0
END
