TITL C-2441161-5029-918 0.082298879628139 125000 -23138.5734769346 0 0 172 (C1) n - 1
REM
REM in /home/bkarasulu/work/CARBON/AIRSS/Generating-Clusters/ReaxFF-fromJPCA2015/Units_Real/with-SteepDescent/Higher-Symm
REM
REM
REM
REM
REM
REM ./C.cell (1df0a924f5614ab8850e4351716899ee)
REM
REM compiler GCC version 9.2.1 20190827 (Red Hat 9.2.1-1)
REM options -cpp -mtune=generic -march=x86-64 -g -O0 -fpre-include=/usr/include/finclude/math-vector-fortran.h
REM seed 1176626217 1480059989 -76929215 -1519936606 -205466705 -1726500385 -640940625 1382049478 -828120332 1347979802 -1519089235 -404638534 -1278236059 -1673392149 -981813434 1988838112 1256320877 -1930841364 -1581761552 -262827052 -2011277049 812803927 1081111235 -1890617994 -1074089247 -1754135664 993013462 1996757401 131769615 163427614 16154486 763755967 1365716474
REM
CELL 1.54180   50.00000   50.00000   50.00000   90.00000   90.00000   90.00000
LATT -1
SFAC C  
C      1  0.5424920000000  0.4258730000000  0.5181450000000 1.0
C      1  0.5394200000000  0.5499740000000  0.5526450000000 1.0
C      1  0.5421190000000  0.5205580000000  0.4318010000000 1.0
C      1  0.5558270000000  0.5458630000000  0.4228790000000 1.0
C      1  0.5559360000000  0.4088950000000  0.4997170000000 1.0
C      1  0.5562980000000  0.5441720000000  0.5774670000000 1.0
C      1  0.4395290000000  0.5138060000000  0.4595350000000 1.0
C      1  0.4592040000000  0.4613760000000  0.5189660000000 1.0
C      1  0.4483860000000  0.5259790000000  0.5283550000000 1.0
C      1  0.4110470000000  0.5465610000000  0.4965110000000 1.0
C      1  0.4139210000000  0.4721020000000  0.4625950000000 1.0
C      1  0.4064870000000  0.4868160000000  0.5361020000000 1.0
C      1  0.5278950000000  0.5207090000000  0.4813290000000 1.0
C      1  0.5262840000000  0.4752740000000  0.4986450000000 1.0
C      1  0.5378630000000  0.5096350000000  0.5241350000000 1.0
C      1  0.5165470000000  0.6073110000000  0.4913030000000 1.0
C      1  0.5186670000000  0.4390230000000  0.4094900000000 1.0
C      1  0.5224620000000  0.4542790000000  0.6016710000000 1.0
C      1  0.5236000000000  0.5773410000000  0.4908370000000 1.0
C      1  0.5234290000000  0.4511990000000  0.4371010000000 1.0
C      1  0.5333200000000  0.4700380000000  0.5824110000000 1.0
C      1  0.4696720000000  0.5408490000000  0.5656000000000 1.0
C      1  0.4680350000000  0.5318260000000  0.4383570000000 1.0
C      1  0.4669150000000  0.4267230000000  0.5124200000000 1.0
C      1  0.4749250000000  0.5620470000000  0.5476840000000 1.0
C      1  0.4763050000000  0.5081380000000  0.4270590000000 1.0
C      1  0.4621560000000  0.4271680000000  0.5431960000000 1.0
C      1  0.4953130000000  0.4563850000000  0.6039250000000 1.0
C      1  0.4885850000000  0.6103330000000  0.4870670000000 1.0
C      1  0.4895840000000  0.4360450000000  0.4058440000000 1.0
C      1  0.5344150000000  0.4815260000000  0.5274040000000 1.0
C      1  0.5488260000000  0.5202170000000  0.4999740000000 1.0
C      1  0.5354470000000  0.4825000000000  0.4702120000000 1.0
C      1  0.4414000000000  0.5072450000000  0.5082040000000 1.0
C      1  0.4538880000000  0.5145460000000  0.4832450000000 1.0
C      1  0.4392690000000  0.4790750000000  0.5066360000000 1.0
C      1  0.5467830000000  0.4676220000000  0.4229140000000 1.0
C      1  0.5474470000000  0.4490520000000  0.5684550000000 1.0
C      1  0.5458380000000  0.5833230000000  0.5105160000000 1.0
C      1  0.4042150000000  0.4586110000000  0.5290340000000 1.0
C      1  0.4288770000000  0.5476950000000  0.5240620000000 1.0
C      1  0.4360200000000  0.4863990000000  0.4487980000000 1.0
C      1  0.4745030000000  0.5160690000000  0.5324680000000 1.0
C      1  0.4806630000000  0.5093670000000  0.4757670000000 1.0
C      1  0.4805020000000  0.4630040000000  0.4987140000000 1.0
C      1  0.4424760000000  0.4722000000000  0.4219820000000 1.0
C      1  0.4404500000000  0.4462270000000  0.5546720000000 1.0
C      1  0.4465090000000  0.5864580000000  0.5112760000000 1.0
C      1  0.5210980000000  0.5184940000000  0.4104710000000 1.0
C      1  0.5182480000000  0.4142520000000  0.5278560000000 1.0
C      1  0.5164300000000  0.5670890000000  0.5626000000000 1.0
C      1  0.4489120000000  0.5930510000000  0.5488810000000 1.0
C      1  0.4622840000000  0.5080150000000  0.3970080000000 1.0
C      1  0.4620660000000  0.3994160000000  0.5490160000000 1.0
C      1  0.5101790000000  0.5077130000000  0.5597420000000 1.0
C      1  0.5069570000000  0.5478300000000  0.4571610000000 1.0
C      1  0.5119450000000  0.4374380000000  0.4798130000000 1.0
C      1  0.5800000000000  0.5128690000000  0.5504290000000 1.0
C      1  0.5808030000000  0.5437350000000  0.4623470000000 1.0
C      1  0.5803620000000  0.4465290000000  0.4825570000000 1.0
C      1  0.4053100000000  0.5317490000000  0.5369730000000 1.0
C      1  0.4103930000000  0.5185450000000  0.4651420000000 1.0
C      1  0.3985270000000  0.4548340000000  0.5010500000000 1.0
C      1  0.5801530000000  0.5348620000000  0.4343030000000 1.0
C      1  0.5784800000000  0.4269810000000  0.5038560000000 1.0
C      1  0.5799150000000  0.5416110000000  0.5610000000000 1.0
C      1  0.5314240000000  0.5701220000000  0.4626410000000 1.0
C      1  0.5319700000000  0.4314850000000  0.4588470000000 1.0
C      1  0.5341260000000  0.4967760000000  0.5791090000000 1.0
C      1  0.4742160000000  0.5890540000000  0.5624880000000 1.0
C      1  0.4865270000000  0.5217920000000  0.3897530000000 1.0
C      1  0.4862400000000  0.3936210000000  0.5372340000000 1.0
C      1  0.6010400000000  0.4840530000000  0.4573160000000 1.0
C      1  0.5868910000000  0.4737310000000  0.5275900000000 1.0
C      1  0.5942340000000  0.5402510000000  0.5084990000000 1.0
C      1  0.4088670000000  0.4317520000000  0.4865830000000 1.0
C      1  0.4142080000000  0.5238990000000  0.5632400000000 1.0
C      1  0.4130150000000  0.5421820000000  0.4479710000000 1.0
C      1  0.5077170000000  0.5027550000000  0.3892780000000 1.0
C      1  0.5070180000000  0.4034990000000  0.5536760000000 1.0
C      1  0.5025220000000  0.5949330000000  0.5586210000000 1.0
C      1  0.4891970000000  0.5799720000000  0.4315020000000 1.0
C      1  0.4898690000000  0.4018650000000  0.4674400000000 1.0
C      1  0.4917760000000  0.5186880000000  0.6032290000000 1.0
C      1  0.5712920000000  0.4561870000000  0.4353140000000 1.0
C      1  0.5734670000000  0.4667330000000  0.5689250000000 1.0
C      1  0.5710160000000  0.5783180000000  0.4949660000000 1.0
C      1  0.4198750000000  0.4938710000000  0.5605490000000 1.0
C      1  0.4185090000000  0.5596500000000  0.4728540000000 1.0
C      1  0.4149090000000  0.4438020000000  0.4592470000000 1.0
C      1  0.5322520000000  0.3969700000000  0.4870250000000 1.0
C      1  0.5350070000000  0.5365380000000  0.5965410000000 1.0
C      1  0.5324960000000  0.5633840000000  0.4186740000000 1.0
C      1  0.4755420000000  0.5515660000000  0.5002120000000 1.0
C      1  0.4833700000000  0.4841030000000  0.4605270000000 1.0
C      1  0.4782590000000  0.4714210000000  0.5404440000000 1.0
C      1  0.5205430000000  0.5119780000000  0.6017560000000 1.0
C      1  0.5184340000000  0.5808000000000  0.4375250000000 1.0
C      1  0.5188790000000  0.4025080000000  0.4616280000000 1.0
C      1  0.4153940000000  0.4758630000000  0.4910550000000 1.0
C      1  0.3971800000000  0.5099410000000  0.5201170000000 1.0
C      1  0.3988820000000  0.5209940000000  0.4926080000000 1.0
C      1  0.5065170000000  0.4664540000000  0.5408220000000 1.0
C      1  0.5050700000000  0.5554660000000  0.5096210000000 1.0
C      1  0.5128120000000  0.4796850000000  0.4494030000000 1.0
C      1  0.5637620000000  0.4428210000000  0.4594120000000 1.0
C      1  0.5652370000000  0.4942650000000  0.5676310000000 1.0
C      1  0.5626430000000  0.5650900000000  0.4711930000000 1.0
C      1  0.5832300000000  0.5644920000000  0.5426000000000 1.0
C      1  0.5835570000000  0.5060970000000  0.4277130000000 1.0
C      1  0.5839730000000  0.4326140000000  0.5328860000000 1.0
C      1  0.5110280000000  0.5455580000000  0.4089550000000 1.0
C      1  0.5094390000000  0.3982680000000  0.5056770000000 1.0
C      1  0.5113880000000  0.5512870000000  0.5875250000000 1.0
C      1  0.4921760000000  0.5498690000000  0.4312380000000 1.0
C      1  0.4938080000000  0.4175020000000  0.4911620000000 1.0
C      1  0.4938690000000  0.5317050000000  0.5768890000000 1.0
C      1  0.5021680000000  0.4753360000000  0.3960360000000 1.0
C      1  0.5043750000000  0.4218850000000  0.5760160000000 1.0
C      1  0.5006360000000  0.6026160000000  0.5317440000000 1.0
C      1  0.5026910000000  0.5238320000000  0.4930090000000 1.0
C      1  0.4994310000000  0.4833170000000  0.5022150000000 1.0
C      1  0.4943930000000  0.5071750000000  0.5138400000000 1.0
C      1  0.5259880000000  0.6073910000000  0.5185990000000 1.0
C      1  0.5287200000000  0.4634420000000  0.3979600000000 1.0
C      1  0.5302660000000  0.4306620000000  0.5865910000000 1.0
C      1  0.4562150000000  0.5863230000000  0.4633080000000 1.0
C      1  0.4559030000000  0.4266380000000  0.4442270000000 1.0
C      1  0.4564580000000  0.4856090000000  0.5890360000000 1.0
C      1  0.4302300000000  0.5719790000000  0.5443820000000 1.0
C      1  0.4288140000000  0.4994950000000  0.4191200000000 1.0
C      1  0.4217060000000  0.4362340000000  0.5353790000000 1.0
C      1  0.5224940000000  0.5238000000000  0.4543050000000 1.0
C      1  0.5243740000000  0.4466660000000  0.5020590000000 1.0
C      1  0.5260500000000  0.5246230000000  0.5429060000000 1.0
C      1  0.4735920000000  0.5970080000000  0.5105790000000 1.0
C      1  0.4763820000000  0.4624980000000  0.4114830000000 1.0
C      1  0.4835770000000  0.4404730000000  0.5842470000000 1.0
C      1  0.5921320000000  0.5690840000000  0.5150390000000 1.0
C      1  0.5924110000000  0.4784030000000  0.4315590000000 1.0
C      1  0.5920650000000  0.4547690000000  0.5500080000000 1.0
C      1  0.4630660000000  0.5129350000000  0.5967330000000 1.0
C      1  0.4609200000000  0.5752350000000  0.4369510000000 1.0
C      1  0.4621080000000  0.4091730000000  0.4667870000000 1.0
C      1  0.5559740000000  0.5608650000000  0.5308130000000 1.0
C      1  0.5576780000000  0.4973520000000  0.4377450000000 1.0
C      1  0.5559860000000  0.4407700000000  0.5365450000000 1.0
C      1  0.5013680000000  0.5579330000000  0.5380030000000 1.0
C      1  0.5047250000000  0.5039120000000  0.4323360000000 1.0
C      1  0.5051500000000  0.4435110000000  0.5240720000000 1.0
C      1  0.4288930000000  0.5483750000000  0.5669820000000 1.0
C      1  0.4265310000000  0.5295450000000  0.4245050000000 1.0
C      1  0.4247270000000  0.4210420000000  0.5076730000000 1.0
C      1  0.5611190000000  0.4911210000000  0.4674420000000 1.0
C      1  0.5585230000000  0.4673030000000  0.5267780000000 1.0
C      1  0.5654080000000  0.5387980000000  0.5127940000000 1.0
C      1  0.5902130000000  0.5025620000000  0.5245950000000 1.0
C      1  0.5947930000000  0.5269910000000  0.4825490000000 1.0
C      1  0.5963180000000  0.4737650000000  0.4830530000000 1.0
C      1  0.4802050000000  0.5495780000000  0.4715880000000 1.0
C      1  0.4681990000000  0.4606410000000  0.4706590000000 1.0
C      1  0.4817610000000  0.4966770000000  0.5534950000000 1.0
C      1  0.4780270000000  0.5878190000000  0.4791360000000 1.0
C      1  0.4783830000000  0.4412470000000  0.4320000000000 1.0
C      1  0.4813950000000  0.4701400000000  0.5849000000000 1.0
C      1  0.4346150000000  0.4457580000000  0.4382240000000 1.0
C      1  0.4379650000000  0.4731060000000  0.5694320000000 1.0
C      1  0.4365380000000  0.5805900000000  0.4845110000000 1.0
C      1  0.4486100000000  0.5488550000000  0.4274780000000 1.0
C      1  0.4494530000000  0.4122930000000  0.4948260000000 1.0
C      1  0.4495260000000  0.5375290000000  0.5848870000000 1.0
C      1  0.5853930000000  0.5007870000000  0.4923890000000 1.0
END
