TITL C-2441158-471-1314 0.0516352884844559 125000 -16257.6765217987 0 0 117 (C1) n - 1
REM
REM in /home/bkarasulu/work/CARBON/AIRSS/Generating-Clusters/ReaxFF-fromJPCA2015/Units_Real/with-SteepDescent/Higher-Symm
REM
REM
REM
REM
REM
REM ./C.cell (1df0a924f5614ab8850e4351716899ee)
REM
REM compiler GCC version 9.2.1 20190827 (Red Hat 9.2.1-1)
REM options -cpp -mtune=generic -march=x86-64 -g -O0 -fpre-include=/usr/include/finclude/math-vector-fortran.h
REM seed 406437670 -173633074 -702397460 488026492 85885110 -913234014 -27623194 -534109285 1085149134 -2016539465 -1136413738 -1089415145 -1902487355 -1511888614 -2110110281 -30545151 -426973361 494907607 -33610054 364096965 1315308602 -1506565882 717473588 -87854095 -1964509190 852571746 -500062419 660989119 -108972540 1486864846 1917196829 -1252107333 -1762705880
REM
CELL 1.54180   50.00000   50.00000   50.00000   90.00000   90.00000   90.00000
LATT -1
SFAC C  
C      1  0.5590280000000  0.5388090000000  0.5221090000000 1.0
C      1  0.4406880000000  0.5246340000000  0.5523950000000 1.0
C      1  0.4088320000000  0.4746320000000  0.5196560000000 1.0
C      1  0.5036300000000  0.4098010000000  0.5509710000000 1.0
C      1  0.4920290000000  0.4635530000000  0.4070440000000 1.0
C      1  0.5177320000000  0.4532910000000  0.5712500000000 1.0
C      1  0.5666490000000  0.4675880000000  0.5493260000000 1.0
C      1  0.5725290000000  0.4883220000000  0.5308760000000 1.0
C      1  0.5581690000000  0.5449770000000  0.4499320000000 1.0
C      1  0.5514720000000  0.5158210000000  0.5615790000000 1.0
C      1  0.4358780000000  0.5188500000000  0.4491790000000 1.0
C      1  0.5439520000000  0.4529330000000  0.5597150000000 1.0
C      1  0.4644230000000  0.4813950000000  0.4872400000000 1.0
C      1  0.5728140000000  0.5053310000000  0.4552380000000 1.0
C      1  0.4887360000000  0.5401810000000  0.4576650000000 1.0
C      1  0.4932480000000  0.5307950000000  0.5472350000000 1.0
C      1  0.4314410000000  0.5323130000000  0.4738900000000 1.0
C      1  0.4770060000000  0.4344870000000  0.5023280000000 1.0
C      1  0.4697370000000  0.5386920000000  0.5103850000000 1.0
C      1  0.4166520000000  0.5159550000000  0.4919120000000 1.0
C      1  0.5104450000000  0.5006330000000  0.5200650000000 1.0
C      1  0.4427860000000  0.5679590000000  0.5379870000000 1.0
C      1  0.5179510000000  0.4460260000000  0.4472310000000 1.0
C      1  0.5603800000000  0.4341410000000  0.4645630000000 1.0
C      1  0.4580010000000  0.4592000000000  0.5765330000000 1.0
C      1  0.4772060000000  0.4448020000000  0.4220870000000 1.0
C      1  0.4469280000000  0.5043780000000  0.5714610000000 1.0
C      1  0.4357000000000  0.4716920000000  0.4762770000000 1.0
C      1  0.5920560000000  0.5272650000000  0.5021090000000 1.0
C      1  0.5166890000000  0.4573610000000  0.5000920000000 1.0
C      1  0.4700550000000  0.5554860000000  0.4412140000000 1.0
C      1  0.4863130000000  0.4171600000000  0.4801460000000 1.0
C      1  0.5347580000000  0.4772970000000  0.4165450000000 1.0
C      1  0.5518320000000  0.5172470000000  0.4957240000000 1.0
C      1  0.4370980000000  0.4791780000000  0.5618590000000 1.0
C      1  0.4394030000000  0.4379860000000  0.4800500000000 1.0
C      1  0.5113700000000  0.5858260000000  0.5424100000000 1.0
C      1  0.5559890000000  0.4866920000000  0.5070180000000 1.0
C      1  0.4612700000000  0.4228520000000  0.5243210000000 1.0
C      1  0.4161440000000  0.4863220000000  0.4932010000000 1.0
C      1  0.5105360000000  0.4103120000000  0.5252080000000 1.0
C      1  0.4894470000000  0.5119860000000  0.4614470000000 1.0
C      1  0.4294700000000  0.5578520000000  0.5140390000000 1.0
C      1  0.5104020000000  0.4955020000000  0.4696410000000 1.0
C      1  0.5712370000000  0.5271610000000  0.5460560000000 1.0
C      1  0.5408350000000  0.5678750000000  0.4474810000000 1.0
C      1  0.5584580000000  0.4423150000000  0.5386820000000 1.0
C      1  0.4385990000000  0.4890090000000  0.4506960000000 1.0
C      1  0.4740320000000  0.5084260000000  0.4839790000000 1.0
C      1  0.4552800000000  0.5318200000000  0.4309740000000 1.0
C      1  0.5547660000000  0.5664870000000  0.5302840000000 1.0
C      1  0.4869860000000  0.5774980000000  0.5555640000000 1.0
C      1  0.5017290000000  0.5157060000000  0.4153410000000 1.0
C      1  0.4798310000000  0.5899360000000  0.5097730000000 1.0
C      1  0.5043280000000  0.4421160000000  0.4220830000000 1.0
C      1  0.5354270000000  0.5612980000000  0.4925180000000 1.0
C      1  0.4930210000000  0.5272200000000  0.5883010000000 1.0
C      1  0.4713780000000  0.5045200000000  0.5844460000000 1.0
C      1  0.5264500000000  0.4249190000000  0.5051970000000 1.0
C      1  0.5091900000000  0.4872940000000  0.4076730000000 1.0
C      1  0.4567490000000  0.5197080000000  0.5267310000000 1.0
C      1  0.4949410000000  0.5232840000000  0.5016520000000 1.0
C      1  0.4192630000000  0.4487410000000  0.5144950000000 1.0
C      1  0.5074300000000  0.4756630000000  0.5864470000000 1.0
C      1  0.4719080000000  0.5738500000000  0.4868490000000 1.0
C      1  0.5333840000000  0.4241110000000  0.4586750000000 1.0
C      1  0.5330820000000  0.5598320000000  0.4194190000000 1.0
C      1  0.5161800000000  0.5432680000000  0.5344520000000 1.0
C      1  0.5285930000000  0.5174180000000  0.4277130000000 1.0
C      1  0.5847470000000  0.5547530000000  0.5043800000000 1.0
C      1  0.5735430000000  0.4683680000000  0.4900350000000 1.0
C      1  0.4778450000000  0.4578770000000  0.5385840000000 1.0
C      1  0.4666570000000  0.4932170000000  0.5225300000000 1.0
C      1  0.5436110000000  0.5060070000000  0.4495750000000 1.0
C      1  0.5523410000000  0.4675370000000  0.4278160000000 1.0
C      1  0.5685620000000  0.4408170000000  0.4908380000000 1.0
C      1  0.5884470000000  0.5118520000000  0.5272640000000 1.0
C      1  0.5796660000000  0.4778260000000  0.4640750000000 1.0
C      1  0.4920440000000  0.5743090000000  0.4356920000000 1.0
C      1  0.4778800000000  0.4689220000000  0.4628750000000 1.0
C      1  0.4915760000000  0.4550350000000  0.5135510000000 1.0
C      1  0.4148150000000  0.5179970000000  0.5400950000000 1.0
C      1  0.5614630000000  0.5729420000000  0.5013980000000 1.0
C      1  0.5154990000000  0.5805510000000  0.4608250000000 1.0
C      1  0.4354920000000  0.4270540000000  0.5070470000000 1.0
C      1  0.4995400000000  0.4311550000000  0.5680900000000 1.0
C      1  0.5696520000000  0.4557890000000  0.4473800000000 1.0
C      1  0.5090090000000  0.4653270000000  0.4686970000000 1.0
C      1  0.4667530000000  0.4468620000000  0.4475810000000 1.0
C      1  0.4501870000000  0.5500890000000  0.5590460000000 1.0
C      1  0.4487880000000  0.5539990000000  0.4910930000000 1.0
C      1  0.4829760000000  0.4048320000000  0.5314100000000 1.0
C      1  0.5169200000000  0.5043730000000  0.5845600000000 1.0
C      1  0.4734560000000  0.5105890000000  0.4244720000000 1.0
C      1  0.4779020000000  0.4766910000000  0.5883700000000 1.0
C      1  0.5314580000000  0.5654230000000  0.5470290000000 1.0
C      1  0.5324480000000  0.5124980000000  0.4748840000000 1.0
C      1  0.4138450000000  0.5336010000000  0.5157540000000 1.0
C      1  0.5546550000000  0.4306800000000  0.5128800000000 1.0
C      1  0.4719590000000  0.4392920000000  0.5605650000000 1.0
C      1  0.5282700000000  0.4795930000000  0.5137210000000 1.0
C      1  0.5731140000000  0.5261510000000  0.4760320000000 1.0
C      1  0.5504080000000  0.5360030000000  0.4231050000000 1.0
C      1  0.4787330000000  0.5498890000000  0.5659120000000 1.0
C      1  0.4547280000000  0.4724890000000  0.5381890000000 1.0
C      1  0.4672410000000  0.5840160000000  0.5360100000000 1.0
C      1  0.4145420000000  0.4901870000000  0.5438710000000 1.0
C      1  0.5177740000000  0.5426940000000  0.5063190000000 1.0
C      1  0.5150170000000  0.4141400000000  0.4787170000000 1.0
C      1  0.4956830000000  0.5621690000000  0.4742400000000 1.0
C      1  0.4608340000000  0.4248090000000  0.4657930000000 1.0
C      1  0.5243180000000  0.5879900000000  0.4893880000000 1.0
C      1  0.4639810000000  0.4865180000000  0.4386920000000 1.0
C      1  0.5045400000000  0.5551420000000  0.4193540000000 1.0
C      1  0.5082520000000  0.5935650000000  0.5136160000000 1.0
C      1  0.4912850000000  0.5023180000000  0.5407730000000 1.0
C      1  0.5375920000000  0.4990760000000  0.5712430000000 1.0
END
