TITL C-2441169-1362-158 0.0234970834930454 125000 -3473.53195221125 0 0 32 (C1) n - 1
REM
REM in /home/bkarasulu/work/CARBON/AIRSS/Generating-Clusters/ReaxFF-fromJPCA2015/Units_Real/with-SteepDescent/Higher-Symm
REM
REM
REM
REM
REM
REM ./C.cell (1df0a924f5614ab8850e4351716899ee)
REM
REM compiler GCC version 9.2.1 20190827 (Red Hat 9.2.1-1)
REM options -cpp -mtune=generic -march=x86-64 -g -O0 -fpre-include=/usr/include/finclude/math-vector-fortran.h
REM seed -478817104 -779745774 -1570566996 1335930332 666441791 -1775352678 -827430601 640810568 -273840290 933374148 992793885 -2144273534 -313261319 1258475431 1683242812 -759308335 -2007126389 264704005 -1018018922 1895199442 283667158 1538042983 -574542745 1680261843 -869681039 1447475074 48310957 -439638295 1588783393 -345235978 -2122673075 -79679122 -886906181
REM
CELL 1.54180   50.00000   50.00000   50.00000   90.00000   90.00000   90.00000
LATT -1
SFAC C  
C      1  0.4768350000000  0.5276840000000  0.5270500000000 1.0
C      1  0.5227200000000  0.4722020000000  0.4727270000000 1.0
C      1  0.5506000000000  0.4806260000000  0.4897570000000 1.0
C      1  0.4499680000000  0.5193840000000  0.5093800000000 1.0
C      1  0.4595610000000  0.4490000000000  0.4957500000000 1.0
C      1  0.5400990000000  0.5492880000000  0.5011770000000 1.0
C      1  0.4938340000000  0.4420000000000  0.5155490000000 1.0
C      1  0.5055530000000  0.5588990000000  0.4835390000000 1.0
C      1  0.5183630000000  0.4883210000000  0.5129500000000 1.0
C      1  0.4865140000000  0.5102660000000  0.4858140000000 1.0
C      1  0.5138700000000  0.5529570000000  0.5109220000000 1.0
C      1  0.4855010000000  0.4470770000000  0.4890380000000 1.0
C      1  0.5075050000000  0.5013120000000  0.4484050000000 1.0
C      1  0.4932850000000  0.4997930000000  0.5530480000000 1.0
C      1  0.4471240000000  0.5017210000000  0.4871860000000 1.0
C      1  0.5495620000000  0.4970330000000  0.5140900000000 1.0
C      1  0.4416190000000  0.4946930000000  0.5201380000000 1.0
C      1  0.5582790000000  0.5055890000000  0.4788780000000 1.0
C      1  0.4835410000000  0.4615970000000  0.5325300000000 1.0
C      1  0.5186980000000  0.5392700000000  0.4700030000000 1.0
C      1  0.4706990000000  0.4919790000000  0.4721150000000 1.0
C      1  0.5273430000000  0.5095750000000  0.5291400000000 1.0
C      1  0.4897440000000  0.5366390000000  0.4776480000000 1.0
C      1  0.5104410000000  0.4631310000000  0.5237790000000 1.0
C      1  0.4544210000000  0.4893070000000  0.5448760000000 1.0
C      1  0.5460750000000  0.5108730000000  0.4543180000000 1.0
C      1  0.5219170000000  0.4957130000000  0.4676260000000 1.0
C      1  0.4776320000000  0.5030400000000  0.5308970000000 1.0
C      1  0.5210700000000  0.5254970000000  0.4439030000000 1.0
C      1  0.4783800000000  0.4752090000000  0.5571560000000 1.0
C      1  0.4934570000000  0.4717230000000  0.4764370000000 1.0
C      1  0.5057920000000  0.5286010000000  0.5241730000000 1.0
END
