TITL C-2441157-2117-550 0.047225568295448 125000 -16249.2440342237 0 0 116 (C1) n - 1
REM
REM in /home/bkarasulu/work/CARBON/AIRSS/Generating-Clusters/ReaxFF-fromJPCA2015/Units_Real/with-SteepDescent/Higher-Symm
REM
REM
REM
REM
REM
REM ./C.cell (1df0a924f5614ab8850e4351716899ee)
REM
REM compiler GCC version 9.2.1 20190827 (Red Hat 9.2.1-1)
REM options -cpp -mtune=generic -march=x86-64 -g -O0 -fpre-include=/usr/include/finclude/math-vector-fortran.h
REM seed 223509752 -28400356 1392036245 594979374 -1904978503 76360893 730078132 -1725782718 1039454580 1701272210 -982060010 -275191112 390405966 1573989778 -919662829 2120118749 -1357023120 1238473490 987585875 -1349551213 1230286365 267625048 2058603139 676417241 2070129550 1501174939 -1799063673 -547595381 -209673098 -1283645974 -2030468055 -1627446397 -133757802
REM
CELL 1.54180   50.00000   50.00000   50.00000   90.00000   90.00000   90.00000
LATT -1
SFAC C  
C      1  0.4782930000000  0.5706260000000  0.4579670000000 1.0
C      1  0.4773750000000  0.5025800000000  0.5866220000000 1.0
C      1  0.4770410000000  0.4273210000000  0.4579070000000 1.0
C      1  0.4740100000000  0.5025510000000  0.4056750000000 1.0
C      1  0.4772080000000  0.5810910000000  0.5508370000000 1.0
C      1  0.4735530000000  0.4164510000000  0.5432360000000 1.0
C      1  0.4999540000000  0.5281810000000  0.4910850000000 1.0
C      1  0.4974190000000  0.4941830000000  0.5279260000000 1.0
C      1  0.4962250000000  0.4784450000000  0.4834030000000 1.0
C      1  0.5120490000000  0.4800040000000  0.4536480000000 1.0
C      1  0.5080060000000  0.5544940000000  0.5006890000000 1.0
C      1  0.5094960000000  0.4741280000000  0.5490790000000 1.0
C      1  0.5410720000000  0.4639450000000  0.4437340000000 1.0
C      1  0.5347680000000  0.5640350000000  0.4995210000000 1.0
C      1  0.5385940000000  0.4708260000000  0.5574910000000 1.0
C      1  0.4583950000000  0.4649880000000  0.4690950000000 1.0
C      1  0.4537700000000  0.5438620000000  0.4851930000000 1.0
C      1  0.4585150000000  0.4944060000000  0.5493140000000 1.0
C      1  0.4475430000000  0.4525760000000  0.4910320000000 1.0
C      1  0.4476260000000  0.5302540000000  0.4612770000000 1.0
C      1  0.4402490000000  0.5166780000000  0.5530210000000 1.0
C      1  0.5475570000000  0.4174010000000  0.5126730000000 1.0
C      1  0.5490320000000  0.5279450000000  0.4291130000000 1.0
C      1  0.5489040000000  0.5525160000000  0.5633390000000 1.0
C      1  0.5245060000000  0.4247380000000  0.4928710000000 1.0
C      1  0.5263650000000  0.5468030000000  0.4308730000000 1.0
C      1  0.5260680000000  0.5323210000000  0.5703280000000 1.0
C      1  0.5761500000000  0.4714480000000  0.4876830000000 1.0
C      1  0.5700820000000  0.5199940000000  0.4772880000000 1.0
C      1  0.5714150000000  0.5035950000000  0.5273650000000 1.0
C      1  0.4456850000000  0.4540050000000  0.5367120000000 1.0
C      1  0.4429680000000  0.4857220000000  0.4401120000000 1.0
C      1  0.4484580000000  0.5586130000000  0.5207810000000 1.0
C      1  0.5213340000000  0.5904060000000  0.5306280000000 1.0
C      1  0.5201110000000  0.4272840000000  0.5595170000000 1.0
C      1  0.5223530000000  0.4851340000000  0.4072720000000 1.0
C      1  0.4655660000000  0.5713490000000  0.4846210000000 1.0
C      1  0.4672300000000  0.4793500000000  0.5725190000000 1.0
C      1  0.4676100000000  0.4528700000000  0.4456720000000 1.0
C      1  0.4708280000000  0.5086820000000  0.4588940000000 1.0
C      1  0.4724210000000  0.5374270000000  0.5253830000000 1.0
C      1  0.4708510000000  0.4610890000000  0.5203350000000 1.0
C      1  0.5719740000000  0.5085720000000  0.5588660000000 1.0
C      1  0.5714590000000  0.4438380000000  0.4770950000000 1.0
C      1  0.5582520000000  0.5617820000000  0.4561560000000 1.0
C      1  0.4961570000000  0.5186010000000  0.4091910000000 1.0
C      1  0.5008070000000  0.5684800000000  0.5592390000000 1.0
C      1  0.4963870000000  0.4132070000000  0.5279170000000 1.0
C      1  0.4230150000000  0.4768870000000  0.4595290000000 1.0
C      1  0.4289890000000  0.5438260000000  0.5043560000000 1.0
C      1  0.4235020000000  0.4731990000000  0.5335650000000 1.0
C      1  0.5722460000000  0.4717480000000  0.5167790000000 1.0
C      1  0.5724410000000  0.4924570000000  0.4672780000000 1.0
C      1  0.5704980000000  0.5299050000000  0.5126900000000 1.0
C      1  0.4494270000000  0.4268630000000  0.5286430000000 1.0
C      1  0.4498570000000  0.5079220000000  0.4230160000000 1.0
C      1  0.4512790000000  0.5652020000000  0.5492640000000 1.0
C      1  0.5207640000000  0.5937960000000  0.4776160000000 1.0
C      1  0.5171200000000  0.4688520000000  0.5929640000000 1.0
C      1  0.5167590000000  0.4364130000000  0.4266970000000 1.0
C      1  0.4881780000000  0.4604830000000  0.5629450000000 1.0
C      1  0.4899630000000  0.4699870000000  0.4362710000000 1.0
C      1  0.4880390000000  0.5748870000000  0.5029790000000 1.0
C      1  0.5204400000000  0.5086770000000  0.4575150000000 1.0
C      1  0.5232460000000  0.5216920000000  0.5391040000000 1.0
C      1  0.5207580000000  0.4553670000000  0.5038100000000 1.0
C      1  0.5300040000000  0.4574250000000  0.4141670000000 1.0
C      1  0.5311910000000  0.5957390000000  0.5029630000000 1.0
C      1  0.5298030000000  0.4481490000000  0.5784160000000 1.0
C      1  0.5577820000000  0.5542750000000  0.5203690000000 1.0
C      1  0.5576280000000  0.4556450000000  0.5356910000000 1.0
C      1  0.5589250000000  0.4862110000000  0.4423790000000 1.0
C      1  0.5319830000000  0.5714010000000  0.4446920000000 1.0
C      1  0.5301010000000  0.5078120000000  0.5861550000000 1.0
C      1  0.5288210000000  0.4233970000000  0.4638030000000 1.0
C      1  0.5051630000000  0.4946140000000  0.5946520000000 1.0
C      1  0.5044320000000  0.4217220000000  0.4472930000000 1.0
C      1  0.5067870000000  0.5816410000000  0.4573840000000 1.0
C      1  0.5399790000000  0.5214740000000  0.4762690000000 1.0
C      1  0.5397650000000  0.5026980000000  0.5252880000000 1.0
C      1  0.5324830000000  0.4823650000000  0.5051000000000 1.0
C      1  0.4239810000000  0.5277180000000  0.4663220000000 1.0
C      1  0.4203930000000  0.5027300000000  0.5385070000000 1.0
C      1  0.4223560000000  0.4557820000000  0.4848860000000 1.0
C      1  0.4733500000000  0.5286320000000  0.4991580000000 1.0
C      1  0.4709680000000  0.4882820000000  0.5253270000000 1.0
C      1  0.4712040000000  0.4868750000000  0.4759020000000 1.0
C      1  0.4728160000000  0.5530450000000  0.4360830000000 1.0
C      1  0.4738950000000  0.5307200000000  0.5796390000000 1.0
C      1  0.4723260000000  0.4176210000000  0.4844710000000 1.0
C      1  0.5511300000000  0.4939960000000  0.5723590000000 1.0
C      1  0.5495670000000  0.4410430000000  0.4580770000000 1.0
C      1  0.5440300000000  0.5502970000000  0.4782340000000 1.0
C      1  0.4980840000000  0.5432130000000  0.4219700000000 1.0
C      1  0.4990840000000  0.5462980000000  0.5758600000000 1.0
C      1  0.4968930000000  0.4118680000000  0.5002700000000 1.0
C      1  0.4930150000000  0.4790620000000  0.4084870000000 1.0
C      1  0.4917710000000  0.5919070000000  0.5273460000000 1.0
C      1  0.4911130000000  0.4303840000000  0.5635080000000 1.0
C      1  0.4116890000000  0.4708120000000  0.5073520000000 1.0
C      1  0.4118960000000  0.5027950000000  0.4703340000000 1.0
C      1  0.4163680000000  0.5202630000000  0.5160530000000 1.0
C      1  0.4485690000000  0.5361490000000  0.4348530000000 1.0
C      1  0.4501130000000  0.5406400000000  0.5658440000000 1.0
C      1  0.4474110000000  0.4265160000000  0.4987640000000 1.0
C      1  0.5419950000000  0.4306370000000  0.5381350000000 1.0
C      1  0.5441240000000  0.5001230000000  0.4219630000000 1.0
C      1  0.5386590000000  0.5680600000000  0.5409830000000 1.0
C      1  0.5692110000000  0.4330630000000  0.5033960000000 1.0
C      1  0.5688710000000  0.5356800000000  0.4497100000000 1.0
C      1  0.5703880000000  0.5362070000000  0.5537010000000 1.0
C      1  0.4961690000000  0.5225160000000  0.4616700000000 1.0
C      1  0.4948420000000  0.5234680000000  0.5378790000000 1.0
C      1  0.4929040000000  0.4547330000000  0.5014260000000 1.0
C      1  0.4095450000000  0.4987950000000  0.4988270000000 1.0
C      1  0.5081000000000  0.4974300000000  0.5005920000000 1.0
END
