TITL C-2441165-58-1010 1.14023848335667e-10 125000 -756.011161541553 0 0 6 (C2h) n - 1
REM
REM in /home/bkarasulu/work/CARBON/AIRSS/Generating-Clusters/ReaxFF-fromJPCA2015/Units_Real/with-SteepDescent/Higher-Symm
REM
REM
REM
REM
REM
REM ./C.cell (1df0a924f5614ab8850e4351716899ee)
REM
REM compiler GCC version 9.2.1 20190827 (Red Hat 9.2.1-1)
REM options -cpp -mtune=generic -march=x86-64 -g -O0 -fpre-include=/usr/include/finclude/math-vector-fortran.h
REM seed 1757288889 -259914024 1048203397 -1939631081 143379169 126278367 -259486329 1113129285 2058458231 818662534 -2143782970 -1862439540 -1374603833 1235110561 -1020741734 -1219275946 342239046 -45189052 -830778846 -1290505190 1684383537 1243096627 -2032562454 -1708360985 1149784560 169470299 -947459100 2123677550 1527867968 90196533 -1738245543 -281936711 -609851516
REM
CELL 1.54180   50.00000   50.00000   50.00000   90.00000   90.00000   90.00000
LATT -1
SFAC C  
C      1  0.4945780000000  0.5347770000000  0.5017780000000 1.0
C      1  0.4810800000000  0.5105690000000  0.5017780000000 1.0
C      1  0.5229100000000  0.5168580000000  0.5017780000000 1.0
C      1  0.5042020000000  0.4652600000000  0.5017780000000 1.0
C      1  0.4758700000000  0.4831790000000  0.5017780000000 1.0
C      1  0.5177000000000  0.4894680000000  0.5017780000000 1.0
END
