TITL C-2441168-9922-1095 0.241614569458497 125000 -23531.1101909846 0 0 197 (C1) n - 1
REM
REM in /home/bkarasulu/work/CARBON/AIRSS/Generating-Clusters/ReaxFF-fromJPCA2015/Units_Real/with-SteepDescent/Higher-Symm
REM
REM
REM
REM
REM
REM ./C.cell (1df0a924f5614ab8850e4351716899ee)
REM
REM compiler GCC version 9.2.1 20190827 (Red Hat 9.2.1-1)
REM options -cpp -mtune=generic -march=x86-64 -g -O0 -fpre-include=/usr/include/finclude/math-vector-fortran.h
REM seed -1266311862 -1175750876 1138506575 1787153150 983933282 -129845870 1938211588 -1529503306 -530864674 -163519510 -664078871 -426525323 1300744334 661947150 154735643 -1468655283 1580786844 1469913461 -693301977 -37932936 1175646472 -1976751600 997459369 -538075779 -95088291 -1752501179 -1931394515 695899869 1218623844 651838775 923957655 1173996385 1859054329
REM
CELL 1.54180   50.00000   50.00000   50.00000   90.00000   90.00000   90.00000
LATT -1
SFAC C  
C      1  0.4641170000000  0.4433810000000  0.4244000000000 1.0
C      1  0.5359490000000  0.5567830000000  0.4255630000000 1.0
C      1  0.4645970000000  0.5562960000000  0.5749730000000 1.0
C      1  0.5353030000000  0.4434270000000  0.5739490000000 1.0
C      1  0.4435170000000  0.4658580000000  0.4253850000000 1.0
C      1  0.5559080000000  0.5349250000000  0.4257700000000 1.0
C      1  0.5566080000000  0.4652180000000  0.5735140000000 1.0
C      1  0.4434940000000  0.5353000000000  0.5748950000000 1.0
C      1  0.5601370000000  0.4241910000000  0.5144720000000 1.0
C      1  0.4480190000000  0.5776680000000  0.5200450000000 1.0
C      1  0.5585300000000  0.5813650000000  0.4809520000000 1.0
C      1  0.4477320000000  0.4212220000000  0.4810910000000 1.0
C      1  0.4212040000000  0.5552390000000  0.5206120000000 1.0
C      1  0.5836190000000  0.4405740000000  0.5198700000000 1.0
C      1  0.5783030000000  0.5544260000000  0.4810060000000 1.0
C      1  0.4224360000000  0.4479410000000  0.4808210000000 1.0
C      1  0.4886830000000  0.4086860000000  0.4434770000000 1.0
C      1  0.5110840000000  0.5909060000000  0.4447010000000 1.0
C      1  0.4885670000000  0.5912530000000  0.5563500000000 1.0
C      1  0.5096580000000  0.4069410000000  0.5586090000000 1.0
C      1  0.4087970000000  0.4887080000000  0.4434190000000 1.0
C      1  0.5915490000000  0.5121110000000  0.4433640000000 1.0
C      1  0.5915290000000  0.4886730000000  0.5565340000000 1.0
C      1  0.4088800000000  0.5113880000000  0.5564420000000 1.0
C      1  0.5182030000000  0.4457170000000  0.4684590000000 1.0
C      1  0.4817650000000  0.5531910000000  0.4675600000000 1.0
C      1  0.5179080000000  0.5560510000000  0.5330910000000 1.0
C      1  0.4828240000000  0.4458410000000  0.5338610000000 1.0
C      1  0.4439010000000  0.5177960000000  0.4670490000000 1.0
C      1  0.5529650000000  0.4810270000000  0.4676280000000 1.0
C      1  0.5530050000000  0.5185030000000  0.5347790000000 1.0
C      1  0.4452870000000  0.4822680000000  0.5335650000000 1.0
C      1  0.4393220000000  0.4567040000000  0.5252180000000 1.0
C      1  0.5613120000000  0.5433840000000  0.5233190000000 1.0
C      1  0.4380230000000  0.5430440000000  0.4780550000000 1.0
C      1  0.5603380000000  0.4617400000000  0.4882500000000 1.0
C      1  0.4565320000000  0.4388330000000  0.5242990000000 1.0
C      1  0.5435400000000  0.5619520000000  0.5214020000000 1.0
C      1  0.5446410000000  0.4412140000000  0.4778810000000 1.0
C      1  0.4558520000000  0.5602910000000  0.4763980000000 1.0
C      1  0.4853460000000  0.5569890000000  0.5966030000000 1.0
C      1  0.5147760000000  0.4428710000000  0.5963500000000 1.0
C      1  0.4857070000000  0.4431730000000  0.4036670000000 1.0
C      1  0.5156110000000  0.5566550000000  0.4049040000000 1.0
C      1  0.5576580000000  0.4846150000000  0.5962810000000 1.0
C      1  0.4431860000000  0.5146420000000  0.5967630000000 1.0
C      1  0.4433760000000  0.4860970000000  0.4032620000000 1.0
C      1  0.5566760000000  0.5144330000000  0.4035840000000 1.0
C      1  0.5025580000000  0.5754100000000  0.4859290000000 1.0
C      1  0.4976930000000  0.4249420000000  0.4851990000000 1.0
C      1  0.5046770000000  0.4262410000000  0.5144350000000 1.0
C      1  0.4961570000000  0.5747260000000  0.5156570000000 1.0
C      1  0.5779340000000  0.5053700000000  0.4855030000000 1.0
C      1  0.4244250000000  0.4967690000000  0.4852280000000 1.0
C      1  0.4248060000000  0.5031750000000  0.5151750000000 1.0
C      1  0.5766200000000  0.4975810000000  0.5141450000000 1.0
C      1  0.5255530000000  0.5033420000000  0.5697620000000 1.0
C      1  0.4751460000000  0.4960700000000  0.5697740000000 1.0
C      1  0.5254580000000  0.4960660000000  0.4313620000000 1.0
C      1  0.4746240000000  0.5047160000000  0.4300330000000 1.0
C      1  0.5046020000000  0.5251090000000  0.5696690000000 1.0
C      1  0.4960240000000  0.4746460000000  0.5703190000000 1.0
C      1  0.4959780000000  0.5251030000000  0.4304590000000 1.0
C      1  0.5038870000000  0.4748250000000  0.4313820000000 1.0
C      1  0.4662350000000  0.5161980000000  0.5148770000000 1.0
C      1  0.5320770000000  0.4864620000000  0.5137530000000 1.0
C      1  0.4651440000000  0.4839880000000  0.4914810000000 1.0
C      1  0.5390920000000  0.5181630000000  0.4905470000000 1.0
C      1  0.5155540000000  0.4680250000000  0.5104710000000 1.0
C      1  0.4825890000000  0.5324680000000  0.5070560000000 1.0
C      1  0.4800080000000  0.4637190000000  0.4913510000000 1.0
C      1  0.5230120000000  0.5352010000000  0.4957230000000 1.0
C      1  0.5045210000000  0.5808800000000  0.4178160000000 1.0
C      1  0.4963010000000  0.4187040000000  0.4165700000000 1.0
C      1  0.5021510000000  0.4189130000000  0.5854790000000 1.0
C      1  0.4960850000000  0.5808440000000  0.5830190000000 1.0
C      1  0.5812440000000  0.5048100000000  0.4162380000000 1.0
C      1  0.4191090000000  0.4963450000000  0.4167360000000 1.0
C      1  0.4191200000000  0.5041430000000  0.5831840000000 1.0
C      1  0.5819420000000  0.4959530000000  0.5838680000000 1.0
C      1  0.5214300000000  0.3997790000000  0.5172860000000 1.0
C      1  0.4831280000000  0.6028290000000  0.5140910000000 1.0
C      1  0.5163680000000  0.6033760000000  0.4845980000000 1.0
C      1  0.4854090000000  0.3960150000000  0.4871290000000 1.0
C      1  0.3971960000000  0.5170560000000  0.5146210000000 1.0
C      1  0.6029610000000  0.4827630000000  0.5137020000000 1.0
C      1  0.6043920000000  0.5185770000000  0.4873470000000 1.0
C      1  0.3968530000000  0.4833570000000  0.4860120000000 1.0
C      1  0.5287080000000  0.5075870000000  0.4040290000000 1.0
C      1  0.4715760000000  0.4921410000000  0.4032690000000 1.0
C      1  0.5295640000000  0.4915290000000  0.5969610000000 1.0
C      1  0.4712060000000  0.5081500000000  0.5968130000000 1.0
C      1  0.5084780000000  0.5288190000000  0.4037950000000 1.0
C      1  0.4922700000000  0.4712000000000  0.4040290000000 1.0
C      1  0.4920210000000  0.5290130000000  0.5964240000000 1.0
C      1  0.5084400000000  0.4711500000000  0.5972260000000 1.0
C      1  0.5236380000000  0.5432960000000  0.4516650000000 1.0
C      1  0.4758540000000  0.4560790000000  0.4500500000000 1.0
C      1  0.5242860000000  0.4564710000000  0.5493090000000 1.0
C      1  0.4768640000000  0.5437580000000  0.5491230000000 1.0
C      1  0.5443690000000  0.5237970000000  0.4502290000000 1.0
C      1  0.4564710000000  0.4762130000000  0.4509560000000 1.0
C      1  0.4563610000000  0.5238710000000  0.5509380000000 1.0
C      1  0.5434040000000  0.4764920000000  0.5499080000000 1.0
C      1  0.4756070000000  0.5860170000000  0.4226170000000 1.0
C      1  0.5248180000000  0.4142610000000  0.4228160000000 1.0
C      1  0.4736610000000  0.4141760000000  0.5788710000000 1.0
C      1  0.5247180000000  0.5860760000000  0.5772310000000 1.0
C      1  0.5853420000000  0.4761460000000  0.4225420000000 1.0
C      1  0.4138570000000  0.5252460000000  0.4223150000000 1.0
C      1  0.4140130000000  0.4753280000000  0.5774470000000 1.0
C      1  0.5860910000000  0.5246290000000  0.5775130000000 1.0
C      1  0.4203400000000  0.4413810000000  0.5401720000000 1.0
C      1  0.5790980000000  0.5588990000000  0.5403840000000 1.0
C      1  0.4204390000000  0.5586730000000  0.4596270000000 1.0
C      1  0.5823950000000  0.4375820000000  0.4601340000000 1.0
C      1  0.4401860000000  0.4201300000000  0.5390350000000 1.0
C      1  0.5586580000000  0.5795460000000  0.5389450000000 1.0
C      1  0.5583220000000  0.4230880000000  0.4586830000000 1.0
C      1  0.4416610000000  0.5788940000000  0.4600970000000 1.0
C      1  0.4442400000000  0.5763710000000  0.5647920000000 1.0
C      1  0.5532610000000  0.4223190000000  0.5591090000000 1.0
C      1  0.4438730000000  0.4227420000000  0.4359880000000 1.0
C      1  0.5562930000000  0.5758150000000  0.4361540000000 1.0
C      1  0.5755840000000  0.4418520000000  0.5608950000000 1.0
C      1  0.4236830000000  0.5565790000000  0.5647540000000 1.0
C      1  0.4242040000000  0.4439350000000  0.4360030000000 1.0
C      1  0.5764430000000  0.5555390000000  0.4358340000000 1.0
C      1  0.5910770000000  0.4582180000000  0.4963230000000 1.0
C      1  0.4059080000000  0.5419960000000  0.4984360000000 1.0
C      1  0.5965660000000  0.5431820000000  0.5017380000000 1.0
C      1  0.4034520000000  0.4588710000000  0.5010690000000 1.0
C      1  0.4584330000000  0.5968320000000  0.4991000000000 1.0
C      1  0.5439330000000  0.4062100000000  0.4978720000000 1.0
C      1  0.5419640000000  0.5960290000000  0.5001610000000 1.0
C      1  0.4597490000000  0.4032830000000  0.5011300000000 1.0
C      1  0.4405470000000  0.4621550000000  0.5803650000000 1.0
C      1  0.5595300000000  0.5386190000000  0.5809830000000 1.0
C      1  0.4406080000000  0.5389960000000  0.4197940000000 1.0
C      1  0.5590700000000  0.4616530000000  0.4198520000000 1.0
C      1  0.4612800000000  0.4412170000000  0.5807780000000 1.0
C      1  0.5385580000000  0.5595010000000  0.5798600000000 1.0
C      1  0.5379960000000  0.4411210000000  0.4213210000000 1.0
C      1  0.4619150000000  0.5595160000000  0.4206380000000 1.0
C      1  0.5168890000000  0.5977490000000  0.5510950000000 1.0
C      1  0.4809820000000  0.4024640000000  0.5527850000000 1.0
C      1  0.5173070000000  0.4025710000000  0.4490900000000 1.0
C      1  0.4833080000000  0.5977670000000  0.4492410000000 1.0
C      1  0.5979080000000  0.5170850000000  0.5514110000000 1.0
C      1  0.4025200000000  0.4835590000000  0.5510630000000 1.0
C      1  0.4018400000000  0.5169080000000  0.4485110000000 1.0
C      1  0.5963310000000  0.4834550000000  0.4487150000000 1.0
C      1  0.5396140000000  0.5998640000000  0.5306730000000 1.0
C      1  0.4602250000000  0.4001150000000  0.5306740000000 1.0
C      1  0.5398180000000  0.4024380000000  0.4689350000000 1.0
C      1  0.4601640000000  0.5987960000000  0.4699810000000 1.0
C      1  0.5998650000000  0.5409110000000  0.5312610000000 1.0
C      1  0.4007470000000  0.4605490000000  0.5304810000000 1.0
C      1  0.4002500000000  0.5398890000000  0.4683970000000 1.0
C      1  0.5991160000000  0.4582050000000  0.4661000000000 1.0
C      1  0.4820640000000  0.5489100000000  0.4386980000000 1.0
C      1  0.5182860000000  0.4515330000000  0.4398400000000 1.0
C      1  0.4816730000000  0.4512620000000  0.5627460000000 1.0
C      1  0.5190640000000  0.5484050000000  0.5614190000000 1.0
C      1  0.5478040000000  0.4797700000000  0.4395820000000 1.0
C      1  0.4511500000000  0.5191330000000  0.4379590000000 1.0
C      1  0.4513020000000  0.4819980000000  0.5620200000000 1.0
C      1  0.5485460000000  0.5188010000000  0.5629320000000 1.0
C      1  0.4736520000000  0.4408850000000  0.4769200000000 1.0
C      1  0.5228020000000  0.5559610000000  0.4780120000000 1.0
C      1  0.4736880000000  0.5573890000000  0.5225150000000 1.0
C      1  0.5271610000000  0.4427770000000  0.5233910000000 1.0
C      1  0.4416480000000  0.4737910000000  0.4775620000000 1.0
C      1  0.5598460000000  0.5266150000000  0.4753910000000 1.0
C      1  0.5565630000000  0.4768880000000  0.5231950000000 1.0
C      1  0.4423210000000  0.5258300000000  0.5250020000000 1.0
C      1  0.5094380000000  0.5294140000000  0.5199520000000 1.0
C      1  0.4914260000000  0.4723690000000  0.5255770000000 1.0
C      1  0.5034090000000  0.4692340000000  0.4808910000000 1.0
C      1  0.4873070000000  0.5252360000000  0.4786270000000 1.0
C      1  0.5276500000000  0.5084780000000  0.5251160000000 1.0
C      1  0.4700360000000  0.4909550000000  0.5208560000000 1.0
C      1  0.4686340000000  0.5065710000000  0.4751060000000 1.0
C      1  0.5317240000000  0.4985560000000  0.4763420000000 1.0
C      1  0.5439500000000  0.5898350000000  0.4576380000000 1.0
C      1  0.4598300000000  0.4093160000000  0.4557130000000 1.0
C      1  0.5355230000000  0.4041860000000  0.5456300000000 1.0
C      1  0.4590000000000  0.5906410000000  0.5452530000000 1.0
C      1  0.5907580000000  0.5408770000000  0.4551390000000 1.0
C      1  0.4100690000000  0.4589970000000  0.4554110000000 1.0
C      1  0.4094520000000  0.5427500000000  0.5446490000000 1.0
C      1  0.5916450000000  0.4587950000000  0.5448460000000 1.0
C      1  0.6240140000000  0.4992370000000  0.5013390000000 1.0
C      1  0.3765280000000  0.5007890000000  0.5003290000000 1.0
C      1  0.5002360000000  0.6234580000000  0.5002220000000 1.0
C      1  0.5021730000000  0.3785250000000  0.5026360000000 1.0
C      1  0.5062820000000  0.4969860000000  0.4764150000000 1.0
END
