TITL C-2441165-58-503 0.0509324496663571 125000 -20855.6004251927 0 0 145 (C1) n - 1
REM
REM in /home/bkarasulu/work/CARBON/AIRSS/Generating-Clusters/ReaxFF-fromJPCA2015/Units_Real/with-SteepDescent/Higher-Symm
REM
REM
REM
REM
REM
REM ./C.cell (1df0a924f5614ab8850e4351716899ee)
REM
REM compiler GCC version 9.2.1 20190827 (Red Hat 9.2.1-1)
REM options -cpp -mtune=generic -march=x86-64 -g -O0 -fpre-include=/usr/include/finclude/math-vector-fortran.h
REM seed 628806439 1807724797 1324864505 610399837 944374350 2105172407 -251924800 310826498 -1593064313 -1488302906 425974058 1476070989 -1469619468 -253689369 1528086755 400601290 1731282413 919011570 1122362159 -1510483447 1376231842 -1985289370 -1142911641 -490072558 -199187639 1337520552 1678418255 89006897 2003376228 2058588713 -2146241727 68450079 -952721487
REM
CELL 1.54180   50.00000   50.00000   50.00000   90.00000   90.00000   90.00000
LATT -1
SFAC C  
C      1  0.5933360000000  0.4840150000000  0.4692100000000 1.0
C      1  0.4751400000000  0.4952850000000  0.5960090000000 1.0
C      1  0.4278240000000  0.4886940000000  0.4294480000000 1.0
C      1  0.4053750000000  0.5066550000000  0.4738890000000 1.0
C      1  0.5228990000000  0.5094230000000  0.5959210000000 1.0
C      1  0.5732330000000  0.5150670000000  0.4377840000000 1.0
C      1  0.4082740000000  0.5138650000000  0.5337080000000 1.0
C      1  0.5266630000000  0.5062050000000  0.4056930000000 1.0
C      1  0.5728230000000  0.5144900000000  0.5668740000000 1.0
C      1  0.5961780000000  0.4843590000000  0.5294040000000 1.0
C      1  0.4791310000000  0.4884380000000  0.4029480000000 1.0
C      1  0.4267510000000  0.4853880000000  0.5672390000000 1.0
C      1  0.4497890000000  0.4785380000000  0.5242790000000 1.0
C      1  0.5105500000000  0.4738290000000  0.4419950000000 1.0
C      1  0.5483790000000  0.4926380000000  0.5277690000000 1.0
C      1  0.5458040000000  0.5401880000000  0.5290830000000 1.0
C      1  0.5004130000000  0.5179840000000  0.4448310000000 1.0
C      1  0.4542350000000  0.5238720000000  0.5332520000000 1.0
C      1  0.5543720000000  0.5245540000000  0.4783430000000 1.0
C      1  0.5010540000000  0.5247510000000  0.5553320000000 1.0
C      1  0.4528660000000  0.5207490000000  0.4708880000000 1.0
C      1  0.4469670000000  0.4780330000000  0.4748090000000 1.0
C      1  0.5000070000000  0.4834390000000  0.5560800000000 1.0
C      1  0.5492160000000  0.4846900000000  0.4719730000000 1.0
C      1  0.4992980000000  0.4361210000000  0.5283640000000 1.0
C      1  0.4734290000000  0.4280930000000  0.4867730000000 1.0
C      1  0.5238850000000  0.4390360000000  0.4869650000000 1.0
C      1  0.4977270000000  0.5717070000000  0.5280630000000 1.0
C      1  0.5213290000000  0.5760390000000  0.4846460000000 1.0
C      1  0.4740290000000  0.5718520000000  0.4846760000000 1.0
C      1  0.4985940000000  0.5637130000000  0.4712410000000 1.0
C      1  0.5201870000000  0.5792620000000  0.5119780000000 1.0
C      1  0.4744610000000  0.5736010000000  0.5130860000000 1.0
C      1  0.4985570000000  0.4372170000000  0.4723040000000 1.0
C      1  0.4748790000000  0.4280880000000  0.5142520000000 1.0
C      1  0.5226960000000  0.4296740000000  0.5138850000000 1.0
C      1  0.4391070000000  0.5309260000000  0.5707240000000 1.0
C      1  0.4779870000000  0.5294850000000  0.4088160000000 1.0
C      1  0.5893530000000  0.5240980000000  0.5216540000000 1.0
C      1  0.5604060000000  0.4677540000000  0.5647140000000 1.0
C      1  0.5287560000000  0.4764170000000  0.4055830000000 1.0
C      1  0.4100080000000  0.4685830000000  0.5232090000000 1.0
C      1  0.5611820000000  0.4679060000000  0.4322660000000 1.0
C      1  0.5265280000000  0.4704500000000  0.5887010000000 1.0
C      1  0.4062850000000  0.4741480000000  0.4728310000000 1.0
C      1  0.4319870000000  0.5292710000000  0.4346830000000 1.0
C      1  0.4738450000000  0.5258390000000  0.5934800000000 1.0
C      1  0.5984800000000  0.5402120000000  0.4792080000000 1.0
C      1  0.4302920000000  0.4474060000000  0.4335120000000 1.0
C      1  0.5891610000000  0.4432100000000  0.4696780000000 1.0
C      1  0.4803260000000  0.4502760000000  0.5946690000000 1.0
C      1  0.5710170000000  0.5562410000000  0.4377090000000 1.0
C      1  0.4072590000000  0.5485760000000  0.4739510000000 1.0
C      1  0.5196700000000  0.5515720000000  0.5930260000000 1.0
C      1  0.5718700000000  0.5546710000000  0.5612600000000 1.0
C      1  0.4090420000000  0.5548300000000  0.5326290000000 1.0
C      1  0.5237850000000  0.5488590000000  0.4070940000000 1.0
C      1  0.4285610000000  0.4447050000000  0.5669220000000 1.0
C      1  0.5893470000000  0.4437410000000  0.5278740000000 1.0
C      1  0.4823620000000  0.4471800000000  0.4070470000000 1.0
C      1  0.5008550000000  0.4703660000000  0.5997300000000 1.0
C      1  0.4124480000000  0.4679870000000  0.4459650000000 1.0
C      1  0.5849190000000  0.4645900000000  0.4491180000000 1.0
C      1  0.5008090000000  0.5291210000000  0.6021580000000 1.0
C      1  0.5890880000000  0.5362870000000  0.4528580000000 1.0
C      1  0.4092730000000  0.5291060000000  0.4523480000000 1.0
C      1  0.5044470000000  0.5296500000000  0.3981380000000 1.0
C      1  0.5876370000000  0.5328290000000  0.5492250000000 1.0
C      1  0.4160560000000  0.5342900000000  0.5531990000000 1.0
C      1  0.5018510000000  0.4692530000000  0.3989460000000 1.0
C      1  0.4125380000000  0.4652420000000  0.5517370000000 1.0
C      1  0.5845710000000  0.4645870000000  0.5483840000000 1.0
C      1  0.5663960000000  0.5344160000000  0.4194530000000 1.0
C      1  0.5415820000000  0.5327380000000  0.5966130000000 1.0
C      1  0.3944520000000  0.5291090000000  0.4907480000000 1.0
C      1  0.4374090000000  0.4664130000000  0.4141910000000 1.0
C      1  0.4594360000000  0.4694350000000  0.5998910000000 1.0
C      1  0.6032970000000  0.4628660000000  0.4855810000000 1.0
C      1  0.4359880000000  0.4658100000000  0.5851290000000 1.0
C      1  0.4616370000000  0.4662240000000  0.4024980000000 1.0
C      1  0.6046050000000  0.4625870000000  0.5131180000000 1.0
C      1  0.5644160000000  0.5366220000000  0.5823260000000 1.0
C      1  0.5450610000000  0.5299410000000  0.4035320000000 1.0
C      1  0.3961030000000  0.5335930000000  0.5177420000000 1.0
C      1  0.5508920000000  0.4960270000000  0.5563050000000 1.0
C      1  0.4253300000000  0.4941380000000  0.5173540000000 1.0
C      1  0.5209370000000  0.5005730000000  0.4367800000000 1.0
C      1  0.4492630000000  0.5046780000000  0.5570010000000 1.0
C      1  0.5741100000000  0.4981810000000  0.5149980000000 1.0
C      1  0.4763520000000  0.5064720000000  0.4273780000000 1.0
C      1  0.4487730000000  0.5064350000000  0.4401760000000 1.0
C      1  0.5704020000000  0.4991520000000  0.4829430000000 1.0
C      1  0.4763940000000  0.4940180000000  0.5665130000000 1.0
C      1  0.5515470000000  0.4950180000000  0.4444760000000 1.0
C      1  0.4335360000000  0.5028980000000  0.4842610000000 1.0
C      1  0.5193810000000  0.5035530000000  0.5657560000000 1.0
C      1  0.4763590000000  0.5490440000000  0.4309570000000 1.0
C      1  0.5700050000000  0.5442950000000  0.5143500000000 1.0
C      1  0.4554110000000  0.5473690000000  0.5522470000000 1.0
C      1  0.5216210000000  0.4492210000000  0.4305570000000 1.0
C      1  0.4341720000000  0.4538640000000  0.5150530000000 1.0
C      1  0.5475380000000  0.4434860000000  0.5560430000000 1.0
C      1  0.5248120000000  0.4464770000000  0.5723480000000 1.0
C      1  0.4299210000000  0.4553530000000  0.4826890000000 1.0
C      1  0.5469560000000  0.4439160000000  0.4399200000000 1.0
C      1  0.4811910000000  0.5424110000000  0.5684530000000 1.0
C      1  0.5668750000000  0.5485950000000  0.4873820000000 1.0
C      1  0.4517040000000  0.5474820000000  0.4479510000000 1.0
C      1  0.4769870000000  0.4825360000000  0.5184290000000 1.0
C      1  0.4995840000000  0.4673620000000  0.4678010000000 1.0
C      1  0.5268520000000  0.4809130000000  0.5154340000000 1.0
C      1  0.5244560000000  0.5291260000000  0.5139160000000 1.0
C      1  0.5024290000000  0.5293840000000  0.4708200000000 1.0
C      1  0.4758720000000  0.5274580000000  0.5155020000000 1.0
C      1  0.5263450000000  0.5238490000000  0.4864080000000 1.0
C      1  0.5005160000000  0.5276540000000  0.5272410000000 1.0
C      1  0.4779160000000  0.5208400000000  0.4873810000000 1.0
C      1  0.4748860000000  0.4791050000000  0.4731090000000 1.0
C      1  0.5019760000000  0.4718640000000  0.5296570000000 1.0
C      1  0.5267010000000  0.4739100000000  0.4871430000000 1.0
C      1  0.4775750000000  0.4333660000000  0.5705020000000 1.0
C      1  0.4535630000000  0.4328220000000  0.4446340000000 1.0
C      1  0.5661790000000  0.4305360000000  0.4826600000000 1.0
C      1  0.5215650000000  0.5667940000000  0.5681390000000 1.0
C      1  0.5477090000000  0.5693570000000  0.4490720000000 1.0
C      1  0.4272000000000  0.5660900000000  0.4863380000000 1.0
C      1  0.5239590000000  0.5657320000000  0.4313310000000 1.0
C      1  0.5471030000000  0.5658060000000  0.5468010000000 1.0
C      1  0.4287370000000  0.5689230000000  0.5157890000000 1.0
C      1  0.4804120000000  0.4316670000000  0.4315960000000 1.0
C      1  0.4522130000000  0.4316820000000  0.5553730000000 1.0
C      1  0.5680730000000  0.4309740000000  0.5118990000000 1.0
C      1  0.5425140000000  0.4302310000000  0.4655380000000 1.0
C      1  0.5023830000000  0.4333340000000  0.5577860000000 1.0
C      1  0.4490940000000  0.4328170000000  0.4725350000000 1.0
C      1  0.4504550000000  0.5672390000000  0.4701230000000 1.0
C      1  0.4965740000000  0.5683320000000  0.5567460000000 1.0
C      1  0.5486670000000  0.5730250000000  0.4779160000000 1.0
C      1  0.4525460000000  0.5695130000000  0.5304890000000 1.0
C      1  0.4975430000000  0.5658170000000  0.4414120000000 1.0
C      1  0.5469550000000  0.5788480000000  0.5199420000000 1.0
C      1  0.5458890000000  0.4304110000000  0.5295630000000 1.0
C      1  0.5061750000000  0.4284820000000  0.4447800000000 1.0
C      1  0.4505420000000  0.4315950000000  0.5271090000000 1.0
C      1  0.4839200000000  0.4944650000000  0.4940670000000 1.0
END
