TITL C-2441161-5029-168 0.0573898132652439 125000 -17852.290541578 0 0 134 (C1) n - 1
REM
REM in /home/bkarasulu/work/CARBON/AIRSS/Generating-Clusters/ReaxFF-fromJPCA2015/Units_Real/with-SteepDescent/Higher-Symm
REM
REM
REM
REM
REM
REM ./C.cell (1df0a924f5614ab8850e4351716899ee)
REM
REM compiler GCC version 9.2.1 20190827 (Red Hat 9.2.1-1)
REM options -cpp -mtune=generic -march=x86-64 -g -O0 -fpre-include=/usr/include/finclude/math-vector-fortran.h
REM seed -1531539521 -91040725 1118582465 -148682535 482988288 756498830 -285125454 810807844 461473811 454840785 1143768310 -2085475081 1978014578 -1337113561 420005467 1106453644 -1475799942 -940540686 1411988455 1536633889 164740368 -347042662 -587822752 -1125540609 -755787626 -2054318486 -2037868320 348633313 -1920513695 1580568190 1686864304 362875900 2091347645
REM
CELL 1.54180   50.00000   50.00000   50.00000   90.00000   90.00000   90.00000
LATT -1
SFAC C  
C      1  0.5510560000000  0.5173820000000  0.4260720000000 1.0
C      1  0.4462400000000  0.4189030000000  0.4676270000000 1.0
C      1  0.5499030000000  0.4817360000000  0.5706960000000 1.0
C      1  0.4494270000000  0.5723640000000  0.5215810000000 1.0
C      1  0.4733770000000  0.4081450000000  0.5316160000000 1.0
C      1  0.5270630000000  0.5333750000000  0.5930130000000 1.0
C      1  0.4725000000000  0.5918010000000  0.4664490000000 1.0
C      1  0.5194860000000  0.4633640000000  0.4121000000000 1.0
C      1  0.4148170000000  0.4611970000000  0.4776070000000 1.0
C      1  0.5880180000000  0.4832720000000  0.5362140000000 1.0
C      1  0.4118370000000  0.5378140000000  0.5211000000000 1.0
C      1  0.5874770000000  0.5182800000000  0.4604990000000 1.0
C      1  0.4979390000000  0.4248210000000  0.5341640000000 1.0
C      1  0.5023050000000  0.5411800000000  0.5822260000000 1.0
C      1  0.4981050000000  0.5763150000000  0.4670710000000 1.0
C      1  0.4965000000000  0.4451080000000  0.4207870000000 1.0
C      1  0.4774500000000  0.4892450000000  0.4154420000000 1.0
C      1  0.5206810000000  0.4062220000000  0.5187590000000 1.0
C      1  0.4805670000000  0.5252050000000  0.5938660000000 1.0
C      1  0.5201950000000  0.5952700000000  0.4809660000000 1.0
C      1  0.4517310000000  0.4942700000000  0.4474820000000 1.0
C      1  0.5508580000000  0.4431430000000  0.5074610000000 1.0
C      1  0.4490460000000  0.5044400000000  0.5637450000000 1.0
C      1  0.5542360000000  0.5646400000000  0.4916520000000 1.0
C      1  0.5373260000000  0.5858280000000  0.5014150000000 1.0
C      1  0.4595050000000  0.5108350000000  0.4247030000000 1.0
C      1  0.5347740000000  0.4205810000000  0.4977020000000 1.0
C      1  0.4671170000000  0.5011270000000  0.5859470000000 1.0
C      1  0.5025490000000  0.4245250000000  0.4389020000000 1.0
C      1  0.4988270000000  0.4376750000000  0.5611710000000 1.0
C      1  0.5010730000000  0.5636240000000  0.5634540000000 1.0
C      1  0.5002430000000  0.5606900000000  0.4403260000000 1.0
C      1  0.5544270000000  0.5814770000000  0.4415080000000 1.0
C      1  0.4655640000000  0.4442350000000  0.4191060000000 1.0
C      1  0.5555630000000  0.4157220000000  0.5607980000000 1.0
C      1  0.4482560000000  0.5503110000000  0.5799780000000 1.0
C      1  0.5295070000000  0.4254500000000  0.4496890000000 1.0
C      1  0.4722900000000  0.4482490000000  0.5676500000000 1.0
C      1  0.5276690000000  0.5739430000000  0.5538420000000 1.0
C      1  0.4733370000000  0.5488910000000  0.4308110000000 1.0
C      1  0.4787510000000  0.5228440000000  0.5018820000000 1.0
C      1  0.5212360000000  0.5027930000000  0.4742680000000 1.0
C      1  0.4767660000000  0.4788350000000  0.4964280000000 1.0
C      1  0.5229450000000  0.4965190000000  0.5215830000000 1.0
C      1  0.4577170000000  0.4662970000000  0.4533080000000 1.0
C      1  0.5460090000000  0.4502310000000  0.5356280000000 1.0
C      1  0.4605430000000  0.5266080000000  0.5482980000000 1.0
C      1  0.5475570000000  0.5455060000000  0.4710810000000 1.0
C      1  0.5088620000000  0.5161680000000  0.4096090000000 1.0
C      1  0.4948280000000  0.4117030000000  0.4866150000000 1.0
C      1  0.5059840000000  0.4873130000000  0.5873500000000 1.0
C      1  0.4901200000000  0.5933270000000  0.5137360000000 1.0
C      1  0.4328380000000  0.5328010000000  0.4586540000000 1.0
C      1  0.5656350000000  0.4601690000000  0.4641720000000 1.0
C      1  0.4285120000000  0.4648440000000  0.5454110000000 1.0
C      1  0.5677210000000  0.5382420000000  0.5323730000000 1.0
C      1  0.4884350000000  0.5162760000000  0.5465650000000 1.0
C      1  0.4995160000000  0.5538000000000  0.4864630000000 1.0
C      1  0.4954950000000  0.4850660000000  0.4422940000000 1.0
C      1  0.4990080000000  0.4492160000000  0.5164980000000 1.0
C      1  0.4509920000000  0.4826720000000  0.5445410000000 1.0
C      1  0.5476010000000  0.5458540000000  0.5124470000000 1.0
C      1  0.4534380000000  0.5128450000000  0.4685370000000 1.0
C      1  0.5437210000000  0.4630730000000  0.4858040000000 1.0
C      1  0.4979010000000  0.4427280000000  0.4876660000000 1.0
C      1  0.4959640000000  0.4918400000000  0.5597850000000 1.0
C      1  0.5012550000000  0.5639840000000  0.5135950000000 1.0
C      1  0.5006470000000  0.5129500000000  0.4371650000000 1.0
C      1  0.5848150000000  0.4744690000000  0.4818520000000 1.0
C      1  0.4163580000000  0.4810060000000  0.5235550000000 1.0
C      1  0.5835910000000  0.5192050000000  0.5164650000000 1.0
C      1  0.4133130000000  0.5181350000000  0.4747030000000 1.0
C      1  0.5514500000000  0.5620450000000  0.5618350000000 1.0
C      1  0.4462590000000  0.5535750000000  0.4417040000000 1.0
C      1  0.5539430000000  0.4379170000000  0.4419350000000 1.0
C      1  0.4454370000000  0.4431690000000  0.5568750000000 1.0
C      1  0.5001000000000  0.5259030000000  0.4818840000000 1.0
C      1  0.4986750000000  0.4824350000000  0.4701820000000 1.0
C      1  0.4997850000000  0.4765680000000  0.5194080000000 1.0
C      1  0.5011280000000  0.5181700000000  0.5220370000000 1.0
C      1  0.4259300000000  0.4787840000000  0.4958870000000 1.0
C      1  0.5701610000000  0.4944400000000  0.5193110000000 1.0
C      1  0.4227990000000  0.5217260000000  0.5021580000000 1.0
C      1  0.5733040000000  0.5006700000000  0.4774310000000 1.0
C      1  0.5469910000000  0.4581240000000  0.4223430000000 1.0
C      1  0.4487740000000  0.4211130000000  0.5389650000000 1.0
C      1  0.5522900000000  0.5391340000000  0.5786150000000 1.0
C      1  0.4491700000000  0.5773780000000  0.4570580000000 1.0
C      1  0.5826180000000  0.4692420000000  0.5099300000000 1.0
C      1  0.4128790000000  0.5097040000000  0.5264630000000 1.0
C      1  0.5805790000000  0.5266050000000  0.4879200000000 1.0
C      1  0.4119840000000  0.4893900000000  0.4726100000000 1.0
C      1  0.5754940000000  0.5314540000000  0.4381070000000 1.0
C      1  0.4266900000000  0.4390420000000  0.4613520000000 1.0
C      1  0.5763910000000  0.4690770000000  0.5591900000000 1.0
C      1  0.4258660000000  0.5588410000000  0.5338690000000 1.0
C      1  0.4711740000000  0.6022900000000  0.4932780000000 1.0
C      1  0.5212450000000  0.4901880000000  0.4004160000000 1.0
C      1  0.4741200000000  0.4005820000000  0.5037470000000 1.0
C      1  0.5250110000000  0.5062760000000  0.5999160000000 1.0
C      1  0.4779480000000  0.5254260000000  0.4412540000000 1.0
C      1  0.5253430000000  0.4406180000000  0.4764610000000 1.0
C      1  0.4742340000000  0.4742420000000  0.5581600000000 1.0
C      1  0.5289860000000  0.5674060000000  0.5226550000000 1.0
C      1  0.5378120000000  0.4055240000000  0.5405470000000 1.0
C      1  0.4596880000000  0.5469430000000  0.6055020000000 1.0
C      1  0.5375870000000  0.6000820000000  0.4577290000000 1.0
C      1  0.4648050000000  0.4669370000000  0.3993500000000 1.0
C      1  0.5691430000000  0.4427340000000  0.5518220000000 1.0
C      1  0.4416050000000  0.5483950000000  0.5547090000000 1.0
C      1  0.5661300000000  0.5556630000000  0.4507050000000 1.0
C      1  0.4414900000000  0.4472400000000  0.4372300000000 1.0
C      1  0.4597080000000  0.4559620000000  0.5044760000000 1.0
C      1  0.5408850000000  0.4998680000000  0.5495690000000 1.0
C      1  0.4617810000000  0.5521090000000  0.5005280000000 1.0
C      1  0.5404510000000  0.5005130000000  0.4482180000000 1.0
C      1  0.4422550000000  0.5644600000000  0.4824380000000 1.0
C      1  0.5582660000000  0.4786270000000  0.4428060000000 1.0
C      1  0.4437270000000  0.4345220000000  0.5120250000000 1.0
C      1  0.5573710000000  0.5228690000000  0.5546900000000 1.0
C      1  0.5506070000000  0.5005940000000  0.5898980000000 1.0
C      1  0.4447840000000  0.5899190000000  0.4973630000000 1.0
C      1  0.5479590000000  0.4956800000000  0.4081180000000 1.0
C      1  0.4476390000000  0.4098300000000  0.4943620000000 1.0
C      1  0.5273950000000  0.5367940000000  0.4206400000000 1.0
C      1  0.4798410000000  0.4193750000000  0.4609800000000 1.0
C      1  0.5236940000000  0.4658990000000  0.5781300000000 1.0
C      1  0.4757690000000  0.5836870000000  0.5369340000000 1.0
C      1  0.4774540000000  0.4485780000000  0.4651580000000 1.0
C      1  0.5211740000000  0.4531900000000  0.5534630000000 1.0
C      1  0.4861020000000  0.5568710000000  0.5393470000000 1.0
C      1  0.5244270000000  0.5477420000000  0.4467410000000 1.0
C      1  0.4579890000000  0.5030880000000  0.4959930000000 1.0
C      1  0.5387870000000  0.4915570000000  0.4952470000000 1.0
END
