TITL C-2441156-4686-1196 0.29869836688963 125000 -22750.6329466605 0 0 200 (C1) n - 1
REM
REM in /home/bkarasulu/work/CARBON/AIRSS/Generating-Clusters/ReaxFF-fromJPCA2015/Units_Real/with-SteepDescent/Higher-Symm
REM
REM
REM
REM
REM
REM ./C.cell (1df0a924f5614ab8850e4351716899ee)
REM
REM compiler GCC version 9.2.1 20190827 (Red Hat 9.2.1-1)
REM options -cpp -mtune=generic -march=x86-64 -g -O0 -fpre-include=/usr/include/finclude/math-vector-fortran.h
REM seed 2122660792 -342740727 -122302213 -1228262638 -518366702 -948508716 447045095 -1623785961 -948885854 1964962626 932127769 -776084083 1265190600 841308051 -1129825262 -239347202 -92992384 -2030807265 -258009607 -1199552379 -1019594914 -545190935 -325319231 -349877716 252405793 -245637608 -608639619 1947853350 667813747 1952524460 465071902 -492461349 920227587
REM
CELL 1.54180   50.00000   50.00000   50.00000   90.00000   90.00000   90.00000
LATT -1
SFAC C  
C      1  0.5662280000000  0.5068750000000  0.4981490000000 1.0
C      1  0.4637220000000  0.5034300000000  0.4516470000000 1.0
C      1  0.4636280000000  0.5058020000000  0.5554160000000 1.0
C      1  0.5587470000000  0.6011390000000  0.5093380000000 1.0
C      1  0.4774090000000  0.6028190000000  0.4440370000000 1.0
C      1  0.4613800000000  0.6006320000000  0.5493650000000 1.0
C      1  0.4659990000000  0.4643190000000  0.4306570000000 1.0
C      1  0.4548250000000  0.4615230000000  0.5640180000000 1.0
C      1  0.5830160000000  0.4629730000000  0.5054680000000 1.0
C      1  0.4618110000000  0.5288620000000  0.5378060000000 1.0
C      1  0.5580110000000  0.5332130000000  0.5024980000000 1.0
C      1  0.4740220000000  0.5304560000000  0.4491440000000 1.0
C      1  0.5136830000000  0.5482310000000  0.5821830000000 1.0
C      1  0.5614750000000  0.5502050000000  0.4454720000000 1.0
C      1  0.4208370000000  0.5479950000000  0.4726670000000 1.0
C      1  0.4508270000000  0.5213720000000  0.4854240000000 1.0
C      1  0.5072630000000  0.5218490000000  0.5505930000000 1.0
C      1  0.5372020000000  0.5174840000000  0.4677360000000 1.0
C      1  0.4983000000000  0.4951880000000  0.4760970000000 1.0
C      1  0.4805900000000  0.4931260000000  0.5173920000000 1.0
C      1  0.5242410000000  0.4945900000000  0.5112680000000 1.0
C      1  0.5233360000000  0.4416850000000  0.4383250000000 1.0
C      1  0.4314120000000  0.4403510000000  0.5122000000000 1.0
C      1  0.5424470000000  0.4418260000000  0.5519690000000 1.0
C      1  0.5207020000000  0.5460580000000  0.5171880000000 1.0
C      1  0.5040220000000  0.5462350000000  0.4744210000000 1.0
C      1  0.4776890000000  0.5494480000000  0.5098960000000 1.0
C      1  0.5287570000000  0.6034210000000  0.5084670000000 1.0
C      1  0.4906170000000  0.6061260000000  0.4669270000000 1.0
C      1  0.4722810000000  0.6089320000000  0.5248800000000 1.0
C      1  0.4606900000000  0.4731430000000  0.5918540000000 1.0
C      1  0.6014510000000  0.4752810000000  0.4870090000000 1.0
C      1  0.4406070000000  0.4757070000000  0.4200910000000 1.0
C      1  0.5462760000000  0.5904870000000  0.4698440000000 1.0
C      1  0.4441560000000  0.5854400000000  0.4740120000000 1.0
C      1  0.5065810000000  0.5884870000000  0.5660710000000 1.0
C      1  0.5707830000000  0.5891650000000  0.4858430000000 1.0
C      1  0.4531160000000  0.5876640000000  0.4468120000000 1.0
C      1  0.4780000000000  0.5867730000000  0.5689080000000 1.0
C      1  0.6087790000000  0.5234650000000  0.5157550000000 1.0
C      1  0.4578470000000  0.5261620000000  0.3937850000000 1.0
C      1  0.4295230000000  0.5252110000000  0.5885940000000 1.0
C      1  0.5145270000000  0.4808070000000  0.4620080000000 1.0
C      1  0.4631990000000  0.4808560000000  0.4999030000000 1.0
C      1  0.5196090000000  0.4821990000000  0.5362470000000 1.0
C      1  0.5342030000000  0.5953370000000  0.4447950000000 1.0
C      1  0.4422880000000  0.5979900000000  0.4997380000000 1.0
C      1  0.5298050000000  0.5975740000000  0.5536560000000 1.0
C      1  0.6157560000000  0.5244780000000  0.4896100000000 1.0
C      1  0.4327010000000  0.5244450000000  0.4046100000000 1.0
C      1  0.4504230000000  0.5232430000000  0.6050350000000 1.0
C      1  0.5516780000000  0.4434670000000  0.4267030000000 1.0
C      1  0.4103450000000  0.4428720000000  0.4927200000000 1.0
C      1  0.5386570000000  0.4446780000000  0.5815360000000 1.0
C      1  0.5628280000000  0.4185280000000  0.4646750000000 1.0
C      1  0.4357730000000  0.4184860000000  0.4636390000000 1.0
C      1  0.5009930000000  0.4176060000000  0.5691560000000 1.0
C      1  0.4312850000000  0.4257670000000  0.5545070000000 1.0
C      1  0.5768220000000  0.4258740000000  0.5324880000000 1.0
C      1  0.4868240000000  0.4258060000000  0.4207240000000 1.0
C      1  0.4244480000000  0.4911480000000  0.5592140000000 1.0
C      1  0.5913740000000  0.4909310000000  0.5372330000000 1.0
C      1  0.4876400000000  0.4913200000000  0.4077110000000 1.0
C      1  0.4239970000000  0.4529190000000  0.4279840000000 1.0
C      1  0.4757750000000  0.4505280000000  0.6004220000000 1.0
C      1  0.6006880000000  0.4520260000000  0.4701320000000 1.0
C      1  0.4573630000000  0.5445400000000  0.4699990000000 1.0
C      1  0.4982660000000  0.5482620000000  0.5563500000000 1.0
C      1  0.5475330000000  0.5427570000000  0.4781430000000 1.0
C      1  0.4721550000000  0.4467410000000  0.4068520000000 1.0
C      1  0.4295840000000  0.4480980000000  0.5728070000000 1.0
C      1  0.5965890000000  0.4461690000000  0.5252200000000 1.0
C      1  0.4949890000000  0.4510400000000  0.5400330000000 1.0
C      1  0.5364990000000  0.4480660000000  0.4868410000000 1.0
C      1  0.4649900000000  0.4514620000000  0.4691010000000 1.0
C      1  0.5388490000000  0.4887670000000  0.5590750000000 1.0
C      1  0.5352470000000  0.4894280000000  0.4341130000000 1.0
C      1  0.4256930000000  0.4868940000000  0.5002720000000 1.0
C      1  0.4131610000000  0.4705240000000  0.5759820000000 1.0
C      1  0.6089630000000  0.4694100000000  0.5376780000000 1.0
C      1  0.4777940000000  0.4681220000000  0.3880290000000 1.0
C      1  0.3958820000000  0.4799690000000  0.5556150000000 1.0
C      1  0.6000700000000  0.4812990000000  0.5619590000000 1.0
C      1  0.5029910000000  0.4793650000000  0.3827130000000 1.0
C      1  0.4247280000000  0.5084160000000  0.5197570000000 1.0
C      1  0.5531420000000  0.5121980000000  0.5494930000000 1.0
C      1  0.5182490000000  0.5119050000000  0.4277200000000 1.0
C      1  0.5569310000000  0.4669130000000  0.5492970000000 1.0
C      1  0.5170240000000  0.4664970000000  0.4255870000000 1.0
C      1  0.4306860000000  0.4669880000000  0.5229570000000 1.0
C      1  0.4480020000000  0.4812830000000  0.5459690000000 1.0
C      1  0.5612310000000  0.4726600000000  0.5202670000000 1.0
C      1  0.4915080000000  0.4774590000000  0.4329200000000 1.0
C      1  0.5841150000000  0.4613560000000  0.4482090000000 1.0
C      1  0.4107900000000  0.4620570000000  0.4523930000000 1.0
C      1  0.5030290000000  0.4604890000000  0.5996990000000 1.0
C      1  0.4964620000000  0.5933320000000  0.5168760000000 1.0
C      1  0.5253450000000  0.5852760000000  0.4870050000000 1.0
C      1  0.4875030000000  0.5887050000000  0.4885530000000 1.0
C      1  0.4515380000000  0.5537140000000  0.5494830000000 1.0
C      1  0.5655590000000  0.5569170000000  0.5180820000000 1.0
C      1  0.4804720000000  0.5534920000000  0.4317430000000 1.0
C      1  0.4145750000000  0.5093590000000  0.4442400000000 1.0
C      1  0.4926840000000  0.5077760000000  0.6008020000000 1.0
C      1  0.5880000000000  0.5082980000000  0.4562100000000 1.0
C      1  0.5500780000000  0.4554210000000  0.4017260000000 1.0
C      1  0.3900830000000  0.4563860000000  0.5068080000000 1.0
C      1  0.5602480000000  0.4575300000000  0.5930070000000 1.0
C      1  0.4797470000000  0.5181250000000  0.4059470000000 1.0
C      1  0.4288530000000  0.5197270000000  0.5658970000000 1.0
C      1  0.5889850000000  0.5161820000000  0.5263650000000 1.0
C      1  0.4896780000000  0.3958400000000  0.5189750000000 1.0
C      1  0.5258020000000  0.4003950000000  0.4991100000000 1.0
C      1  0.4822550000000  0.3948720000000  0.4908170000000 1.0
C      1  0.5876530000000  0.5398190000000  0.4539930000000 1.0
C      1  0.4154600000000  0.5392930000000  0.4458600000000 1.0
C      1  0.4943910000000  0.5368230000000  0.6008130000000 1.0
C      1  0.5768350000000  0.4673130000000  0.5732620000000 1.0
C      1  0.5268740000000  0.4688910000000  0.3955110000000 1.0
C      1  0.3979370000000  0.4697160000000  0.5290860000000 1.0
C      1  0.6067580000000  0.5010400000000  0.4763800000000 1.0
C      1  0.4270080000000  0.5011290000000  0.4195390000000 1.0
C      1  0.4652470000000  0.4992970000000  0.6037670000000 1.0
C      1  0.5128530000000  0.4166560000000  0.4280090000000 1.0
C      1  0.4278510000000  0.4148950000000  0.5268900000000 1.0
C      1  0.5564850000000  0.4164410000000  0.5508530000000 1.0
C      1  0.5742160000000  0.5213090000000  0.5665620000000 1.0
C      1  0.5202290000000  0.5213690000000  0.4009720000000 1.0
C      1  0.4027920000000  0.5215930000000  0.5322930000000 1.0
C      1  0.5328300000000  0.5285150000000  0.5383740000000 1.0
C      1  0.5150950000000  0.5276120000000  0.4519190000000 1.0
C      1  0.4464290000000  0.5244530000000  0.5131970000000 1.0
C      1  0.4201940000000  0.5781080000000  0.4897670000000 1.0
C      1  0.5327310000000  0.5800100000000  0.5757700000000 1.0
C      1  0.5482520000000  0.5743520000000  0.4316470000000 1.0
C      1  0.4536930000000  0.5653400000000  0.4281830000000 1.0
C      1  0.4623560000000  0.5628920000000  0.5748450000000 1.0
C      1  0.5835910000000  0.5652460000000  0.4963020000000 1.0
C      1  0.5215750000000  0.4522170000000  0.5334870000000 1.0
C      1  0.5182710000000  0.4539610000000  0.4657190000000 1.0
C      1  0.4722210000000  0.4531430000000  0.4973190000000 1.0
C      1  0.4393100000000  0.5036600000000  0.4657510000000 1.0
C      1  0.4909890000000  0.5008320000000  0.5635960000000 1.0
C      1  0.5601230000000  0.5008030000000  0.4711140000000 1.0
C      1  0.4962400000000  0.5359510000000  0.3947860000000 1.0
C      1  0.4116710000000  0.5370500000000  0.5550350000000 1.0
C      1  0.5905980000000  0.5356920000000  0.5480120000000 1.0
C      1  0.5380570000000  0.4030930000000  0.5315160000000 1.0
C      1  0.5164080000000  0.4012890000000  0.4521730000000 1.0
C      1  0.4503250000000  0.4010820000000  0.5143170000000 1.0
C      1  0.4962760000000  0.5628100000000  0.5301590000000 1.0
C      1  0.5269640000000  0.5578630000000  0.4901110000000 1.0
C      1  0.4783450000000  0.5605870000000  0.4834250000000 1.0
C      1  0.4319360000000  0.5464010000000  0.4241270000000 1.0
C      1  0.4675830000000  0.5447700000000  0.5975150000000 1.0
C      1  0.5982280000000  0.5467500000000  0.4792810000000 1.0
C      1  0.5849830000000  0.4869960000000  0.4349460000000 1.0
C      1  0.3987840000000  0.4873520000000  0.4592980000000 1.0
C      1  0.5132440000000  0.4872790000000  0.6045270000000 1.0
C      1  0.5048140000000  0.5944330000000  0.4454740000000 1.0
C      1  0.4510410000000  0.5911410000000  0.5251980000000 1.0
C      1  0.5433130000000  0.5888840000000  0.5300420000000 1.0
C      1  0.5573230000000  0.4240380000000  0.5116110000000 1.0
C      1  0.4803300000000  0.4292930000000  0.4525580000000 1.0
C      1  0.4579710000000  0.4340330000000  0.5469330000000 1.0
C      1  0.4775800000000  0.4246260000000  0.5868790000000 1.0
C      1  0.5909110000000  0.4262110000000  0.4778500000000 1.0
C      1  0.4344780000000  0.4266310000000  0.4346820000000 1.0
C      1  0.5126980000000  0.4270080000000  0.4963280000000 1.0
C      1  0.4973160000000  0.4138120000000  0.4706600000000 1.0
C      1  0.4896270000000  0.4381700000000  0.5141470000000 1.0
C      1  0.4296960000000  0.4472600000000  0.4702280000000 1.0
C      1  0.5104550000000  0.4458580000000  0.5760810000000 1.0
C      1  0.5598370000000  0.4468310000000  0.4540280000000 1.0
C      1  0.5733750000000  0.5589430000000  0.5459010000000 1.0
C      1  0.5007630000000  0.5594690000000  0.4118830000000 1.0
C      1  0.4245040000000  0.5598020000000  0.5418860000000 1.0
C      1  0.5569040000000  0.5644400000000  0.5685420000000 1.0
C      1  0.5296030000000  0.5642220000000  0.4125380000000 1.0
C      1  0.4135350000000  0.5646410000000  0.5159090000000 1.0
C      1  0.5366900000000  0.4003190000000  0.4722750000000 1.0
C      1  0.4545430000000  0.4034650000000  0.4884050000000 1.0
C      1  0.5093330000000  0.4036390000000  0.5377810000000 1.0
C      1  0.5611210000000  0.5288710000000  0.4232920000000 1.0
C      1  0.4028810000000  0.5285090000000  0.4860230000000 1.0
C      1  0.5354050000000  0.5275710000000  0.5898400000000 1.0
C      1  0.5425970000000  0.5392220000000  0.4036060000000 1.0
C      1  0.3970970000000  0.5410800000000  0.5117160000000 1.0
C      1  0.5607560000000  0.5401620000000  0.5841000000000 1.0
C      1  0.5336600000000  0.4989110000000  0.5884670000000 1.0
C      1  0.5617640000000  0.4994840000000  0.4244390000000 1.0
C      1  0.4016130000000  0.4989410000000  0.4850590000000 1.0
C      1  0.5409750000000  0.4754440000000  0.4997180000000 1.0
C      1  0.4739090000000  0.4845470000000  0.4720630000000 1.0
C      1  0.4921940000000  0.4802630000000  0.5405990000000 1.0
C      1  0.4572690000000  0.4138250000000  0.4455900000000 1.0
C      1  0.4727090000000  0.4144380000000  0.5613410000000 1.0
C      1  0.5713000000000  0.4146800000000  0.4910510000000 1.0
C      1  0.4995380000000  0.5331710000000  0.5006780000000 1.0
C      1  0.5008630000000  0.5054990000000  0.5011810000000 1.0
END
