TITL C-2441154-10-113 0.00266951143385752 125000 -8969.9627761724 0 0 58 (C1) n - 1
REM
REM in /home/bkarasulu/work/CARBON/AIRSS/Generating-Clusters/ReaxFF-fromJPCA2015/Units_Real/with-SteepDescent/Higher-Symm
REM
REM
REM
REM
REM
REM ./C.cell (1df0a924f5614ab8850e4351716899ee)
REM
REM compiler GCC version 9.2.1 20190827 (Red Hat 9.2.1-1)
REM options -cpp -mtune=generic -march=x86-64 -g -O0 -fpre-include=/usr/include/finclude/math-vector-fortran.h
REM seed 617309295 -582743169 455669680 -1010225245 1420285349 -1814866467 1934617851 315585834 258534091 422860637 899723682 1598562865 1724668668 -464180314 1820877380 -1736821526 -553160081 -1667299600 -1268601254 -1468734444 -1262826469 -199155816 1378473505 975571403 91585063 1278621429 1904001169 -928340510 -431604283 1868764064 -1049885842 603706159 1405234697
REM
CELL 1.54180   50.00000   50.00000   50.00000   90.00000   90.00000   90.00000
LATT -1
SFAC C  
C      1  0.5576130000000  0.5179690000000  0.5365180000000 1.0
C      1  0.5204020000000  0.5353530000000  0.5616810000000 1.0
C      1  0.5408140000000  0.5628670000000  0.5305470000000 1.0
C      1  0.4389070000000  0.5221580000000  0.4549990000000 1.0
C      1  0.4359070000000  0.4730870000000  0.5397610000000 1.0
C      1  0.5602110000000  0.4749650000000  0.4503430000000 1.0
C      1  0.4861280000000  0.5321360000000  0.4345540000000 1.0
C      1  0.4690330000000  0.4545060000000  0.5664670000000 1.0
C      1  0.5184840000000  0.4609890000000  0.4346130000000 1.0
C      1  0.4634560000000  0.5613380000000  0.4638050000000 1.0
C      1  0.4587390000000  0.4327170000000  0.5270060000000 1.0
C      1  0.5404300000000  0.4372560000000  0.4696440000000 1.0
C      1  0.5414140000000  0.4961180000000  0.5460130000000 1.0
C      1  0.4999190000000  0.5484340000000  0.5450610000000 1.0
C      1  0.5494430000000  0.5495950000000  0.5056650000000 1.0
C      1  0.4471600000000  0.4940630000000  0.4474260000000 1.0
C      1  0.4534960000000  0.4946970000000  0.5505680000000 1.0
C      1  0.5446290000000  0.4975590000000  0.4398330000000 1.0
C      1  0.5041100000000  0.5479190000000  0.4511030000000 1.0
C      1  0.4925070000000  0.4432740000000  0.5528760000000 1.0
C      1  0.4999180000000  0.4523470000000  0.4556930000000 1.0
C      1  0.4516610000000  0.5499980000000  0.4888330000000 1.0
C      1  0.4536420000000  0.4516950000000  0.5051680000000 1.0
C      1  0.5513030000000  0.4549620000000  0.4912120000000 1.0
C      1  0.5652030000000  0.4779940000000  0.4789850000000 1.0
C      1  0.4725630000000  0.4831930000000  0.5699560000000 1.0
C      1  0.4912630000000  0.5667490000000  0.4684440000000 1.0
C      1  0.4368610000000  0.4749910000000  0.5109910000000 1.0
C      1  0.4376770000000  0.5247130000000  0.4839970000000 1.0
C      1  0.5623970000000  0.5233600000000  0.5082630000000 1.0
C      1  0.5198370000000  0.4890930000000  0.4271720000000 1.0
C      1  0.5213920000000  0.5063740000000  0.5638840000000 1.0
C      1  0.4699160000000  0.4938660000000  0.4307160000000 1.0
C      1  0.5122680000000  0.5670820000000  0.5273670000000 1.0
C      1  0.5121440000000  0.4342630000000  0.4743670000000 1.0
C      1  0.4875770000000  0.4291140000000  0.5282140000000 1.0
C      1  0.5320940000000  0.4553000000000  0.5121510000000 1.0
C      1  0.4606630000000  0.5113340000000  0.5283950000000 1.0
C      1  0.5269320000000  0.5375930000000  0.4652460000000 1.0
C      1  0.4813970000000  0.4575490000000  0.4978000000000 1.0
C      1  0.4735510000000  0.5518550000000  0.5074770000000 1.0
C      1  0.5263760000000  0.5510440000000  0.4892710000000 1.0
C      1  0.5457420000000  0.5163730000000  0.4617920000000 1.0
C      1  0.5324110000000  0.4704160000000  0.5361880000000 1.0
C      1  0.4625890000000  0.4908560000000  0.4721200000000 1.0
C      1  0.4754450000000  0.5359940000000  0.5310360000000 1.0
C      1  0.4837670000000  0.4716450000000  0.4727670000000 1.0
C      1  0.5114130000000  0.4644000000000  0.5541710000000 1.0
C      1  0.4482250000000  0.5013910000000  0.5009220000000 1.0
C      1  0.4945170000000  0.5050200000000  0.4234350000000 1.0
C      1  0.5058140000000  0.4393700000000  0.5046550000000 1.0
C      1  0.5605350000000  0.5062640000000  0.4847540000000 1.0
C      1  0.5013830000000  0.4865410000000  0.5682840000000 1.0
C      1  0.5007010000000  0.5654810000000  0.4978290000000 1.0
C      1  0.5445820000000  0.4511700000000  0.4442120000000 1.0
C      1  0.4466570000000  0.4474520000000  0.5493770000000 1.0
C      1  0.4594320000000  0.5403560000000  0.4439150000000 1.0
C      1  0.5462890000000  0.5416150000000  0.5498950000000 1.0
END
