TITL C-2441155-8282-174 0.115173477103432 125000 -24013.1564104851 0 0 181 (C1) n - 1
REM
REM in /home/bkarasulu/work/CARBON/AIRSS/Generating-Clusters/ReaxFF-fromJPCA2015/Units_Real/with-SteepDescent/Higher-Symm
REM
REM
REM
REM
REM
REM ./C.cell (1df0a924f5614ab8850e4351716899ee)
REM
REM compiler GCC version 9.2.1 20190827 (Red Hat 9.2.1-1)
REM options -cpp -mtune=generic -march=x86-64 -g -O0 -fpre-include=/usr/include/finclude/math-vector-fortran.h
REM seed -1403489622 -1852626992 -1978824008 543791710 -115953954 1561365577 -1686980239 1066901493 -1837979012 -12522367 120581801 -1643066475 -1259341332 1214759534 -841738434 1340871939 -495703501 -1757526975 1792043243 -284787917 -1161162323 -1262995599 979693766 -1304567736 47306434 683701108 1422272482 -235365109 959440562 1228025395 1283151873 -1817287178 -1680625233
REM
CELL 1.54180   50.00000   50.00000   50.00000   90.00000   90.00000   90.00000
LATT -1
SFAC C  
C      1  0.4807030000000  0.5202680000000  0.5736720000000 1.0
C      1  0.4284010000000  0.4772970000000  0.5284960000000 1.0
C      1  0.4463820000000  0.5202910000000  0.4453980000000 1.0
C      1  0.5186460000000  0.4784350000000  0.4260630000000 1.0
C      1  0.5672620000000  0.5169960000000  0.4956010000000 1.0
C      1  0.5586060000000  0.4744930000000  0.5421920000000 1.0
C      1  0.4805550000000  0.5637930000000  0.4250510000000 1.0
C      1  0.5480440000000  0.4259060000000  0.4410060000000 1.0
C      1  0.5746370000000  0.5727500000000  0.5123640000000 1.0
C      1  0.5268130000000  0.4287800000000  0.5708910000000 1.0
C      1  0.4539780000000  0.5715140000000  0.5577240000000 1.0
C      1  0.4240230000000  0.4274080000000  0.4918710000000 1.0
C      1  0.5423610000000  0.4082190000000  0.5197460000000 1.0
C      1  0.5009680000000  0.5865240000000  0.5470080000000 1.0
C      1  0.4581410000000  0.4116860000000  0.5249370000000 1.0
C      1  0.4590820000000  0.5877960000000  0.4777770000000 1.0
C      1  0.4985430000000  0.4117250000000  0.4547990000000 1.0
C      1  0.5424510000000  0.5888330000000  0.4752190000000 1.0
C      1  0.4567480000000  0.4176540000000  0.5531540000000 1.0
C      1  0.4326860000000  0.5828700000000  0.4895590000000 1.0
C      1  0.4755880000000  0.4182490000000  0.4381570000000 1.0
C      1  0.5455720000000  0.5846590000000  0.4467670000000 1.0
C      1  0.5690350000000  0.4158940000000  0.5110610000000 1.0
C      1  0.5236260000000  0.5840240000000  0.5640620000000 1.0
C      1  0.5575790000000  0.4253210000000  0.4863790000000 1.0
C      1  0.5418810000000  0.5835150000000  0.5410720000000 1.0
C      1  0.4848350000000  0.4203740000000  0.5567480000000 1.0
C      1  0.4437440000000  0.5726950000000  0.5140550000000 1.0
C      1  0.4581140000000  0.4222310000000  0.4613570000000 1.0
C      1  0.5174040000000  0.5809270000000  0.4437230000000 1.0
C      1  0.4665490000000  0.4943160000000  0.5615180000000 1.0
C      1  0.4270790000000  0.5206480000000  0.4892290000000 1.0
C      1  0.4602880000000  0.4914440000000  0.4468000000000 1.0
C      1  0.5317520000000  0.5155000000000  0.4329700000000 1.0
C      1  0.5711180000000  0.4919820000000  0.4938370000000 1.0
C      1  0.5382230000000  0.5119790000000  0.5568170000000 1.0
C      1  0.4012630000000  0.5516600000000  0.5160250000000 1.0
C      1  0.4422740000000  0.4518810000000  0.4227580000000 1.0
C      1  0.5328640000000  0.5564730000000  0.4096510000000 1.0
C      1  0.5989530000000  0.4493310000000  0.4856240000000 1.0
C      1  0.5624550000000  0.5529830000000  0.5805860000000 1.0
C      1  0.4640680000000  0.4478700000000  0.5934970000000 1.0
C      1  0.4580410000000  0.5431590000000  0.4638380000000 1.0
C      1  0.5065960000000  0.4607240000000  0.4462230000000 1.0
C      1  0.5503150000000  0.5458360000000  0.4637160000000 1.0
C      1  0.5465910000000  0.4531070000000  0.5269120000000 1.0
C      1  0.5026580000000  0.5402590000000  0.5542260000000 1.0
C      1  0.4513130000000  0.4557340000000  0.5276340000000 1.0
C      1  0.4048700000000  0.4477330000000  0.5002810000000 1.0
C      1  0.4540220000000  0.5543130000000  0.4127000000000 1.0
C      1  0.5513870000000  0.4447650000000  0.4195820000000 1.0
C      1  0.5971210000000  0.5542790000000  0.5060820000000 1.0
C      1  0.5442360000000  0.4487710000000  0.5830090000000 1.0
C      1  0.4493070000000  0.5567600000000  0.5825130000000 1.0
C      1  0.5277210000000  0.4384940000000  0.4088260000000 1.0
C      1  0.5934860000000  0.5578440000000  0.4797170000000 1.0
C      1  0.5665230000000  0.4407810000000  0.5686250000000 1.0
C      1  0.4749680000000  0.5610960000000  0.5908530000000 1.0
C      1  0.4056500000000  0.4401840000000  0.5262680000000 1.0
C      1  0.4317650000000  0.5599270000000  0.4284070000000 1.0
C      1  0.5404880000000  0.5292080000000  0.4992620000000 1.0
C      1  0.5123870000000  0.4776340000000  0.5351580000000 1.0
C      1  0.4822970000000  0.5116440000000  0.5268460000000 1.0
C      1  0.4593010000000  0.4892560000000  0.4948870000000 1.0
C      1  0.4869460000000  0.5145700000000  0.4694660000000 1.0
C      1  0.5282120000000  0.4922430000000  0.4690420000000 1.0
C      1  0.4248290000000  0.4569870000000  0.5724930000000 1.0
C      1  0.4074090000000  0.5395430000000  0.4741150000000 1.0
C      1  0.4802380000000  0.4576870000000  0.4017030000000 1.0
C      1  0.5679420000000  0.5408500000000  0.4401060000000 1.0
C      1  0.5986640000000  0.4591350000000  0.5282070000000 1.0
C      1  0.5245060000000  0.5443000000000  0.6004120000000 1.0
C      1  0.6036220000000  0.5155950000000  0.4625180000000 1.0
C      1  0.5825200000000  0.4783970000000  0.5623250000000 1.0
C      1  0.4872030000000  0.5190910000000  0.6036270000000 1.0
C      1  0.4011260000000  0.4778240000000  0.5443200000000 1.0
C      1  0.4154970000000  0.5203920000000  0.4373190000000 1.0
C      1  0.5173960000000  0.4826090000000  0.3967310000000 1.0
C      1  0.5615130000000  0.4665010000000  0.4919650000000 1.0
C      1  0.5328690000000  0.5385230000000  0.5549640000000 1.0
C      1  0.4768800000000  0.4688420000000  0.5557910000000 1.0
C      1  0.4380010000000  0.5276100000000  0.5143220000000 1.0
C      1  0.4500460000000  0.4644680000000  0.4478780000000 1.0
C      1  0.5121980000000  0.5290470000000  0.4422060000000 1.0
C      1  0.5954800000000  0.5431040000000  0.4568150000000 1.0
C      1  0.5903610000000  0.4508570000000  0.5576790000000 1.0
C      1  0.4949900000000  0.5478340000000  0.6054540000000 1.0
C      1  0.4034910000000  0.4497210000000  0.5527590000000 1.0
C      1  0.4112350000000  0.5483020000000  0.4429400000000 1.0
C      1  0.5088900000000  0.4536010000000  0.3947560000000 1.0
C      1  0.5003210000000  0.4200950000000  0.5336280000000 1.0
C      1  0.4719450000000  0.5646740000000  0.5120430000000 1.0
C      1  0.4760300000000  0.4359800000000  0.4814400000000 1.0
C      1  0.5041130000000  0.5699720000000  0.4684810000000 1.0
C      1  0.5293370000000  0.4328060000000  0.4856350000000 1.0
C      1  0.5272110000000  0.5753250000000  0.5168100000000 1.0
C      1  0.5075130000000  0.4997470000000  0.6104990000000 1.0
C      1  0.4051230000000  0.4993270000000  0.5633380000000 1.0
C      1  0.3979470000000  0.5007030000000  0.4493410000000 1.0
C      1  0.4947890000000  0.5002560000000  0.3891690000000 1.0
C      1  0.5933070000000  0.5004810000000  0.4397440000000 1.0
C      1  0.5959000000000  0.5003580000000  0.5472250000000 1.0
C      1  0.5045540000000  0.5287990000000  0.5277560000000 1.0
C      1  0.4697750000000  0.4708970000000  0.5129270000000 1.0
C      1  0.4728300000000  0.5371620000000  0.4874090000000 1.0
C      1  0.4878340000000  0.4600520000000  0.4675310000000 1.0
C      1  0.5250750000000  0.5419160000000  0.4782600000000 1.0
C      1  0.5221490000000  0.4616540000000  0.5134350000000 1.0
C      1  0.4448900000000  0.4987830000000  0.5429850000000 1.0
C      1  0.4320640000000  0.4919110000000  0.4836750000000 1.0
C      1  0.4874710000000  0.4988640000000  0.4423750000000 1.0
C      1  0.5482230000000  0.4961240000000  0.4488140000000 1.0
C      1  0.5503500000000  0.5007110000000  0.5342320000000 1.0
C      1  0.5213060000000  0.4887700000000  0.5606920000000 1.0
C      1  0.5372860000000  0.5655270000000  0.5854230000000 1.0
C      1  0.4458000000000  0.4368530000000  0.5741080000000 1.0
C      1  0.4088080000000  0.5644300000000  0.4916990000000 1.0
C      1  0.4666100000000  0.4371900000000  0.4162900000000 1.0
C      1  0.5547700000000  0.5653110000000  0.4268040000000 1.0
C      1  0.5914320000000  0.4367440000000  0.5099010000000 1.0
C      1  0.5679570000000  0.4617010000000  0.4615160000000 1.0
C      1  0.5598280000000  0.5415780000000  0.5422080000000 1.0
C      1  0.4964870000000  0.4607640000000  0.5761530000000 1.0
C      1  0.4297240000000  0.5374620000000  0.5401470000000 1.0
C      1  0.4247180000000  0.4604410000000  0.4613020000000 1.0
C      1  0.4918590000000  0.5356440000000  0.4236230000000 1.0
C      1  0.4951450000000  0.4067150000000  0.4853020000000 1.0
C      1  0.5145020000000  0.5938100000000  0.4824650000000 1.0
C      1  0.5226540000000  0.4074440000000  0.4975550000000 1.0
C      1  0.5056440000000  0.5952800000000  0.5102270000000 1.0
C      1  0.4847690000000  0.4071270000000  0.5139930000000 1.0
C      1  0.4779910000000  0.5905820000000  0.4999390000000 1.0
C      1  0.5944260000000  0.5236370000000  0.5052080000000 1.0
C      1  0.5405500000000  0.4793740000000  0.5810040000000 1.0
C      1  0.4521320000000  0.5253390000000  0.5823960000000 1.0
C      1  0.4098970000000  0.4799010000000  0.4998640000000 1.0
C      1  0.4511340000000  0.5247890000000  0.4160990000000 1.0
C      1  0.5483600000000  0.4776530000000  0.4230620000000 1.0
C      1  0.3891460000000  0.5136060000000  0.4749660000000 1.0
C      1  0.4705650000000  0.4851930000000  0.3961570000000 1.0
C      1  0.5740950000000  0.5125670000000  0.4205590000000 1.0
C      1  0.6022630000000  0.4874910000000  0.5224790000000 1.0
C      1  0.5319680000000  0.5156240000000  0.6047690000000 1.0
C      1  0.4243620000000  0.4857850000000  0.5812240000000 1.0
C      1  0.5932710000000  0.4731920000000  0.4514100000000 1.0
C      1  0.5828070000000  0.5265080000000  0.5552570000000 1.0
C      1  0.4940250000000  0.4748030000000  0.6032540000000 1.0
C      1  0.4040000000000  0.5246120000000  0.5483980000000 1.0
C      1  0.4110490000000  0.4762760000000  0.4400860000000 1.0
C      1  0.5029620000000  0.5267980000000  0.3977110000000 1.0
C      1  0.5091560000000  0.5721490000000  0.4170570000000 1.0
C      1  0.5696180000000  0.4323120000000  0.4600970000000 1.0
C      1  0.5682380000000  0.5697760000000  0.5411740000000 1.0
C      1  0.4987410000000  0.4323250000000  0.5784580000000 1.0
C      1  0.4317120000000  0.5668440000000  0.5396850000000 1.0
C      1  0.4301270000000  0.4309420000000  0.4641480000000 1.0
C      1  0.4632970000000  0.5172280000000  0.5078640000000 1.0
C      1  0.4826420000000  0.4893510000000  0.4790740000000 1.0
C      1  0.5107310000000  0.5175870000000  0.4663470000000 1.0
C      1  0.5344450000000  0.4751980000000  0.4902190000000 1.0
C      1  0.5289750000000  0.5139730000000  0.5186270000000 1.0
C      1  0.4865210000000  0.4823150000000  0.5314190000000 1.0
C      1  0.4727140000000  0.5683220000000  0.4589350000000 1.0
C      1  0.5207190000000  0.4326310000000  0.4560440000000 1.0
C      1  0.5487120000000  0.5698920000000  0.4969500000000 1.0
C      1  0.5293670000000  0.4268330000000  0.5399370000000 1.0
C      1  0.4812970000000  0.5652500000000  0.5428900000000 1.0
C      1  0.4515300000000  0.4336230000000  0.5062870000000 1.0
C      1  0.4645800000000  0.4753050000000  0.6028410000000 1.0
C      1  0.3913920000000  0.5251680000000  0.5216530000000 1.0
C      1  0.4279480000000  0.4767080000000  0.4161710000000 1.0
C      1  0.5329960000000  0.5261100000000  0.4027940000000 1.0
C      1  0.6075660000000  0.4751230000000  0.4771530000000 1.0
C      1  0.5718180000000  0.5259870000000  0.5821590000000 1.0
C      1  0.5540610000000  0.5006460000000  0.4038010000000 1.0
C      1  0.6109460000000  0.5037160000000  0.4904200000000 1.0
C      1  0.5542980000000  0.5023770000000  0.5927570000000 1.0
C      1  0.4454850000000  0.4988740000000  0.5955900000000 1.0
C      1  0.3899340000000  0.5025370000000  0.5014210000000 1.0
C      1  0.4460280000000  0.4979090000000  0.4051880000000 1.0
C      1  0.5018470000000  0.4965300000000  0.4996340000000 1.0
END
