TITL C-2441162-9305-397 0.153488619768972 125000 -21526.9518177059 0 0 177 (C1) n - 1
REM
REM in /home/bkarasulu/work/CARBON/AIRSS/Generating-Clusters/ReaxFF-fromJPCA2015/Units_Real/with-SteepDescent/Higher-Symm
REM
REM
REM
REM
REM
REM ./C.cell (1df0a924f5614ab8850e4351716899ee)
REM
REM compiler GCC version 9.2.1 20190827 (Red Hat 9.2.1-1)
REM options -cpp -mtune=generic -march=x86-64 -g -O0 -fpre-include=/usr/include/finclude/math-vector-fortran.h
REM seed 1189230487 -358337740 1806788829 -1667147995 -364336701 -736794191 1666298271 1942988734 779541156 355541042 1165069846 2040913453 -1073159846 1665960259 1594214130 -1728126029 614994268 1723155873 1815866116 -80034323 -744415368 2013417555 -691981927 482362390 1999762287 -548802106 1837988687 1206794491 1174439414 493230696 -19719523 -938137556 823371657
REM
CELL 1.54180   50.00000   50.00000   50.00000   90.00000   90.00000   90.00000
LATT -1
SFAC C  
C      1  0.5186300000000  0.5147070000000  0.4726590000000 1.0
C      1  0.4682220000000  0.5224730000000  0.4980280000000 1.0
C      1  0.5167870000000  0.5147190000000  0.5292100000000 1.0
C      1  0.5183260000000  0.4851380000000  0.4726310000000 1.0
C      1  0.4685100000000  0.4767770000000  0.4982820000000 1.0
C      1  0.5170270000000  0.4847910000000  0.5290550000000 1.0
C      1  0.4808970000000  0.5146010000000  0.4724780000000 1.0
C      1  0.5314420000000  0.5226050000000  0.4981600000000 1.0
C      1  0.4837110000000  0.5147140000000  0.5290650000000 1.0
C      1  0.4811690000000  0.4851260000000  0.4724990000000 1.0
C      1  0.5310350000000  0.4768250000000  0.4982900000000 1.0
C      1  0.4833840000000  0.4849680000000  0.5290230000000 1.0
C      1  0.4433240000000  0.4786560000000  0.5577610000000 1.0
C      1  0.5822060000000  0.4810300000000  0.5223140000000 1.0
C      1  0.4782340000000  0.4801300000000  0.4185050000000 1.0
C      1  0.4389780000000  0.5177850000000  0.5601360000000 1.0
C      1  0.5831880000000  0.5183520000000  0.5221460000000 1.0
C      1  0.4781520000000  0.5193350000000  0.4182540000000 1.0
C      1  0.5596570000000  0.4806070000000  0.5597270000000 1.0
C      1  0.4167260000000  0.4812060000000  0.5222140000000 1.0
C      1  0.5214710000000  0.4802960000000  0.4183800000000 1.0
C      1  0.5589780000000  0.5198750000000  0.5596290000000 1.0
C      1  0.4180370000000  0.5185410000000  0.5220070000000 1.0
C      1  0.5216530000000  0.5193980000000  0.4185010000000 1.0
C      1  0.4103710000000  0.4723270000000  0.4756700000000 1.0
C      1  0.5237750000000  0.4725990000000  0.5887540000000 1.0
C      1  0.5652610000000  0.4730990000000  0.4350520000000 1.0
C      1  0.4106370000000  0.5275860000000  0.4756260000000 1.0
C      1  0.5235120000000  0.5272540000000  0.5887750000000 1.0
C      1  0.5657000000000  0.5269470000000  0.4349930000000 1.0
C      1  0.5891880000000  0.4724400000000  0.4761680000000 1.0
C      1  0.4766830000000  0.4727230000000  0.5892920000000 1.0
C      1  0.4344430000000  0.4730040000000  0.4345080000000 1.0
C      1  0.5888740000000  0.5274860000000  0.4758970000000 1.0
C      1  0.4763730000000  0.5269400000000  0.5886300000000 1.0
C      1  0.4341430000000  0.5270330000000  0.4346360000000 1.0
C      1  0.5271010000000  0.5579880000000  0.4137100000000 1.0
C      1  0.4106270000000  0.5575220000000  0.5207450000000 1.0
C      1  0.5612010000000  0.5585380000000  0.5663390000000 1.0
C      1  0.5268290000000  0.4418470000000  0.4136610000000 1.0
C      1  0.4108590000000  0.4417120000000  0.5210000000000 1.0
C      1  0.5617570000000  0.4410970000000  0.5660700000000 1.0
C      1  0.4731460000000  0.5581080000000  0.4137800000000 1.0
C      1  0.5894350000000  0.5572230000000  0.5202960000000 1.0
C      1  0.4391430000000  0.5577530000000  0.5666170000000 1.0
C      1  0.4732200000000  0.4415310000000  0.4136600000000 1.0
C      1  0.5896820000000  0.4425650000000  0.5205770000000 1.0
C      1  0.4358080000000  0.4410620000000  0.5676240000000 1.0
C      1  0.4192450000000  0.4649600000000  0.5642860000000 1.0
C      1  0.5963010000000  0.4656130000000  0.5380620000000 1.0
C      1  0.4846660000000  0.4641560000000  0.3982710000000 1.0
C      1  0.4199540000000  0.5355890000000  0.5643020000000 1.0
C      1  0.5965220000000  0.5341370000000  0.5379660000000 1.0
C      1  0.4845540000000  0.5356020000000  0.3980680000000 1.0
C      1  0.5803450000000  0.4641200000000  0.5643150000000 1.0
C      1  0.4040290000000  0.4655350000000  0.5376990000000 1.0
C      1  0.5153180000000  0.4643760000000  0.3982970000000 1.0
C      1  0.5801890000000  0.5356880000000  0.5642700000000 1.0
C      1  0.4032750000000  0.5345670000000  0.5379070000000 1.0
C      1  0.5154780000000  0.5354570000000  0.3981320000000 1.0
C      1  0.5153290000000  0.5940550000000  0.4756410000000 1.0
C      1  0.4711000000000  0.6020460000000  0.4997450000000 1.0
C      1  0.5174230000000  0.5904190000000  0.5239830000000 1.0
C      1  0.5152250000000  0.4053330000000  0.4757350000000 1.0
C      1  0.4709140000000  0.3982270000000  0.4999430000000 1.0
C      1  0.5195270000000  0.4097950000000  0.5242480000000 1.0
C      1  0.4848750000000  0.5943710000000  0.4754950000000 1.0
C      1  0.5285960000000  0.6026990000000  0.4998300000000 1.0
C      1  0.4828050000000  0.5907260000000  0.5242860000000 1.0
C      1  0.4848680000000  0.4054940000000  0.4755040000000 1.0
C      1  0.5287950000000  0.3969750000000  0.4999020000000 1.0
C      1  0.4807790000000  0.4106850000000  0.5246230000000 1.0
C      1  0.4354420000000  0.4274180000000  0.4783590000000 1.0
C      1  0.5213380000000  0.4230900000000  0.5705270000000 1.0
C      1  0.5507430000000  0.4254750000000  0.4506360000000 1.0
C      1  0.4354700000000  0.5725400000000  0.4784210000000 1.0
C      1  0.5215010000000  0.5765120000000  0.5703050000000 1.0
C      1  0.5506730000000  0.5741670000000  0.4508100000000 1.0
C      1  0.5652910000000  0.4262960000000  0.4804930000000 1.0
C      1  0.4783360000000  0.4238330000000  0.5712930000000 1.0
C      1  0.4490720000000  0.4254870000000  0.4499800000000 1.0
C      1  0.5652140000000  0.5734810000000  0.4805310000000 1.0
C      1  0.4787200000000  0.5759050000000  0.5713280000000 1.0
C      1  0.4491180000000  0.5742980000000  0.4500880000000 1.0
C      1  0.4858190000000  0.4026350000000  0.5538950000000 1.0
C      1  0.5539740000000  0.3997790000000  0.4859410000000 1.0
C      1  0.4602870000000  0.3997730000000  0.4598880000000 1.0
C      1  0.4860520000000  0.5976590000000  0.5545180000000 1.0
C      1  0.5538760000000  0.6000050000000  0.4859710000000 1.0
C      1  0.4603600000000  0.6000670000000  0.4597920000000 1.0
C      1  0.5156430000000  0.4018010000000  0.5529050000000 1.0
C      1  0.4460590000000  0.4008310000000  0.4852130000000 1.0
C      1  0.5403360000000  0.3996000000000  0.4601610000000 1.0
C      1  0.5156620000000  0.5983350000000  0.5533940000000 1.0
C      1  0.4462000000000  0.5991510000000  0.4852610000000 1.0
C      1  0.5403410000000  0.6001800000000  0.4600930000000 1.0
C      1  0.5556480000000  0.5799550000000  0.5478290000000 1.0
C      1  0.5150690000000  0.5791190000000  0.4292570000000 1.0
C      1  0.4281910000000  0.5800160000000  0.5258050000000 1.0
C      1  0.5559140000000  0.4195110000000  0.5480420000000 1.0
C      1  0.5150710000000  0.4205090000000  0.4290560000000 1.0
C      1  0.4285300000000  0.4192880000000  0.5261130000000 1.0
C      1  0.4442850000000  0.5806930000000  0.5502500000000 1.0
C      1  0.4851320000000  0.5790590000000  0.4294990000000 1.0
C      1  0.5701800000000  0.5793940000000  0.5217880000000 1.0
C      1  0.4436420000000  0.4190800000000  0.5512410000000 1.0
C      1  0.4851350000000  0.4206020000000  0.4294580000000 1.0
C      1  0.5706720000000  0.4202320000000  0.5217250000000 1.0
C      1  0.4552080000000  0.4774590000000  0.4598610000000 1.0
C      1  0.4874710000000  0.4754860000000  0.5575490000000 1.0
C      1  0.5574200000000  0.4783890000000  0.4822590000000 1.0
C      1  0.4549840000000  0.5222930000000  0.4599850000000 1.0
C      1  0.4871920000000  0.5244090000000  0.5576080000000 1.0
C      1  0.5577510000000  0.5213400000000  0.4822570000000 1.0
C      1  0.5444140000000  0.4775710000000  0.4601610000000 1.0
C      1  0.5132180000000  0.4755230000000  0.5576530000000 1.0
C      1  0.4420720000000  0.4781570000000  0.4818840000000 1.0
C      1  0.5446730000000  0.5222000000000  0.4601980000000 1.0
C      1  0.5131910000000  0.5242780000000  0.5577380000000 1.0
C      1  0.4419090000000  0.5217110000000  0.4819650000000 1.0
C      1  0.4141590000000  0.5572880000000  0.4659930000000 1.0
C      1  0.5144800000000  0.5580060000000  0.5900050000000 1.0
C      1  0.5720820000000  0.5572170000000  0.4418730000000 1.0
C      1  0.4141640000000  0.4426760000000  0.4658600000000 1.0
C      1  0.5148160000000  0.4418180000000  0.5900110000000 1.0
C      1  0.5720430000000  0.4426090000000  0.4418960000000 1.0
C      1  0.5857500000000  0.5576010000000  0.4674390000000 1.0
C      1  0.4851050000000  0.5572420000000  0.5908600000000 1.0
C      1  0.4274810000000  0.5571280000000  0.4402620000000 1.0
C      1  0.5857270000000  0.4422950000000  0.4674220000000 1.0
C      1  0.4853740000000  0.4422250000000  0.5907780000000 1.0
C      1  0.4275780000000  0.4428020000000  0.4401850000000 1.0
C      1  0.4490200000000  0.4847530000000  0.5850760000000 1.0
C      1  0.5999860000000  0.4852250000000  0.5023010000000 1.0
C      1  0.4523250000000  0.4852630000000  0.4122350000000 1.0
C      1  0.4482770000000  0.5140540000000  0.5850630000000 1.0
C      1  0.6011340000000  0.5146000000000  0.5020080000000 1.0
C      1  0.4518390000000  0.5145640000000  0.4120030000000 1.0
C      1  0.5517050000000  0.4850860000000  0.5851190000000 1.0
C      1  0.3998610000000  0.4851800000000  0.5021020000000 1.0
C      1  0.5475640000000  0.4851990000000  0.4127580000000 1.0
C      1  0.5516320000000  0.5146830000000  0.5856900000000 1.0
C      1  0.3993300000000  0.5145000000000  0.5018450000000 1.0
C      1  0.5481090000000  0.5145170000000  0.4124130000000 1.0
C      1  0.5156130000000  0.4387520000000  0.5231750000000 1.0
C      1  0.5149890000000  0.4384010000000  0.4744390000000 1.0
C      1  0.4743870000000  0.4501250000000  0.4997320000000 1.0
C      1  0.5163350000000  0.5606510000000  0.5245550000000 1.0
C      1  0.5150260000000  0.5613960000000  0.4744020000000 1.0
C      1  0.4745970000000  0.5493800000000  0.4990620000000 1.0
C      1  0.4865750000000  0.4397740000000  0.5228950000000 1.0
C      1  0.4846640000000  0.4388040000000  0.4745310000000 1.0
C      1  0.5255320000000  0.4500260000000  0.4995120000000 1.0
C      1  0.4841450000000  0.5601840000000  0.5246600000000 1.0
C      1  0.4847120000000  0.5612610000000  0.4741500000000 1.0
C      1  0.5250030000000  0.5495950000000  0.4992870000000 1.0
C      1  0.4400010000000  0.4451970000000  0.5174380000000 1.0
C      1  0.5440030000000  0.4470390000000  0.5421120000000 1.0
C      1  0.5152280000000  0.4482480000000  0.4415870000000 1.0
C      1  0.4395980000000  0.5541600000000  0.5174670000000 1.0
C      1  0.5428730000000  0.5525010000000  0.5414340000000 1.0
C      1  0.5151950000000  0.5514490000000  0.4417090000000 1.0
C      1  0.5603300000000  0.4476080000000  0.5175280000000 1.0
C      1  0.4546970000000  0.4489630000000  0.5442750000000 1.0
C      1  0.4851590000000  0.4483390000000  0.4418450000000 1.0
C      1  0.5601930000000  0.5517960000000  0.5175600000000 1.0
C      1  0.4566400000000  0.5528050000000  0.5419140000000 1.0
C      1  0.4852410000000  0.5512310000000  0.4417970000000 1.0
C      1  0.5004160000000  0.4860050000000  0.6026480000000 1.0
C      1  0.5000410000000  0.5138810000000  0.6024330000000 1.0
C      1  0.5890890000000  0.4860040000000  0.4487110000000 1.0
C      1  0.5893070000000  0.5138020000000  0.4485140000000 1.0
C      1  0.4105720000000  0.4860790000000  0.4483100000000 1.0
C      1  0.4104260000000  0.5137900000000  0.4482330000000 1.0
C      1  0.4393300000000  0.5009490000000  0.5360530000000 1.0
C      1  0.5602600000000  0.4991690000000  0.5375450000000 1.0
C      1  0.5001590000000  0.4996690000000  0.4287650000000 1.0
END
