TITL C-2441156-4686-1384 0.0324450592129077 125000 -16733.7222244283 0 0 120 (C1) n - 1
REM
REM in /home/bkarasulu/work/CARBON/AIRSS/Generating-Clusters/ReaxFF-fromJPCA2015/Units_Real/with-SteepDescent/Higher-Symm
REM
REM
REM
REM
REM
REM ./C.cell (1df0a924f5614ab8850e4351716899ee)
REM
REM compiler GCC version 9.2.1 20190827 (Red Hat 9.2.1-1)
REM options -cpp -mtune=generic -march=x86-64 -g -O0 -fpre-include=/usr/include/finclude/math-vector-fortran.h
REM seed 1434369615 1147899057 -1288416842 -1471473737 29269976 -47226358 1216586814 1755890507 2020072951 -542491921 -1128932316 -1308614269 628702125 445190062 1051092236 654177046 264882064 -1370405231 -1374290724 -934312261 -1484356996 2142154556 966199586 1336914723 -1078313205 928823025 -157958701 -1734029785 -509196503 517350769 -456338974 1830586273 670005372
REM
CELL 1.54180   50.00000   50.00000   50.00000   90.00000   90.00000   90.00000
LATT -1
SFAC C  
C      1  0.5577630000000  0.5524180000000  0.5624430000000 1.0
C      1  0.5797300000000  0.4937740000000  0.5620200000000 1.0
C      1  0.5412740000000  0.4380590000000  0.5632890000000 1.0
C      1  0.4729790000000  0.4256040000000  0.5632830000000 1.0
C      1  0.4271800000000  0.4796590000000  0.5621440000000 1.0
C      1  0.4294160000000  0.5420810000000  0.5619600000000 1.0
C      1  0.4915380000000  0.5712890000000  0.5632900000000 1.0
C      1  0.4818740000000  0.4635350000000  0.4723040000000 1.0
C      1  0.4631530000000  0.4904590000000  0.4694010000000 1.0
C      1  0.4708000000000  0.5187760000000  0.4707230000000 1.0
C      1  0.5058520000000  0.5487460000000  0.4789920000000 1.0
C      1  0.5271030000000  0.5305050000000  0.4747170000000 1.0
C      1  0.5292090000000  0.4855670000000  0.4697270000000 1.0
C      1  0.5124280000000  0.4606030000000  0.4723100000000 1.0
C      1  0.5579300000000  0.5521590000000  0.5053160000000 1.0
C      1  0.5712490000000  0.4841230000000  0.5077560000000 1.0
C      1  0.5369850000000  0.4326420000000  0.5103250000000 1.0
C      1  0.4674650000000  0.4353920000000  0.5099230000000 1.0
C      1  0.4260340000000  0.4818380000000  0.5073140000000 1.0
C      1  0.4411520000000  0.5400250000000  0.5091710000000 1.0
C      1  0.5004550000000  0.5746880000000  0.5125220000000 1.0
C      1  0.5071060000000  0.5483170000000  0.5266150000000 1.0
C      1  0.5313650000000  0.5318330000000  0.5275910000000 1.0
C      1  0.5443270000000  0.4784950000000  0.5265450000000 1.0
C      1  0.5248050000000  0.4556930000000  0.5242980000000 1.0
C      1  0.4669970000000  0.4643970000000  0.5272760000000 1.0
C      1  0.4516420000000  0.4910260000000  0.5205280000000 1.0
C      1  0.4589030000000  0.5211330000000  0.5263340000000 1.0
C      1  0.5320700000000  0.5089460000000  0.4021840000000 1.0
C      1  0.5275580000000  0.4798750000000  0.4018220000000 1.0
C      1  0.5011860000000  0.4660650000000  0.4015060000000 1.0
C      1  0.4744720000000  0.4778540000000  0.4016890000000 1.0
C      1  0.4669480000000  0.5067130000000  0.4011360000000 1.0
C      1  0.4849690000000  0.5298680000000  0.4036600000000 1.0
C      1  0.5137460000000  0.5317030000000  0.3983530000000 1.0
C      1  0.4918100000000  0.5437180000000  0.5703280000000 1.0
C      1  0.5459580000000  0.5315940000000  0.5788240000000 1.0
C      1  0.5562700000000  0.5045150000000  0.5750450000000 1.0
C      1  0.5295350000000  0.4632800000000  0.5705540000000 1.0
C      1  0.4846860000000  0.4497170000000  0.5723780000000 1.0
C      1  0.4460480000000  0.4964820000000  0.5769120000000 1.0
C      1  0.4465080000000  0.5259830000000  0.5750620000000 1.0
C      1  0.4166490000000  0.4584980000000  0.5241180000000 1.0
C      1  0.4133920000000  0.5394880000000  0.5201570000000 1.0
C      1  0.4779930000000  0.5895870000000  0.5251390000000 1.0
C      1  0.5561200000000  0.5752310000000  0.5234390000000 1.0
C      1  0.5927000000000  0.5015380000000  0.5193580000000 1.0
C      1  0.5622160000000  0.4267230000000  0.5257260000000 1.0
C      1  0.4816040000000  0.4124440000000  0.5225610000000 1.0
C      1  0.5781170000000  0.5041500000000  0.4606170000000 1.0
C      1  0.5557380000000  0.4369560000000  0.4614130000000 1.0
C      1  0.4854080000000  0.4175410000000  0.4606190000000 1.0
C      1  0.4256880000000  0.4590540000000  0.4600660000000 1.0
C      1  0.4244910000000  0.5307730000000  0.4605600000000 1.0
C      1  0.4780730000000  0.5809010000000  0.4612650000000 1.0
C      1  0.5495200000000  0.5713960000000  0.4587510000000 1.0
C      1  0.5283450000000  0.4915470000000  0.5037490000000 1.0
C      1  0.5104970000000  0.4696710000000  0.5048010000000 1.0
C      1  0.4844800000000  0.4711330000000  0.5034050000000 1.0
C      1  0.4717350000000  0.4936870000000  0.4993790000000 1.0
C      1  0.4767330000000  0.5209020000000  0.5012050000000 1.0
C      1  0.5010470000000  0.5335020000000  0.5030170000000 1.0
C      1  0.5289640000000  0.5184950000000  0.5022360000000 1.0
C      1  0.5013100000000  0.4252520000000  0.4378040000000 1.0
C      1  0.4404230000000  0.4528320000000  0.4370060000000 1.0
C      1  0.4258570000000  0.5158540000000  0.4361930000000 1.0
C      1  0.4717230000000  0.5653460000000  0.4387760000000 1.0
C      1  0.5323100000000  0.5691710000000  0.4362460000000 1.0
C      1  0.5677060000000  0.5175230000000  0.4378860000000 1.0
C      1  0.5592600000000  0.4526670000000  0.4377090000000 1.0
C      1  0.5642280000000  0.4837630000000  0.4748550000000 1.0
C      1  0.5301900000000  0.4335360000000  0.4754470000000 1.0
C      1  0.4679250000000  0.4364070000000  0.4758010000000 1.0
C      1  0.4306130000000  0.4840540000000  0.4732370000000 1.0
C      1  0.4482780000000  0.5393050000000  0.4743930000000 1.0
C      1  0.5028280000000  0.5772750000000  0.4752920000000 1.0
C      1  0.5571400000000  0.5484730000000  0.4751940000000 1.0
C      1  0.4300650000000  0.5615450000000  0.5224590000000 1.0
C      1  0.5052590000000  0.5951330000000  0.5291250000000 1.0
C      1  0.5784110000000  0.5581500000000  0.5225680000000 1.0
C      1  0.5916070000000  0.4741960000000  0.5237350000000 1.0
C      1  0.5391780000000  0.4116860000000  0.5279500000000 1.0
C      1  0.4541490000000  0.4182790000000  0.5253110000000 1.0
C      1  0.4041130000000  0.4831770000000  0.5240590000000 1.0
C      1  0.4092710000000  0.4974250000000  0.5476380000000 1.0
C      1  0.4403060000000  0.5652060000000  0.5484880000000 1.0
C      1  0.5159860000000  0.5844750000000  0.5528850000000 1.0
C      1  0.5800960000000  0.5430410000000  0.5462170000000 1.0
C      1  0.5824650000000  0.4672730000000  0.5493320000000 1.0
C      1  0.5244150000000  0.4168480000000  0.5511900000000 1.0
C      1  0.4471700000000  0.4296370000000  0.5500650000000 1.0
C      1  0.4742500000000  0.4966420000000  0.5698810000000 1.0
C      1  0.4706550000000  0.5240180000000  0.5593420000000 1.0
C      1  0.5165790000000  0.5291040000000  0.5736390000000 1.0
C      1  0.5197210000000  0.5149310000000  0.5482560000000 1.0
C      1  0.5363240000000  0.4899950000000  0.5575350000000 1.0
C      1  0.5068590000000  0.4570420000000  0.5569380000000 1.0
C      1  0.4819360000000  0.4731770000000  0.5550870000000 1.0
C      1  0.4568960000000  0.4742520000000  0.4254600000000 1.0
C      1  0.4491210000000  0.5024130000000  0.4243390000000 1.0
C      1  0.4883140000000  0.5435400000000  0.4289770000000 1.0
C      1  0.5196600000000  0.5434830000000  0.4273090000000 1.0
C      1  0.5406700000000  0.5195030000000  0.4275740000000 1.0
C      1  0.5350420000000  0.4644200000000  0.4260450000000 1.0
C      1  0.5091700000000  0.4508470000000  0.4258200000000 1.0
C      1  0.4294330000000  0.4530520000000  0.5492860000000 1.0
C      1  0.4117030000000  0.5266060000000  0.5460350000000 1.0
C      1  0.4666810000000  0.5781900000000  0.5490210000000 1.0
C      1  0.5428980000000  0.5741070000000  0.5494010000000 1.0
C      1  0.5888280000000  0.5152360000000  0.5444460000000 1.0
C      1  0.5665830000000  0.4427530000000  0.5494820000000 1.0
C      1  0.4953560000000  0.4141540000000  0.5479160000000 1.0
C      1  0.5127840000000  0.4154840000000  0.4613590000000 1.0
C      1  0.4424230000000  0.4379840000000  0.4615940000000 1.0
C      1  0.4160760000000  0.5054590000000  0.4605900000000 1.0
C      1  0.4551990000000  0.5656520000000  0.4625790000000 1.0
C      1  0.5253760000000  0.5841190000000  0.4587350000000 1.0
C      1  0.5760760000000  0.5310670000000  0.4619060000000 1.0
C      1  0.5712190000000  0.4590280000000  0.4623910000000 1.0
C      1  0.5097480000000  0.5072160000000  0.4621820000000 1.0
END
