TITL C-2441156-4686-399 0.00571684898365756 125000 -8016.12011716272 0 0 60 (C1) n - 1
REM
REM in /home/bkarasulu/work/CARBON/AIRSS/Generating-Clusters/ReaxFF-fromJPCA2015/Units_Real/with-SteepDescent/Higher-Symm
REM
REM
REM
REM
REM
REM ./C.cell (1df0a924f5614ab8850e4351716899ee)
REM
REM compiler GCC version 9.2.1 20190827 (Red Hat 9.2.1-1)
REM options -cpp -mtune=generic -march=x86-64 -g -O0 -fpre-include=/usr/include/finclude/math-vector-fortran.h
REM seed -2108566756 -1030344196 1029352151 180294183 -106849680 -305530534 -54125485 993345052 -1055983244 791968691 -1220817994 693998911 121058077 -947916360 -2036806647 -1363401872 -518741568 -1992431552 -1882362865 1674714673 608138120 219694782 378394226 1392691230 -753958607 -392660710 -634561489 1988039368 -1847888173 2039232163 -232390608 -1487205951 1604084663
REM
CELL 1.54180   50.00000   50.00000   50.00000   90.00000   90.00000   90.00000
LATT -1
SFAC C  
C      1  0.4738730000000  0.5046630000000  0.4624230000000 1.0
C      1  0.4888000000000  0.4781690000000  0.4679060000000 1.0
C      1  0.5187040000000  0.4841630000000  0.4670440000000 1.0
C      1  0.5210370000000  0.5134520000000  0.4670540000000 1.0
C      1  0.4941860000000  0.5261570000000  0.4641980000000 1.0
C      1  0.5234340000000  0.5137830000000  0.4375380000000 1.0
C      1  0.4964130000000  0.5253850000000  0.4343970000000 1.0
C      1  0.4777690000000  0.5025230000000  0.4333080000000 1.0
C      1  0.4921260000000  0.4771820000000  0.4361100000000 1.0
C      1  0.5205650000000  0.4840760000000  0.4374870000000 1.0
C      1  0.5311480000000  0.4620220000000  0.5323700000000 1.0
C      1  0.5459060000000  0.5138870000000  0.5320830000000 1.0
C      1  0.4917490000000  0.5426770000000  0.5340980000000 1.0
C      1  0.4395860000000  0.5203180000000  0.5545310000000 1.0
C      1  0.4648970000000  0.4725380000000  0.5332190000000 1.0
C      1  0.4968260000000  0.5668140000000  0.5203080000000 1.0
C      1  0.4341080000000  0.5117090000000  0.5283460000000 1.0
C      1  0.4650120000000  0.4478200000000  0.5202750000000 1.0
C      1  0.5456070000000  0.4425080000000  0.5186290000000 1.0
C      1  0.5631340000000  0.5300310000000  0.5201200000000 1.0
C      1  0.4821420000000  0.5729960000000  0.4975070000000 1.0
C      1  0.4321300000000  0.5082950000000  0.5005730000000 1.0
C      1  0.4605310000000  0.4382530000000  0.4990330000000 1.0
C      1  0.5597110000000  0.4490750000000  0.4950890000000 1.0
C      1  0.5707730000000  0.5285140000000  0.4975970000000 1.0
C      1  0.5097430000000  0.4301890000000  0.4800940000000 1.0
C      1  0.5652910000000  0.4929030000000  0.4657660000000 1.0
C      1  0.5331880000000  0.5607730000000  0.4795080000000 1.0
C      1  0.4508290000000  0.5534160000000  0.4594600000000 1.0
C      1  0.4427650000000  0.4686960000000  0.4640300000000 1.0
C      1  0.4251370000000  0.4724480000000  0.4445280000000 1.0
C      1  0.5058620000000  0.4239350000000  0.4539100000000 1.0
C      1  0.5769430000000  0.4806460000000  0.4456470000000 1.0
C      1  0.5383430000000  0.5655350000000  0.4529890000000 1.0
C      1  0.4479260000000  0.5585270000000  0.4362520000000 1.0
C      1  0.4390130000000  0.4544230000000  0.4894390000000 1.0
C      1  0.5373250000000  0.4326990000000  0.4943910000000 1.0
C      1  0.5709890000000  0.4996200000000  0.4943280000000 1.0
C      1  0.5098450000000  0.5728040000000  0.4964490000000 1.0
C      1  0.4441910000000  0.5336900000000  0.4953060000000 1.0
C      1  0.4638670000000  0.5287180000000  0.5709210000000 1.0
C      1  0.4644060000000  0.4752610000000  0.5631260000000 1.0
C      1  0.5136350000000  0.4653070000000  0.5690900000000 1.0
C      1  0.5466190000000  0.5019030000000  0.5588740000000 1.0
C      1  0.5127540000000  0.5397510000000  0.5688820000000 1.0
C      1  0.5379030000000  0.4737050000000  0.5581000000000 1.0
C      1  0.5331650000000  0.5242670000000  0.5690890000000 1.0
C      1  0.4863410000000  0.5453180000000  0.5619140000000 1.0
C      1  0.4549230000000  0.5017070000000  0.5724110000000 1.0
C      1  0.4903540000000  0.4677930000000  0.5700100000000 1.0
C      1  0.4829530000000  0.4328690000000  0.4863980000000 1.0
C      1  0.5727480000000  0.4731530000000  0.4854080000000 1.0
C      1  0.5547150000000  0.5452830000000  0.4841320000000 1.0
C      1  0.4587540000000  0.5558420000000  0.4862960000000 1.0
C      1  0.4294560000000  0.4807210000000  0.4845790000000 1.0
C      1  0.4785740000000  0.4930220000000  0.5167040000000 1.0
C      1  0.4940440000000  0.4759060000000  0.4989430000000 1.0
C      1  0.5200290000000  0.4792370000000  0.5114650000000 1.0
C      1  0.5217280000000  0.5068580000000  0.5178170000000 1.0
C      1  0.4954720000000  0.5160670000000  0.5225010000000 1.0
END
