TITL C-2441158-471-1229 0.0203699210918996 125000 -5522.95427081311 0 0 42 (Ci) n - 1
REM
REM in /home/bkarasulu/work/CARBON/AIRSS/Generating-Clusters/ReaxFF-fromJPCA2015/Units_Real/with-SteepDescent/Higher-Symm
REM
REM
REM
REM
REM
REM ./C.cell (1df0a924f5614ab8850e4351716899ee)
REM
REM compiler GCC version 9.2.1 20190827 (Red Hat 9.2.1-1)
REM options -cpp -mtune=generic -march=x86-64 -g -O0 -fpre-include=/usr/include/finclude/math-vector-fortran.h
REM seed -709516063 -777432531 386955309 -914139498 1639635148 -799642335 -1419574502 69785033 1177303304 1199905388 -461511792 1211251529 325179421 -1652476464 -1806621247 1394227658 -940778594 1887918264 147851847 2126338020 -361272903 -611434010 528665780 -1000245573 1886921852 -1309059739 -1411695284 827760125 326187496 290984585 -192255614 -1634505067 -1105821645
REM
CELL 1.54180   50.00000   50.00000   50.00000   90.00000   90.00000   90.00000
LATT -1
SFAC C  
C      1  0.4347670000000  0.5088580000000  0.5138560000000 1.0
C      1  0.5652050000000  0.4911480000000  0.4861570000000 1.0
C      1  0.4870080000000  0.4269220000000  0.4943730000000 1.0
C      1  0.5129050000000  0.5730280000000  0.5057800000000 1.0
C      1  0.5529790000000  0.4967560000000  0.5328280000000 1.0
C      1  0.4470190000000  0.5033580000000  0.4673360000000 1.0
C      1  0.4905370000000  0.5000730000000  0.4555260000000 1.0
C      1  0.5094450000000  0.4995730000000  0.5441490000000 1.0
C      1  0.5074030000000  0.5544100000000  0.4838610000000 1.0
C      1  0.4925700000000  0.4456970000000  0.5160080000000 1.0
C      1  0.5323050000000  0.4600810000000  0.4819200000000 1.0
C      1  0.4677170000000  0.5399130000000  0.5180170000000 1.0
C      1  0.4631230000000  0.5259660000000  0.4749770000000 1.0
C      1  0.5366590000000  0.4740670000000  0.5249800000000 1.0
C      1  0.4690250000000  0.5213470000000  0.5408980000000 1.0
C      1  0.5310330000000  0.4786510000000  0.4590670000000 1.0
C      1  0.5041730000000  0.4775890000000  0.4461580000000 1.0
C      1  0.4957730000000  0.5224630000000  0.5538500000000 1.0
C      1  0.5119640000000  0.4426340000000  0.4944290000000 1.0
C      1  0.4880310000000  0.5573530000000  0.5057000000000 1.0
C      1  0.5450350000000  0.5022670000000  0.4687450000000 1.0
C      1  0.4548960000000  0.4977430000000  0.5312400000000 1.0
C      1  0.5282900000000  0.5394990000000  0.5194940000000 1.0
C      1  0.4717280000000  0.4605780000000  0.4806140000000 1.0
C      1  0.5225240000000  0.5352710000000  0.5592730000000 1.0
C      1  0.4779150000000  0.4649910000000  0.4407900000000 1.0
C      1  0.4647810000000  0.4906290000000  0.4464330000000 1.0
C      1  0.5351300000000  0.5091840000000  0.5535240000000 1.0
C      1  0.4677150000000  0.4794400000000  0.4979790000000 1.0
C      1  0.5323370000000  0.5206070000000  0.5021120000000 1.0
C      1  0.4812220000000  0.4732200000000  0.5218870000000 1.0
C      1  0.5190740000000  0.5267010000000  0.4780190000000 1.0
C      1  0.5377450000000  0.5652330000000  0.5182140000000 1.0
C      1  0.4622270000000  0.4345790000000  0.4817780000000 1.0
C      1  0.4587090000000  0.4515200000000  0.4577760000000 1.0
C      1  0.5409570000000  0.5488520000000  0.5420970000000 1.0
C      1  0.4471620000000  0.5320040000000  0.4986160000000 1.0
C      1  0.5528130000000  0.4680110000000  0.5014050000000 1.0
C      1  0.4406510000000  0.4894640000000  0.4932030000000 1.0
C      1  0.5595120000000  0.5105140000000  0.5068270000000 1.0
C      1  0.4917120000000  0.5173000000000  0.4764970000000 1.0
C      1  0.5082250000000  0.4825050000000  0.5236050000000 1.0
END
