TITL C-2441168-9922-1074 0.00877641521753787 125000 -14763.4942547215 0 0 101 (C1) n - 1
REM
REM in /home/bkarasulu/work/CARBON/AIRSS/Generating-Clusters/ReaxFF-fromJPCA2015/Units_Real/with-SteepDescent/Higher-Symm
REM
REM
REM
REM
REM
REM ./C.cell (1df0a924f5614ab8850e4351716899ee)
REM
REM compiler GCC version 9.2.1 20190827 (Red Hat 9.2.1-1)
REM options -cpp -mtune=generic -march=x86-64 -g -O0 -fpre-include=/usr/include/finclude/math-vector-fortran.h
REM seed -1252975751 -2012908630 -2077038994 1367988768 -1109406333 1888155899 1697330575 -315467698 -1446111328 597416673 -1589803038 -475349218 -1434074680 -1468481819 1670459701 822092081 -1089218511 1494085636 834157815 -708974959 -29205856 -239555950 601554628 -2124497354 -922030036 1974252332 -155064752 1671249939 -313471820 -1446138438 343268327 -759637393 -1609901187
REM
CELL 1.54180   50.00000   50.00000   50.00000   90.00000   90.00000   90.00000
LATT -1
SFAC C  
C      1  0.5659650000000  0.4870430000000  0.4323340000000 1.0
C      1  0.5283150000000  0.4855030000000  0.5881880000000 1.0
C      1  0.4072580000000  0.4853850000000  0.4770570000000 1.0
C      1  0.5395670000000  0.4773140000000  0.4236240000000 1.0
C      1  0.5458420000000  0.4743740000000  0.5678450000000 1.0
C      1  0.4162050000000  0.4773200000000  0.5036760000000 1.0
C      1  0.4389550000000  0.5135740000000  0.4323070000000 1.0
C      1  0.5862580000000  0.5191190000000  0.4791270000000 1.0
C      1  0.4730950000000  0.5143550000000  0.5862710000000 1.0
C      1  0.4715010000000  0.4768030000000  0.4932590000000 1.0
C      1  0.5219150000000  0.4807780000000  0.4763760000000 1.0
C      1  0.5093250000000  0.4787060000000  0.5284080000000 1.0
C      1  0.4881860000000  0.4236590000000  0.4462260000000 1.0
C      1  0.5441880000000  0.4257080000000  0.5094700000000 1.0
C      1  0.4556790000000  0.4250100000000  0.5411180000000 1.0
C      1  0.5688800000000  0.4684000000000  0.5326000000000 1.0
C      1  0.4538740000000  0.4773180000000  0.5412400000000 1.0
C      1  0.4873300000000  0.4760450000000  0.4387700000000 1.0
C      1  0.5021470000000  0.5592110000000  0.5383110000000 1.0
C      1  0.4663810000000  0.5602070000000  0.4803440000000 1.0
C      1  0.5316720000000  0.5604810000000  0.4794560000000 1.0
C      1  0.5306760000000  0.5607320000000  0.5431400000000 1.0
C      1  0.4471650000000  0.5600580000000  0.5024660000000 1.0
C      1  0.5239080000000  0.5615770000000  0.4512130000000 1.0
C      1  0.4805130000000  0.4537290000000  0.4757990000000 1.0
C      1  0.5368990000000  0.4639810000000  0.4939410000000 1.0
C      1  0.4907880000000  0.4549090000000  0.5308540000000 1.0
C      1  0.5034570000000  0.4634110000000  0.4589450000000 1.0
C      1  0.5350610000000  0.4646680000000  0.5228090000000 1.0
C      1  0.4643790000000  0.4635060000000  0.5184330000000 1.0
C      1  0.5322540000000  0.4482000000000  0.5610200000000 1.0
C      1  0.4293020000000  0.4510950000000  0.4985130000000 1.0
C      1  0.5378930000000  0.4513900000000  0.4376980000000 1.0
C      1  0.5002030000000  0.5164530000000  0.4201260000000 1.0
C      1  0.5675160000000  0.5116900000000  0.5314390000000 1.0
C      1  0.4339080000000  0.5154550000000  0.5404990000000 1.0
C      1  0.5704530000000  0.5161590000000  0.4270310000000 1.0
C      1  0.5268950000000  0.5143510000000  0.5966560000000 1.0
C      1  0.4030560000000  0.5148910000000  0.4740470000000 1.0
C      1  0.4616930000000  0.4673070000000  0.5669040000000 1.0
C      1  0.4611440000000  0.4656130000000  0.4338220000000 1.0
C      1  0.5782860000000  0.4668840000000  0.5055370000000 1.0
C      1  0.4905540000000  0.5989840000000  0.5131860000000 1.0
C      1  0.4935950000000  0.5997080000000  0.4840370000000 1.0
C      1  0.5174970000000  0.5997550000000  0.5012620000000 1.0
C      1  0.4939840000000  0.5322250000000  0.5430210000000 1.0
C      1  0.4684970000000  0.5322260000000  0.4691480000000 1.0
C      1  0.5407940000000  0.5344950000000  0.4869280000000 1.0
C      1  0.5511720000000  0.5640300000000  0.5227390000000 1.0
C      1  0.4552060000000  0.5636120000000  0.5303310000000 1.0
C      1  0.4960460000000  0.5648170000000  0.4434390000000 1.0
C      1  0.4786740000000  0.4443620000000  0.5575710000000 1.0
C      1  0.4609940000000  0.4438570000000  0.4544920000000 1.0
C      1  0.5594400000000  0.4453970000000  0.4901770000000 1.0
C      1  0.4478180000000  0.5410610000000  0.5482640000000 1.0
C      1  0.4852700000000  0.5419680000000  0.4279650000000 1.0
C      1  0.5700030000000  0.5409830000000  0.5228370000000 1.0
C      1  0.5806930000000  0.5206100000000  0.4523010000000 1.0
C      1  0.4995910000000  0.5192810000000  0.5919350000000 1.0
C      1  0.4210230000000  0.5181330000000  0.4527510000000 1.0
C      1  0.5297210000000  0.5161310000000  0.4667560000000 1.0
C      1  0.5167790000000  0.5140450000000  0.5400830000000 1.0
C      1  0.4576320000000  0.5129780000000  0.4902490000000 1.0
C      1  0.5754200000000  0.4897290000000  0.4864710000000 1.0
C      1  0.4762280000000  0.4841850000000  0.5852580000000 1.0
C      1  0.4382830000000  0.4830740000000  0.4353870000000 1.0
C      1  0.5283060000000  0.5148700000000  0.5120850000000 1.0
C      1  0.4750460000000  0.5164480000000  0.5134410000000 1.0
C      1  0.5001480000000  0.5163150000000  0.4693220000000 1.0
C      1  0.5469140000000  0.5324480000000  0.5817860000000 1.0
C      1  0.4097570000000  0.5236720000000  0.5020380000000 1.0
C      1  0.5423470000000  0.5243690000000  0.4183940000000 1.0
C      1  0.4369350000000  0.5328680000000  0.4979070000000 1.0
C      1  0.5333600000000  0.5349530000000  0.4441370000000 1.0
C      1  0.5346040000000  0.5337570000000  0.5549980000000 1.0
C      1  0.5251570000000  0.5014350000000  0.4135290000000 1.0
C      1  0.5665700000000  0.4892440000000  0.5519670000000 1.0
C      1  0.4159620000000  0.5022630000000  0.5206500000000 1.0
C      1  0.4602270000000  0.5041590000000  0.5359370000000 1.0
C      1  0.4910310000000  0.5033240000000  0.4443730000000 1.0
C      1  0.5536990000000  0.4999570000000  0.5087210000000 1.0
C      1  0.5715400000000  0.4748490000000  0.4584220000000 1.0
C      1  0.5026200000000  0.4709600000000  0.5880200000000 1.0
C      1  0.4223550000000  0.4700830000000  0.4564950000000 1.0
C      1  0.5355310000000  0.4358880000000  0.5347390000000 1.0
C      1  0.4470480000000  0.4352300000000  0.5173520000000 1.0
C      1  0.5136070000000  0.4351520000000  0.4457940000000 1.0
C      1  0.5380370000000  0.5788040000000  0.4999960000000 1.0
C      1  0.4813380000000  0.5774140000000  0.5311310000000 1.0
C      1  0.4824770000000  0.5789370000000  0.4659860000000 1.0
C      1  0.4349370000000  0.4480220000000  0.4700550000000 1.0
C      1  0.5586630000000  0.4502340000000  0.4583320000000 1.0
C      1  0.5053730000000  0.4470450000000  0.5722850000000 1.0
C      1  0.5709720000000  0.5390980000000  0.4942070000000 1.0
C      1  0.4720110000000  0.5335860000000  0.5635160000000 1.0
C      1  0.4599890000000  0.5335910000000  0.4397670000000 1.0
C      1  0.4956960000000  0.4282190000000  0.5145890000000 1.0
C      1  0.4926230000000  0.4264560000000  0.4871850000000 1.0
C      1  0.5183670000000  0.4161270000000  0.5003710000000 1.0
C      1  0.4997540000000  0.5108620000000  0.4985340000000 1.0
C      1  0.4998440000000  0.4831330000000  0.5003350000000 1.0
END
