TITL C-2441169-1362-1344 0.0722491002515974 125000 -17654.261965489 0 0 128 (C1) n - 1
REM
REM in /home/bkarasulu/work/CARBON/AIRSS/Generating-Clusters/ReaxFF-fromJPCA2015/Units_Real/with-SteepDescent/Higher-Symm
REM
REM
REM
REM
REM
REM ./C.cell (1df0a924f5614ab8850e4351716899ee)
REM
REM compiler GCC version 9.2.1 20190827 (Red Hat 9.2.1-1)
REM options -cpp -mtune=generic -march=x86-64 -g -O0 -fpre-include=/usr/include/finclude/math-vector-fortran.h
REM seed -1781540837 -1087572437 -1743055681 1134003079 -181698013 1791415197 -907550079 -879820971 1557409374 -1560844944 -319475254 -322318558 -465915781 -1621245543 752771153 -407232791 680500704 -1119011287 -978479675 135679339 -1463239461 -1937556752 650826646 1977754304 1396263790 -1358545429 -831983851 -1606447014 758802709 -1035707087 527851154 -1703748316 -982490266
REM
CELL 1.54180   50.00000   50.00000   50.00000   90.00000   90.00000   90.00000
LATT -1
SFAC C  
C      1  0.4410230000000  0.5703630000000  0.4858490000000 1.0
C      1  0.5141400000000  0.5717290000000  0.4407650000000 1.0
C      1  0.5587140000000  0.5699940000000  0.5140550000000 1.0
C      1  0.4859090000000  0.5722610000000  0.5605350000000 1.0
C      1  0.4406550000000  0.5701140000000  0.5148070000000 1.0
C      1  0.5147910000000  0.5696210000000  0.5597010000000 1.0
C      1  0.5589550000000  0.5689960000000  0.4851020000000 1.0
C      1  0.4854510000000  0.5694090000000  0.4412840000000 1.0
C      1  0.4277210000000  0.4448960000000  0.4682020000000 1.0
C      1  0.5332810000000  0.4456510000000  0.4295100000000 1.0
C      1  0.5707670000000  0.4460990000000  0.5332720000000 1.0
C      1  0.4663780000000  0.4467620000000  0.5677980000000 1.0
C      1  0.4283670000000  0.4431330000000  0.5347460000000 1.0
C      1  0.5353810000000  0.4443750000000  0.5740900000000 1.0
C      1  0.5747930000000  0.4446960000000  0.4639880000000 1.0
C      1  0.4647820000000  0.4454590000000  0.4311440000000 1.0
C      1  0.5163580000000  0.4793130000000  0.5854600000000 1.0
C      1  0.4140290000000  0.4795440000000  0.5152240000000 1.0
C      1  0.4826680000000  0.4797390000000  0.4124690000000 1.0
C      1  0.5857910000000  0.4803980000000  0.4833040000000 1.0
C      1  0.5111850000000  0.4781920000000  0.4169620000000 1.0
C      1  0.4110900000000  0.4783110000000  0.4869070000000 1.0
C      1  0.4872960000000  0.4788130000000  0.5811960000000 1.0
C      1  0.5819970000000  0.4792080000000  0.5124400000000 1.0
C      1  0.4180710000000  0.5166560000000  0.5610400000000 1.0
C      1  0.4368950000000  0.5166850000000  0.4175410000000 1.0
C      1  0.5835880000000  0.5177020000000  0.4371020000000 1.0
C      1  0.5627500000000  0.5169410000000  0.5833350000000 1.0
C      1  0.4201110000000  0.5156960000000  0.4416030000000 1.0
C      1  0.4375170000000  0.5188390000000  0.5830780000000 1.0
C      1  0.5831410000000  0.5183000000000  0.5623610000000 1.0
C      1  0.5624790000000  0.5179680000000  0.4166390000000 1.0
C      1  0.4074910000000  0.4507370000000  0.5157890000000 1.0
C      1  0.4839210000000  0.4496640000000  0.4094600000000 1.0
C      1  0.5933510000000  0.4519820000000  0.4850290000000 1.0
C      1  0.5137690000000  0.4507430000000  0.5924710000000 1.0
C      1  0.4063790000000  0.4495420000000  0.4868250000000 1.0
C      1  0.4848240000000  0.4503810000000  0.5887830000000 1.0
C      1  0.5907300000000  0.4511120000000  0.5140160000000 1.0
C      1  0.5131500000000  0.4498210000000  0.4100210000000 1.0
C      1  0.5887020000000  0.5310870000000  0.4873320000000 1.0
C      1  0.5127870000000  0.5306880000000  0.5886610000000 1.0
C      1  0.4117550000000  0.5309560000000  0.5132160000000 1.0
C      1  0.4876680000000  0.5306260000000  0.4103950000000 1.0
C      1  0.5868200000000  0.5311470000000  0.5152040000000 1.0
C      1  0.5152480000000  0.5301470000000  0.4144180000000 1.0
C      1  0.4121720000000  0.5306680000000  0.4853890000000 1.0
C      1  0.4850730000000  0.5309450000000  0.5871950000000 1.0
C      1  0.5726250000000  0.4940110000000  0.5484070000000 1.0
C      1  0.4519740000000  0.4950160000000  0.5718520000000 1.0
C      1  0.4367720000000  0.4935170000000  0.4552370000000 1.0
C      1  0.5493090000000  0.4933700000000  0.4276950000000 1.0
C      1  0.5703020000000  0.4937360000000  0.4494720000000 1.0
C      1  0.4516900000000  0.4928180000000  0.4282550000000 1.0
C      1  0.4321590000000  0.4934100000000  0.5482660000000 1.0
C      1  0.5503650000000  0.4932240000000  0.5698860000000 1.0
C      1  0.5752840000000  0.4650790000000  0.4433070000000 1.0
C      1  0.5559780000000  0.4648580000000  0.5750840000000 1.0
C      1  0.4268720000000  0.4650490000000  0.5542640000000 1.0
C      1  0.4432090000000  0.4643120000000  0.4258880000000 1.0
C      1  0.5766520000000  0.4646890000000  0.5546970000000 1.0
C      1  0.5541590000000  0.4644770000000  0.4236850000000 1.0
C      1  0.4265210000000  0.4663750000000  0.4487780000000 1.0
C      1  0.4460790000000  0.4654840000000  0.5756620000000 1.0
C      1  0.5309260000000  0.4776880000000  0.5145680000000 1.0
C      1  0.4845720000000  0.4781860000000  0.5271650000000 1.0
C      1  0.4623340000000  0.4947450000000  0.4809110000000 1.0
C      1  0.5124300000000  0.4756940000000  0.4705310000000 1.0
C      1  0.5301570000000  0.4898470000000  0.4884620000000 1.0
C      1  0.4888680000000  0.4913540000000  0.4663100000000 1.0
C      1  0.4661490000000  0.4939720000000  0.5118350000000 1.0
C      1  0.5104430000000  0.4905950000000  0.5300710000000 1.0
C      1  0.5135640000000  0.5853800000000  0.4658230000000 1.0
C      1  0.5338290000000  0.5836280000000  0.5134740000000 1.0
C      1  0.4863750000000  0.5848380000000  0.5346590000000 1.0
C      1  0.4662220000000  0.5840760000000  0.4865100000000 1.0
C      1  0.5147070000000  0.5832840000000  0.5335740000000 1.0
C      1  0.5332430000000  0.5836510000000  0.4850540000000 1.0
C      1  0.4853460000000  0.5837840000000  0.4669940000000 1.0
C      1  0.4665570000000  0.5838530000000  0.5149460000000 1.0
C      1  0.5523130000000  0.5427860000000  0.5737910000000 1.0
C      1  0.4268240000000  0.5423610000000  0.5523090000000 1.0
C      1  0.4476590000000  0.5421410000000  0.4269960000000 1.0
C      1  0.5729620000000  0.5429310000000  0.4476070000000 1.0
C      1  0.5523260000000  0.5428350000000  0.4282000000000 1.0
C      1  0.4290220000000  0.5429820000000  0.4474240000000 1.0
C      1  0.4455350000000  0.5449730000000  0.5720950000000 1.0
C      1  0.5717630000000  0.5432990000000  0.5531380000000 1.0
C      1  0.5341830000000  0.5271000000000  0.5144880000000 1.0
C      1  0.4853470000000  0.5311190000000  0.5355370000000 1.0
C      1  0.4654130000000  0.5248670000000  0.4830330000000 1.0
C      1  0.5154770000000  0.5299320000000  0.4650880000000 1.0
C      1  0.5346180000000  0.5220540000000  0.4854240000000 1.0
C      1  0.4883340000000  0.5216750000000  0.4631540000000 1.0
C      1  0.4649820000000  0.5239410000000  0.5166680000000 1.0
C      1  0.5135590000000  0.5226000000000  0.5350360000000 1.0
C      1  0.4759540000000  0.4482520000000  0.5387300000000 1.0
C      1  0.4538920000000  0.4418480000000  0.4798900000000 1.0
C      1  0.5246730000000  0.4464940000000  0.4581070000000 1.0
C      1  0.5422160000000  0.4480520000000  0.5240910000000 1.0
C      1  0.4734860000000  0.4450630000000  0.4590870000000 1.0
C      1  0.4538300000000  0.4391710000000  0.5214070000000 1.0
C      1  0.5274500000000  0.4393490000000  0.5474070000000 1.0
C      1  0.5485650000000  0.4391300000000  0.4726880000000 1.0
C      1  0.5251630000000  0.5427790000000  0.5657890000000 1.0
C      1  0.4350380000000  0.5429380000000  0.5257020000000 1.0
C      1  0.4754090000000  0.5414960000000  0.4355750000000 1.0
C      1  0.5646430000000  0.5418610000000  0.4749360000000 1.0
C      1  0.5247470000000  0.5432620000000  0.4395970000000 1.0
C      1  0.4373000000000  0.5431700000000  0.4744940000000 1.0
C      1  0.4740850000000  0.5450020000000  0.5633650000000 1.0
C      1  0.5613750000000  0.5429120000000  0.5253870000000 1.0
C      1  0.5134290000000  0.4197850000000  0.4648420000000 1.0
C      1  0.5341090000000  0.4218320000000  0.5109780000000 1.0
C      1  0.4888810000000  0.4214450000000  0.5325110000000 1.0
C      1  0.4657400000000  0.4164280000000  0.4869470000000 1.0
C      1  0.5166670000000  0.4169700000000  0.5331990000000 1.0
C      1  0.5349490000000  0.4163150000000  0.4834040000000 1.0
C      1  0.4856140000000  0.4197450000000  0.4668250000000 1.0
C      1  0.4676640000000  0.4149810000000  0.5148880000000 1.0
C      1  0.6021670000000  0.5049000000000  0.4875680000000 1.0
C      1  0.5128250000000  0.5040670000000  0.6014910000000 1.0
C      1  0.3987390000000  0.5047010000000  0.5144410000000 1.0
C      1  0.4885090000000  0.5045130000000  0.3968000000000 1.0
C      1  0.5978790000000  0.5041850000000  0.5173020000000 1.0
C      1  0.5178700000000  0.5031810000000  0.4032700000000 1.0
C      1  0.3981310000000  0.5047350000000  0.4848410000000 1.0
C      1  0.4830970000000  0.5037290000000  0.5974170000000 1.0
END
