TITL C-2441169-1362-177 0.0852411591813138 125000 -20808.9385504071 0 0 155 (C1) n - 1
REM
REM in /home/bkarasulu/work/CARBON/AIRSS/Generating-Clusters/ReaxFF-fromJPCA2015/Units_Real/with-SteepDescent/Higher-Symm
REM
REM
REM
REM
REM
REM ./C.cell (1df0a924f5614ab8850e4351716899ee)
REM
REM compiler GCC version 9.2.1 20190827 (Red Hat 9.2.1-1)
REM options -cpp -mtune=generic -march=x86-64 -g -O0 -fpre-include=/usr/include/finclude/math-vector-fortran.h
REM seed -419638842 533161292 -1952166906 1800846306 476994842 -1388367234 868642218 614869565 -800321666 742466002 -135541826 2025284011 72898971 105484145 -1562138096 -430419304 -586189829 -1900944314 1013961393 1767231931 1986658625 -643762386 461361921 -1515252345 2027866146 1118866432 -900752514 -2110104206 1694724474 -2123608971 1038824310 690022867 -1195182815
REM
CELL 1.54180   50.00000   50.00000   50.00000   90.00000   90.00000   90.00000
LATT -1
SFAC C  
C      1  0.5480720000000  0.4536730000000  0.5111330000000 1.0
C      1  0.4724520000000  0.5852330000000  0.4458300000000 1.0
C      1  0.5226920000000  0.4173330000000  0.5287740000000 1.0
C      1  0.5578350000000  0.5022740000000  0.4340130000000 1.0
C      1  0.5822820000000  0.5100140000000  0.4491670000000 1.0
C      1  0.5517720000000  0.4167170000000  0.4830620000000 1.0
C      1  0.4942590000000  0.4440940000000  0.4971530000000 1.0
C      1  0.5299200000000  0.5153330000000  0.4690560000000 1.0
C      1  0.5256810000000  0.5409280000000  0.4554580000000 1.0
C      1  0.4796730000000  0.4923790000000  0.4942710000000 1.0
C      1  0.4235440000000  0.4470480000000  0.4685030000000 1.0
C      1  0.4052910000000  0.5442270000000  0.5015610000000 1.0
C      1  0.5366260000000  0.5107490000000  0.5697520000000 1.0
C      1  0.4480390000000  0.4371410000000  0.4548780000000 1.0
C      1  0.4677130000000  0.6015410000000  0.4830590000000 1.0
C      1  0.5861250000000  0.4560000000000  0.4675890000000 1.0
C      1  0.4664720000000  0.5342750000000  0.4881600000000 1.0
C      1  0.4052100000000  0.4979080000000  0.5335500000000 1.0
C      1  0.5359920000000  0.5132990000000  0.5413160000000 1.0
C      1  0.5209260000000  0.4237110000000  0.5566660000000 1.0
C      1  0.4981600000000  0.4223930000000  0.4789140000000 1.0
C      1  0.4207180000000  0.5112950000000  0.4882050000000 1.0
C      1  0.5592490000000  0.5201220000000  0.5010950000000 1.0
C      1  0.4451120000000  0.5209730000000  0.5017500000000 1.0
C      1  0.5208990000000  0.5833590000000  0.4417310000000 1.0
C      1  0.4551810000000  0.4562400000000  0.5836910000000 1.0
C      1  0.4588260000000  0.4740190000000  0.4851720000000 1.0
C      1  0.4679510000000  0.4919410000000  0.5630450000000 1.0
C      1  0.5067280000000  0.3991170000000  0.4945410000000 1.0
C      1  0.5471870000000  0.5222250000000  0.4149430000000 1.0
C      1  0.4477440000000  0.4684480000000  0.4186480000000 1.0
C      1  0.5194840000000  0.5984910000000  0.4682350000000 1.0
C      1  0.4745620000000  0.5729050000000  0.5706400000000 1.0
C      1  0.5267060000000  0.5750460000000  0.5590520000000 1.0
C      1  0.4421240000000  0.4841490000000  0.5732770000000 1.0
C      1  0.4082770000000  0.4723540000000  0.4669680000000 1.0
C      1  0.4519490000000  0.4904610000000  0.4629080000000 1.0
C      1  0.4408290000000  0.4206160000000  0.4990910000000 1.0
C      1  0.4941920000000  0.5393090000000  0.4962440000000 1.0
C      1  0.4412570000000  0.5252420000000  0.5588020000000 1.0
C      1  0.5415830000000  0.4733010000000  0.4888190000000 1.0
C      1  0.4187350000000  0.5403110000000  0.5477840000000 1.0
C      1  0.4565750000000  0.5173730000000  0.4105310000000 1.0
C      1  0.5522810000000  0.5555260000000  0.5537250000000 1.0
C      1  0.4056290000000  0.5265280000000  0.5262740000000 1.0
C      1  0.4995920000000  0.4281380000000  0.4277470000000 1.0
C      1  0.5047020000000  0.5707170000000  0.5784430000000 1.0
C      1  0.5725870000000  0.4971700000000  0.5409070000000 1.0
C      1  0.4181990000000  0.4367480000000  0.4947200000000 1.0
C      1  0.5658360000000  0.4390560000000  0.4571700000000 1.0
C      1  0.4906270000000  0.4820760000000  0.4171260000000 1.0
C      1  0.5701900000000  0.5802910000000  0.4913720000000 1.0
C      1  0.4792500000000  0.4693270000000  0.5310370000000 1.0
C      1  0.4639420000000  0.5366330000000  0.5440600000000 1.0
C      1  0.5337520000000  0.4050170000000  0.5041470000000 1.0
C      1  0.5347270000000  0.4951480000000  0.4501860000000 1.0
C      1  0.4234350000000  0.5645080000000  0.5134890000000 1.0
C      1  0.5838330000000  0.5390580000000  0.4600980000000 1.0
C      1  0.4860270000000  0.3999290000000  0.5142710000000 1.0
C      1  0.4100200000000  0.4945470000000  0.4493350000000 1.0
C      1  0.4811780000000  0.4055540000000  0.4403920000000 1.0
C      1  0.4598600000000  0.5009420000000  0.5150540000000 1.0
C      1  0.4445550000000  0.4386800000000  0.5430760000000 1.0
C      1  0.5799720000000  0.4597110000000  0.5589370000000 1.0
C      1  0.5079680000000  0.4939280000000  0.3959730000000 1.0
C      1  0.4970210000000  0.4572830000000  0.5752120000000 1.0
C      1  0.5299680000000  0.4890830000000  0.5284960000000 1.0
C      1  0.4866930000000  0.5189360000000  0.5383980000000 1.0
C      1  0.4783980000000  0.4664850000000  0.5956420000000 1.0
C      1  0.5410180000000  0.4313590000000  0.4245290000000 1.0
C      1  0.4923430000000  0.4333200000000  0.5590890000000 1.0
C      1  0.5905540000000  0.4484420000000  0.4954190000000 1.0
C      1  0.5399580000000  0.5585660000000  0.5224770000000 1.0
C      1  0.5062070000000  0.5791650000000  0.5379860000000 1.0
C      1  0.5642020000000  0.4967800000000  0.4867810000000 1.0
C      1  0.4412750000000  0.5119660000000  0.5843500000000 1.0
C      1  0.4050090000000  0.4882930000000  0.4902670000000 1.0
C      1  0.4681540000000  0.5514580000000  0.5873130000000 1.0
C      1  0.5202100000000  0.4889120000000  0.5029180000000 1.0
C      1  0.5398300000000  0.5404590000000  0.5007170000000 1.0
C      1  0.4660680000000  0.5241040000000  0.5940210000000 1.0
C      1  0.5586000000000  0.4558660000000  0.5775910000000 1.0
C      1  0.6002690000000  0.4691800000000  0.5143600000000 1.0
C      1  0.5117480000000  0.5316680000000  0.5422170000000 1.0
C      1  0.4338220000000  0.4871660000000  0.4364530000000 1.0
C      1  0.4649050000000  0.4891390000000  0.4098120000000 1.0
C      1  0.4993810000000  0.4661550000000  0.4622500000000 1.0
C      1  0.5096130000000  0.5148310000000  0.4889550000000 1.0
C      1  0.4949460000000  0.5427770000000  0.4559280000000 1.0
C      1  0.4374540000000  0.5658410000000  0.4745300000000 1.0
C      1  0.5752470000000  0.4690480000000  0.5307790000000 1.0
C      1  0.4193210000000  0.4808040000000  0.5514590000000 1.0
C      1  0.5469960000000  0.5467670000000  0.4302300000000 1.0
C      1  0.5101270000000  0.5413190000000  0.5771290000000 1.0
C      1  0.5786150000000  0.5419110000000  0.5373720000000 1.0
C      1  0.5408420000000  0.5390770000000  0.5750770000000 1.0
C      1  0.4290260000000  0.5170400000000  0.4195700000000 1.0
C      1  0.4943990000000  0.5193300000000  0.5889800000000 1.0
C      1  0.5359140000000  0.4482250000000  0.5606520000000 1.0
C      1  0.5616310000000  0.4518360000000  0.4332830000000 1.0
C      1  0.5144500000000  0.5662140000000  0.4203680000000 1.0
C      1  0.4954770000000  0.4273460000000  0.5225920000000 1.0
C      1  0.5346940000000  0.5565120000000  0.4783320000000 1.0
C      1  0.4614110000000  0.5662600000000  0.5439480000000 1.0
C      1  0.4540890000000  0.4720240000000  0.5162500000000 1.0
C      1  0.4902850000000  0.5970790000000  0.4655910000000 1.0
C      1  0.4883460000000  0.4911420000000  0.5475670000000 1.0
C      1  0.5739890000000  0.5017290000000  0.5899060000000 1.0
C      1  0.5256880000000  0.4820960000000  0.6000340000000 1.0
C      1  0.5042880000000  0.4916560000000  0.4466380000000 1.0
C      1  0.5948780000000  0.4867440000000  0.4619880000000 1.0
C      1  0.4426400000000  0.4172110000000  0.5259730000000 1.0
C      1  0.5549160000000  0.4795030000000  0.5956450000000 1.0
C      1  0.4498880000000  0.5897890000000  0.4632890000000 1.0
C      1  0.4692500000000  0.4181050000000  0.4632330000000 1.0
C      1  0.5358090000000  0.4625410000000  0.4202710000000 1.0
C      1  0.5130130000000  0.4991890000000  0.5808850000000 1.0
C      1  0.5937070000000  0.5008200000000  0.4877390000000 1.0
C      1  0.5678480000000  0.5586750000000  0.4469480000000 1.0
C      1  0.4899940000000  0.4557870000000  0.4343080000000 1.0
C      1  0.5856350000000  0.5555000000000  0.4846580000000 1.0
C      1  0.5861670000000  0.4875840000000  0.5656170000000 1.0
C      1  0.4770420000000  0.5574540000000  0.4384300000000 1.0
C      1  0.5473100000000  0.5847910000000  0.5090310000000 1.0
C      1  0.5085920000000  0.5525890000000  0.5222630000000 1.0
C      1  0.4691400000000  0.5896270000000  0.5097650000000 1.0
C      1  0.4962280000000  0.4720370000000  0.5058200000000 1.0
C      1  0.4624400000000  0.4361810000000  0.5651810000000 1.0
C      1  0.5066170000000  0.4609380000000  0.6015690000000 1.0
C      1  0.5256040000000  0.4584000000000  0.4688390000000 1.0
C      1  0.5026720000000  0.5431220000000  0.4077730000000 1.0
C      1  0.4478180000000  0.5705420000000  0.5008710000000 1.0
C      1  0.4574270000000  0.4001580000000  0.5104380000000 1.0
C      1  0.5943750000000  0.5165870000000  0.5372650000000 1.0
C      1  0.5253890000000  0.4289420000000  0.4668680000000 1.0
C      1  0.6049640000000  0.4978160000000  0.5144760000000 1.0
C      1  0.4879700000000  0.5161060000000  0.4511100000000 1.0
C      1  0.4060570000000  0.4516760000000  0.5169290000000 1.0
C      1  0.4320470000000  0.5652190000000  0.5406530000000 1.0
C      1  0.5226120000000  0.5956810000000  0.4979180000000 1.0
C      1  0.5224960000000  0.4205490000000  0.4404810000000 1.0
C      1  0.4204090000000  0.4543290000000  0.5418480000000 1.0
C      1  0.5534260000000  0.5761210000000  0.4680290000000 1.0
C      1  0.5351450000000  0.4625410000000  0.5352820000000 1.0
C      1  0.4178310000000  0.5210830000000  0.4597550000000 1.0
C      1  0.4143240000000  0.5476910000000  0.4721140000000 1.0
C      1  0.4618510000000  0.4459280000000  0.4305610000000 1.0
C      1  0.4983610000000  0.5946190000000  0.5146790000000 1.0
C      1  0.5309370000000  0.4802990000000  0.4009190000000 1.0
C      1  0.4743080000000  0.5417890000000  0.4137940000000 1.0
C      1  0.4633990000000  0.5170690000000  0.4639830000000 1.0
C      1  0.5668160000000  0.4318000000000  0.5029760000000 1.0
C      1  0.5787290000000  0.5408840000000  0.5084720000000 1.0
C      1  0.5208440000000  0.5199690000000  0.4017990000000 1.0
C      1  0.3978280000000  0.4785720000000  0.5135150000000 1.0
END
