TITL C-2441157-2117-1279 0.00355756884598161 125000 -6199.78062569851 0 0 44 (C1) n - 1
REM
REM in /home/bkarasulu/work/CARBON/AIRSS/Generating-Clusters/ReaxFF-fromJPCA2015/Units_Real/with-SteepDescent/Higher-Symm
REM
REM
REM
REM
REM
REM ./C.cell (1df0a924f5614ab8850e4351716899ee)
REM
REM compiler GCC version 9.2.1 20190827 (Red Hat 9.2.1-1)
REM options -cpp -mtune=generic -march=x86-64 -g -O0 -fpre-include=/usr/include/finclude/math-vector-fortran.h
REM seed -888692342 1085993793 -1469808748 1050088229 -110905580 -1555718597 1773476915 -637660326 -956418549 -145267495 1145502367 1933049880 913197412 -1126824154 1678893057 1875335750 1192928948 -387635094 -467752252 1349851097 -1033859389 1673455181 199687344 289602073 1656532732 -614790451 596690791 -799938066 -2132389171 -400773224 -1328448598 1208926607 1781103556
REM
CELL 1.54180   50.00000   50.00000   50.00000   90.00000   90.00000   90.00000
LATT -1
SFAC C  
C      1  0.4593600000000  0.4355250000000  0.5225300000000 1.0
C      1  0.4887110000000  0.5295640000000  0.5794660000000 1.0
C      1  0.4816670000000  0.4940380000000  0.5608390000000 1.0
C      1  0.5314650000000  0.4954760000000  0.5275980000000 1.0
C      1  0.5492150000000  0.5283950000000  0.5025490000000 1.0
C      1  0.5049220000000  0.5149170000000  0.5650460000000 1.0
C      1  0.4994870000000  0.4495810000000  0.4817530000000 1.0
C      1  0.4949010000000  0.5527650000000  0.4527750000000 1.0
C      1  0.5628700000000  0.5072670000000  0.4618650000000 1.0
C      1  0.4651960000000  0.5019870000000  0.5387650000000 1.0
C      1  0.4591680000000  0.4628240000000  0.5074770000000 1.0
C      1  0.4801920000000  0.5687370000000  0.5107280000000 1.0
C      1  0.4715720000000  0.4497140000000  0.4844220000000 1.0
C      1  0.5662730000000  0.5085790000000  0.4918800000000 1.0
C      1  0.5306320000000  0.4970290000000  0.4369420000000 1.0
C      1  0.4681070000000  0.5048190000000  0.4875840000000 1.0
C      1  0.4863660000000  0.5525110000000  0.4858510000000 1.0
C      1  0.4957900000000  0.5606810000000  0.5342790000000 1.0
C      1  0.5431920000000  0.4636510000000  0.4948250000000 1.0
C      1  0.4827720000000  0.5006960000000  0.4401490000000 1.0
C      1  0.5170070000000  0.4536190000000  0.5056200000000 1.0
C      1  0.4451310000000  0.5272570000000  0.4599110000000 1.0
C      1  0.4273600000000  0.5266520000000  0.5215120000000 1.0
C      1  0.5039020000000  0.4444590000000  0.5522990000000 1.0
C      1  0.4613290000000  0.5330360000000  0.4848690000000 1.0
C      1  0.4897650000000  0.5274890000000  0.4443980000000 1.0
C      1  0.4503760000000  0.5285730000000  0.5341850000000 1.0
C      1  0.5253240000000  0.5198220000000  0.5416390000000 1.0
C      1  0.4713330000000  0.4250600000000  0.4981000000000 1.0
C      1  0.5160240000000  0.4316640000000  0.5320190000000 1.0
C      1  0.5073940000000  0.4786990000000  0.5222260000000 1.0
C      1  0.5123950000000  0.4611980000000  0.4593130000000 1.0
C      1  0.5103770000000  0.5400700000000  0.4970360000000 1.0
C      1  0.5406480000000  0.4629470000000  0.4661250000000 1.0
C      1  0.5529680000000  0.4873970000000  0.5087050000000 1.0
C      1  0.5185840000000  0.5430210000000  0.5254820000000 1.0
C      1  0.4597240000000  0.4998380000000  0.4595350000000 1.0
C      1  0.5309670000000  0.5294950000000  0.4811310000000 1.0
C      1  0.4743420000000  0.4883830000000  0.5135310000000 1.0
C      1  0.5386360000000  0.5207130000000  0.4530090000000 1.0
C      1  0.4977400000000  0.4709380000000  0.5501070000000 1.0
C      1  0.5055660000000  0.4823630000000  0.4406770000000 1.0
C      1  0.4673650000000  0.5560550000000  0.5328950000000 1.0
C      1  0.5538860000000  0.4824980000000  0.4483510000000 1.0
END
