TITL C-2441160-1326-1257 0.00323893693956753 125000 -7498.11669892513 0 0 52 (C1) n - 1
REM
REM in /home/bkarasulu/work/CARBON/AIRSS/Generating-Clusters/ReaxFF-fromJPCA2015/Units_Real/with-SteepDescent/Higher-Symm
REM
REM
REM
REM
REM
REM ./C.cell (1df0a924f5614ab8850e4351716899ee)
REM
REM compiler GCC version 9.2.1 20190827 (Red Hat 9.2.1-1)
REM options -cpp -mtune=generic -march=x86-64 -g -O0 -fpre-include=/usr/include/finclude/math-vector-fortran.h
REM seed 27878819 1248274313 97522980 -396593753 -1015107165 1504245729 -1855313695 1369665632 88491137 -1590596677 149016513 1340506177 1455615754 1879743825 -963355614 30057606 377716524 195214917 14001409 1744856777 -388100465 -1182687709 1356425735 -304242426 449943222 242569703 1825912619 -988776131 -329241422 -362097291 -581781776 1816740620 -1185301819
REM
CELL 1.54180   50.00000   50.00000   50.00000   90.00000   90.00000   90.00000
LATT -1
SFAC C  
C      1  0.4682280000000  0.5051350000000  0.4494760000000 1.0
C      1  0.4662780000000  0.4497790000000  0.5142690000000 1.0
C      1  0.4626870000000  0.5370530000000  0.5347240000000 1.0
C      1  0.5336020000000  0.5032260000000  0.4507480000000 1.0
C      1  0.5294040000000  0.4602840000000  0.5184250000000 1.0
C      1  0.5314580000000  0.5427140000000  0.5274600000000 1.0
C      1  0.4731690000000  0.4478490000000  0.4862120000000 1.0
C      1  0.4747810000000  0.5139950000000  0.5473340000000 1.0
C      1  0.4795800000000  0.5293580000000  0.4679040000000 1.0
C      1  0.5248890000000  0.4515160000000  0.4895360000000 1.0
C      1  0.5268870000000  0.5183610000000  0.5436480000000 1.0
C      1  0.5306950000000  0.5312740000000  0.4631300000000 1.0
C      1  0.4695160000000  0.4633810000000  0.4397550000000 1.0
C      1  0.4750080000000  0.4648430000000  0.5591730000000 1.0
C      1  0.4723760000000  0.5678980000000  0.4988990000000 1.0
C      1  0.4982540000000  0.4610290000000  0.4479620000000 1.0
C      1  0.5014300000000  0.4783210000000  0.5601470000000 1.0
C      1  0.4997320000000  0.5662180000000  0.4871090000000 1.0
C      1  0.5541190000000  0.4845150000000  0.4619500000000 1.0
C      1  0.5535330000000  0.4768830000000  0.5241240000000 1.0
C      1  0.5538510000000  0.5471020000000  0.5083120000000 1.0
C      1  0.4502780000000  0.4918550000000  0.4676800000000 1.0
C      1  0.4502030000000  0.4726930000000  0.5207500000000 1.0
C      1  0.4451190000000  0.5295730000000  0.5126080000000 1.0
C      1  0.4236570000000  0.5088680000000  0.5174340000000 1.0
C      1  0.4299580000000  0.5100280000000  0.4775650000000 1.0
C      1  0.4266800000000  0.4780100000000  0.5033500000000 1.0
C      1  0.5800310000000  0.5329140000000  0.5124670000000 1.0
C      1  0.5742560000000  0.4948240000000  0.4800600000000 1.0
C      1  0.5745220000000  0.4752010000000  0.5031710000000 1.0
C      1  0.4565300000000  0.4888030000000  0.5466930000000 1.0
C      1  0.4538640000000  0.5442970000000  0.4871330000000 1.0
C      1  0.4532270000000  0.4603580000000  0.4663680000000 1.0
C      1  0.5511020000000  0.4998700000000  0.5433190000000 1.0
C      1  0.5535130000000  0.5394750000000  0.4796320000000 1.0
C      1  0.5485860000000  0.4567170000000  0.4728280000000 1.0
C      1  0.4285350000000  0.5379950000000  0.4740500000000 1.0
C      1  0.4228850000000  0.4623450000000  0.4792390000000 1.0
C      1  0.4263420000000  0.4997740000000  0.5448530000000 1.0
C      1  0.5779650000000  0.5234330000000  0.4835940000000 1.0
C      1  0.5733750000000  0.4489480000000  0.4883590000000 1.0
C      1  0.5720590000000  0.5143840000000  0.5322290000000 1.0
C      1  0.5115580000000  0.5603730000000  0.5134850000000 1.0
C      1  0.5151230000000  0.4830640000000  0.4472450000000 1.0
C      1  0.5107780000000  0.4631420000000  0.5387800000000 1.0
C      1  0.4706830000000  0.5663850000000  0.5283280000000 1.0
C      1  0.4699930000000  0.4889660000000  0.4240020000000 1.0
C      1  0.4765780000000  0.4401700000000  0.5424290000000 1.0
C      1  0.5059890000000  0.5458130000000  0.4660920000000 1.0
C      1  0.4998910000000  0.4485360000000  0.4758040000000 1.0
C      1  0.5021040000000  0.5082910000000  0.5541810000000 1.0
C      1  0.4932000000000  0.5117180000000  0.4858800000000 1.0
END
