TITL C-2441165-58-1150 0.227615337156756 125000 -20258.8545240162 0 0 176 (C1) n - 1
REM
REM in /home/bkarasulu/work/CARBON/AIRSS/Generating-Clusters/ReaxFF-fromJPCA2015/Units_Real/with-SteepDescent/Higher-Symm
REM
REM
REM
REM
REM
REM ./C.cell (1df0a924f5614ab8850e4351716899ee)
REM
REM compiler GCC version 9.2.1 20190827 (Red Hat 9.2.1-1)
REM options -cpp -mtune=generic -march=x86-64 -g -O0 -fpre-include=/usr/include/finclude/math-vector-fortran.h
REM seed 236453464 1267112983 -1820142723 -217244138 -256983063 1506507533 541453460 1100797414 1503542876 339431540 -2067360113 -1435901977 1408408684 111844565 -402280127 1421500913 -100802817 1729006698 -183116608 -1599423844 1766195305 -318646805 -1152285899 2092433904 405503116 462091807 -1071602572 1305263614 -249281860 -45063748 -1465664245 -369084418 682461932
REM
CELL 1.54180   50.00000   50.00000   50.00000   90.00000   90.00000   90.00000
LATT -1
SFAC C  
C      1  0.4315930000000  0.5348950000000  0.4668090000000 1.0
C      1  0.5657970000000  0.5436190000000  0.4653310000000 1.0
C      1  0.5045300000000  0.4227580000000  0.4681440000000 1.0
C      1  0.4310230000000  0.4670710000000  0.5372590000000 1.0
C      1  0.5650490000000  0.4584570000000  0.5342260000000 1.0
C      1  0.5075360000000  0.5790090000000  0.5320380000000 1.0
C      1  0.6115400000000  0.5058890000000  0.5113780000000 1.0
C      1  0.4473690000000  0.3996310000000  0.5119530000000 1.0
C      1  0.4367310000000  0.5944110000000  0.5106000000000 1.0
C      1  0.6070200000000  0.4947710000000  0.4920240000000 1.0
C      1  0.4498770000000  0.5945980000000  0.4919190000000 1.0
C      1  0.4426270000000  0.4067640000000  0.4913450000000 1.0
C      1  0.4517300000000  0.4397240000000  0.5671060000000 1.0
C      1  0.4745140000000  0.5688460000000  0.5649540000000 1.0
C      1  0.5797810000000  0.4876040000000  0.5626090000000 1.0
C      1  0.4490270000000  0.5630190000000  0.4372040000000 1.0
C      1  0.4751330000000  0.4289400000000  0.4346480000000 1.0
C      1  0.5782260000000  0.5128360000000  0.4378370000000 1.0
C      1  0.4970610000000  0.4132300000000  0.5152600000000 1.0
C      1  0.4276870000000  0.5433450000000  0.5152790000000 1.0
C      1  0.5727460000000  0.5405650000000  0.5155340000000 1.0
C      1  0.4980070000000  0.5874970000000  0.4859080000000 1.0
C      1  0.4254250000000  0.4540840000000  0.4858550000000 1.0
C      1  0.5706390000000  0.4602600000000  0.4858180000000 1.0
C      1  0.5066560000000  0.4300830000000  0.5793450000000 1.0
C      1  0.4310100000000  0.5290690000000  0.5813910000000 1.0
C      1  0.5610560000000  0.5428360000000  0.5832830000000 1.0
C      1  0.5055170000000  0.5729310000000  0.4208040000000 1.0
C      1  0.4333290000000  0.4701880000000  0.4206620000000 1.0
C      1  0.5606150000000  0.4570010000000  0.4172130000000 1.0
C      1  0.5942050000000  0.5450430000000  0.4706710000000 1.0
C      1  0.4915800000000  0.3962700000000  0.4668240000000 1.0
C      1  0.4143960000000  0.5581640000000  0.4703480000000 1.0
C      1  0.5938900000000  0.4551900000000  0.5303480000000 1.0
C      1  0.4911490000000  0.6047110000000  0.5315270000000 1.0
C      1  0.4142420000000  0.4415160000000  0.5352480000000 1.0
C      1  0.4119630000000  0.4624670000000  0.4602440000000 1.0
C      1  0.5119070000000  0.5951830000000  0.4602860000000 1.0
C      1  0.5754150000000  0.4415510000000  0.4626420000000 1.0
C      1  0.4108460000000  0.5371900000000  0.5369820000000 1.0
C      1  0.5121630000000  0.4054170000000  0.5399560000000 1.0
C      1  0.5774950000000  0.5575610000000  0.5391080000000 1.0
C      1  0.6008720000000  0.4766910000000  0.5481350000000 1.0
C      1  0.4318490000000  0.4264780000000  0.5532510000000 1.0
C      1  0.4716510000000  0.5941340000000  0.5521560000000 1.0
C      1  0.5998390000000  0.5236640000000  0.4519250000000 1.0
C      1  0.4294160000000  0.5745180000000  0.4526010000000 1.0
C      1  0.4705890000000  0.4037620000000  0.4474300000000 1.0
C      1  0.5076780000000  0.5383160000000  0.5542390000000 1.0
C      1  0.5276550000000  0.4726930000000  0.5570220000000 1.0
C      1  0.4652820000000  0.4901090000000  0.5580630000000 1.0
C      1  0.5053530000000  0.4663110000000  0.4435480000000 1.0
C      1  0.5284660000000  0.5306780000000  0.4459770000000 1.0
C      1  0.4647940000000  0.5067100000000  0.4456860000000 1.0
C      1  0.5216200000000  0.5174530000000  0.4020800000000 1.0
C      1  0.5048200000000  0.4658680000000  0.3978620000000 1.0
C      1  0.4715650000000  0.5100220000000  0.3993500000000 1.0
C      1  0.5239010000000  0.4814450000000  0.6031690000000 1.0
C      1  0.4971290000000  0.5263770000000  0.5977880000000 1.0
C      1  0.4701460000000  0.4806390000000  0.6037590000000 1.0
C      1  0.5422900000000  0.4154880000000  0.4991040000000 1.0
C      1  0.3968580000000  0.5196280000000  0.4924660000000 1.0
C      1  0.5702900000000  0.5804410000000  0.4916020000000 1.0
C      1  0.5437670000000  0.5871950000000  0.5024440000000 1.0
C      1  0.4056470000000  0.4934220000000  0.5022080000000 1.0
C      1  0.5696690000000  0.4201330000000  0.5088000000000 1.0
C      1  0.5280040000000  0.5200310000000  0.4877520000000 1.0
C      1  0.5113540000000  0.4762840000000  0.4928570000000 1.0
C      1  0.4799840000000  0.5073670000000  0.4845900000000 1.0
C      1  0.5126440000000  0.4857420000000  0.5172950000000 1.0
C      1  0.5161870000000  0.5299420000000  0.5086710000000 1.0
C      1  0.4703260000000  0.5038170000000  0.5089570000000 1.0
C      1  0.5388700000000  0.5470390000000  0.5129170000000 1.0
C      1  0.5249270000000  0.4376780000000  0.5103980000000 1.0
C      1  0.4428720000000  0.5098550000000  0.5132240000000 1.0
C      1  0.5347780000000  0.4559090000000  0.4874830000000 1.0
C      1  0.5271140000000  0.5652000000000  0.4905980000000 1.0
C      1  0.4335490000000  0.4885550000000  0.4912470000000 1.0
C      1  0.5540880000000  0.5744840000000  0.5499530000000 1.0
C      1  0.5380660000000  0.4160830000000  0.5503320000000 1.0
C      1  0.4063640000000  0.5096470000000  0.5475110000000 1.0
C      1  0.5528050000000  0.4259360000000  0.4521080000000 1.0
C      1  0.5380380000000  0.5842620000000  0.4491880000000 1.0
C      1  0.4089040000000  0.4909420000000  0.4502090000000 1.0
C      1  0.4286640000000  0.5470670000000  0.5582400000000 1.0
C      1  0.5786820000000  0.5372290000000  0.5601450000000 1.0
C      1  0.4926500000000  0.4127520000000  0.5600910000000 1.0
C      1  0.4271500000000  0.4485090000000  0.4403610000000 1.0
C      1  0.5767520000000  0.4617990000000  0.4412240000000 1.0
C      1  0.4918480000000  0.5879590000000  0.4414650000000 1.0
C      1  0.4213010000000  0.5034500000000  0.5719870000000 1.0
C      1  0.5435890000000  0.5645780000000  0.5770650000000 1.0
C      1  0.5343200000000  0.4313860000000  0.5746950000000 1.0
C      1  0.4236320000000  0.4965760000000  0.4261520000000 1.0
C      1  0.5417550000000  0.4371210000000  0.4266620000000 1.0
C      1  0.5329320000000  0.5679530000000  0.4262060000000 1.0
C      1  0.4639770000000  0.4573380000000  0.5858590000000 1.0
C      1  0.4881290000000  0.5570140000000  0.5884690000000 1.0
C      1  0.5587980000000  0.4867210000000  0.5806010000000 1.0
C      1  0.4576830000000  0.5448550000000  0.4179500000000 1.0
C      1  0.4752000000000  0.4479240000000  0.4135760000000 1.0
C      1  0.5599970000000  0.5124530000000  0.4171260000000 1.0
C      1  0.4600340000000  0.4174010000000  0.5495650000000 1.0
C      1  0.4475370000000  0.5761260000000  0.5505880000000 1.0
C      1  0.5932570000000  0.5065490000000  0.5485430000000 1.0
C      1  0.4598430000000  0.5836260000000  0.4525330000000 1.0
C      1  0.4483830000000  0.4236850000000  0.4508810000000 1.0
C      1  0.5926100000000  0.4940730000000  0.4521970000000 1.0
C      1  0.4599260000000  0.5313930000000  0.5816700000000 1.0
C      1  0.5467670000000  0.5154330000000  0.5821860000000 1.0
C      1  0.4911240000000  0.4564730000000  0.5735080000000 1.0
C      1  0.4612620000000  0.4689030000000  0.4270840000000 1.0
C      1  0.5491660000000  0.4849180000000  0.4139530000000 1.0
C      1  0.4871580000000  0.5475700000000  0.4201030000000 1.0
C      1  0.5356090000000  0.5878390000000  0.5302470000000 1.0
C      1  0.5593420000000  0.4289060000000  0.5344440000000 1.0
C      1  0.4078800000000  0.4869360000000  0.5299340000000 1.0
C      1  0.5336230000000  0.4157700000000  0.4713360000000 1.0
C      1  0.5602340000000  0.5729240000000  0.4654310000000 1.0
C      1  0.4095390000000  0.5149790000000  0.4669770000000 1.0
C      1  0.5890030000000  0.5579210000000  0.4976180000000 1.0
C      1  0.4950980000000  0.3905570000000  0.4962610000000 1.0
C      1  0.4064120000000  0.5471430000000  0.4974780000000 1.0
C      1  0.5879870000000  0.4428480000000  0.5032780000000 1.0
C      1  0.4941920000000  0.6088570000000  0.5041550000000 1.0
C      1  0.4078800000000  0.4408610000000  0.5061850000000 1.0
C      1  0.4804960000000  0.5355120000000  0.4763750000000 1.0
C      1  0.5468080000000  0.4938150000000  0.4679000000000 1.0
C      1  0.4746690000000  0.4636650000000  0.4734340000000 1.0
C      1  0.4802760000000  0.4597040000000  0.5258510000000 1.0
C      1  0.5453850000000  0.5045410000000  0.5327680000000 1.0
C      1  0.4747990000000  0.5408260000000  0.5292440000000 1.0
C      1  0.5832070000000  0.4879330000000  0.4790820000000 1.0
C      1  0.4514560000000  0.4318860000000  0.4785800000000 1.0
C      1  0.4665550000000  0.5746770000000  0.4791620000000 1.0
C      1  0.5832130000000  0.5084330000000  0.5215780000000 1.0
C      1  0.4426750000000  0.5688740000000  0.5218950000000 1.0
C      1  0.4641050000000  0.4231330000000  0.5219400000000 1.0
C      1  0.5349480000000  0.5458140000000  0.5411570000000 1.0
C      1  0.5216060000000  0.4514740000000  0.5376210000000 1.0
C      1  0.4495260000000  0.5083930000000  0.5420380000000 1.0
C      1  0.5291590000000  0.4597190000000  0.4591530000000 1.0
C      1  0.5205450000000  0.5506750000000  0.4642480000000 1.0
C      1  0.4467040000000  0.4945660000000  0.4645410000000 1.0
C      1  0.4934590000000  0.4830590000000  0.5340300000000 1.0
C      1  0.4840020000000  0.5151910000000  0.5261910000000 1.0
C      1  0.5202710000000  0.5079460000000  0.5248960000000 1.0
C      1  0.5113560000000  0.5100690000000  0.4513130000000 1.0
C      1  0.4888880000000  0.4831350000000  0.4790680000000 1.0
C      1  0.5223610000000  0.4994340000000  0.4748460000000 1.0
C      1  0.5561820000000  0.5178170000000  0.4809400000000 1.0
C      1  0.4824070000000  0.4370850000000  0.4803760000000 1.0
C      1  0.4544970000000  0.5461780000000  0.4809970000000 1.0
C      1  0.5626760000000  0.4849340000000  0.5216390000000 1.0
C      1  0.4962110000000  0.5557550000000  0.5183920000000 1.0
C      1  0.4538930000000  0.4522180000000  0.5216390000000 1.0
C      1  0.4972510000000  0.4775370000000  0.6093520000000 1.0
C      1  0.4739350000000  0.5105430000000  0.5979400000000 1.0
C      1  0.5212920000000  0.5105000000000  0.5985360000000 1.0
C      1  0.4950150000000  0.5267960000000  0.4020890000000 1.0
C      1  0.4830740000000  0.4843730000000  0.3957440000000 1.0
C      1  0.5239360000000  0.4888120000000  0.4015530000000 1.0
C      1  0.4398970000000  0.4795060000000  0.5670150000000 1.0
C      1  0.5143530000000  0.5592910000000  0.5757760000000 1.0
C      1  0.5411480000000  0.4626160000000  0.5822900000000 1.0
C      1  0.4481540000000  0.5162820000000  0.4215660000000 1.0
C      1  0.5140470000000  0.4476030000000  0.4234610000000 1.0
C      1  0.5400650000000  0.5353140000000  0.4190990000000 1.0
C      1  0.5489700000000  0.4761240000000  0.4497540000000 1.0
C      1  0.4547790000000  0.4694810000000  0.4550350000000 1.0
C      1  0.4937920000000  0.5487980000000  0.4541100000000 1.0
C      1  0.5487450000000  0.5233710000000  0.5513340000000 1.0
C      1  0.4554250000000  0.5341020000000  0.5512900000000 1.0
C      1  0.4948360000000  0.4458200000000  0.5454550000000 1.0
C      1  0.4912690000000  0.4942430000000  0.4392180000000 1.0
C      1  0.4991720000000  0.4836590000000  0.5633430000000 1.0
END
