TITL C-2441162-9305-782 0.0425887569264085 125000 -23773.4318278349 0 0 167 (C1) n - 1
REM
REM in /home/bkarasulu/work/CARBON/AIRSS/Generating-Clusters/ReaxFF-fromJPCA2015/Units_Real/with-SteepDescent/Higher-Symm
REM
REM
REM
REM
REM
REM ./C.cell (1df0a924f5614ab8850e4351716899ee)
REM
REM compiler GCC version 9.2.1 20190827 (Red Hat 9.2.1-1)
REM options -cpp -mtune=generic -march=x86-64 -g -O0 -fpre-include=/usr/include/finclude/math-vector-fortran.h
REM seed 299393642 501587549 -2031626658 870374321 695036442 1987763533 -1658106623 1056395890 -2092442996 -1492266287 -1242588982 -458977912 -186975094 444778947 400767792 166916540 237812519 -143154104 -2085204713 -301199399 997429319 499497057 -255706080 -880741691 1457310126 -2049154200 535674637 -659552008 1252925160 -497375280 185498528 -36516449 94195915
REM
CELL 1.54180   50.00000   50.00000   50.00000   90.00000   90.00000   90.00000
LATT -1
SFAC C  
C      1  0.4928630000000  0.5586260000000  0.4564960000000 1.0
C      1  0.4679160000000  0.5582800000000  0.4702810000000 1.0
C      1  0.4503180000000  0.5628820000000  0.5244980000000 1.0
C      1  0.4827430000000  0.5786260000000  0.5451780000000 1.0
C      1  0.5099030000000  0.5667150000000  0.5427730000000 1.0
C      1  0.5450080000000  0.5684000000000  0.5038790000000 1.0
C      1  0.5419720000000  0.5666110000000  0.4743020000000 1.0
C      1  0.5816110000000  0.4977260000000  0.4377400000000 1.0
C      1  0.5049790000000  0.4998790000000  0.3978460000000 1.0
C      1  0.4225610000000  0.4994570000000  0.4312100000000 1.0
C      1  0.4001670000000  0.5012240000000  0.5171310000000 1.0
C      1  0.4517130000000  0.4997230000000  0.5929130000000 1.0
C      1  0.5426250000000  0.4980890000000  0.5952770000000 1.0
C      1  0.5953940000000  0.5006420000000  0.5266890000000 1.0
C      1  0.4952080000000  0.4131440000000  0.4450860000000 1.0
C      1  0.4533280000000  0.4141220000000  0.4753420000000 1.0
C      1  0.4487270000000  0.4224780000000  0.5243260000000 1.0
C      1  0.4699690000000  0.4195490000000  0.5424690000000 1.0
C      1  0.5261410000000  0.4165100000000  0.5464650000000 1.0
C      1  0.5509490000000  0.4157120000000  0.5043410000000 1.0
C      1  0.5416620000000  0.4158760000000  0.4574010000000 1.0
C      1  0.5379870000000  0.5382010000000  0.4751470000000 1.0
C      1  0.5113570000000  0.5343800000000  0.4601020000000 1.0
C      1  0.4571320000000  0.5330030000000  0.4653120000000 1.0
C      1  0.4586860000000  0.5386490000000  0.5108130000000 1.0
C      1  0.4718420000000  0.5181740000000  0.5250920000000 1.0
C      1  0.5153280000000  0.5397080000000  0.5380580000000 1.0
C      1  0.5340700000000  0.5409080000000  0.5150880000000 1.0
C      1  0.5154630000000  0.4903110000000  0.4764080000000 1.0
C      1  0.4864840000000  0.4986580000000  0.4626060000000 1.0
C      1  0.4656350000000  0.4957800000000  0.4841330000000 1.0
C      1  0.4736330000000  0.4913460000000  0.5101620000000 1.0
C      1  0.4984430000000  0.5021700000000  0.5412440000000 1.0
C      1  0.5179350000000  0.4920330000000  0.5232820000000 1.0
C      1  0.5375490000000  0.4996940000000  0.4942110000000 1.0
C      1  0.4704180000000  0.5174350000000  0.4452470000000 1.0
C      1  0.4458710000000  0.5224330000000  0.4900630000000 1.0
C      1  0.4565220000000  0.5228340000000  0.5484740000000 1.0
C      1  0.5096790000000  0.5203710000000  0.5583580000000 1.0
C      1  0.5550940000000  0.5317230000000  0.5322590000000 1.0
C      1  0.5568650000000  0.5173080000000  0.4811820000000 1.0
C      1  0.5274720000000  0.5214130000000  0.4395510000000 1.0
C      1  0.4233890000000  0.4487220000000  0.5534750000000 1.0
C      1  0.4929670000000  0.4431780000000  0.5860970000000 1.0
C      1  0.5660870000000  0.4461030000000  0.5596620000000 1.0
C      1  0.5877680000000  0.4459130000000  0.4852170000000 1.0
C      1  0.5447120000000  0.4458680000000  0.4187070000000 1.0
C      1  0.4664700000000  0.4448570000000  0.4160240000000 1.0
C      1  0.4132360000000  0.4469870000000  0.4746320000000 1.0
C      1  0.4363150000000  0.4699680000000  0.5020260000000 1.0
C      1  0.4612560000000  0.4724930000000  0.5501540000000 1.0
C      1  0.5156400000000  0.4694670000000  0.5606670000000 1.0
C      1  0.5568880000000  0.4716750000000  0.5253460000000 1.0
C      1  0.5545440000000  0.4668930000000  0.4702600000000 1.0
C      1  0.5116360000000  0.4685460000000  0.4373860000000 1.0
C      1  0.4582890000000  0.4660000000000  0.4509120000000 1.0
C      1  0.4058750000000  0.4714460000000  0.4587580000000 1.0
C      1  0.4060080000000  0.4718430000000  0.5495320000000 1.0
C      1  0.4823070000000  0.4668500000000  0.6001310000000 1.0
C      1  0.5671690000000  0.4697590000000  0.5773960000000 1.0
C      1  0.6004660000000  0.4705190000000  0.4957460000000 1.0
C      1  0.5626680000000  0.4687440000000  0.4144160000000 1.0
C      1  0.4738160000000  0.4684600000000  0.3990440000000 1.0
C      1  0.4193060000000  0.4708930000000  0.4332970000000 1.0
C      1  0.3963680000000  0.4731230000000  0.5219990000000 1.0
C      1  0.4539130000000  0.4713360000000  0.5945100000000 1.0
C      1  0.5443520000000  0.4693260000000  0.5950840000000 1.0
C      1  0.5998560000000  0.4719900000000  0.5247190000000 1.0
C      1  0.5840580000000  0.4696610000000  0.4342300000000 1.0
C      1  0.5024260000000  0.4715900000000  0.3941970000000 1.0
C      1  0.5049390000000  0.5552180000000  0.5873790000000 1.0
C      1  0.5552700000000  0.5572720000000  0.5471180000000 1.0
C      1  0.5849900000000  0.5565340000000  0.4738690000000 1.0
C      1  0.5267950000000  0.5619800000000  0.4271140000000 1.0
C      1  0.4587360000000  0.5623110000000  0.4283900000000 1.0
C      1  0.4254460000000  0.5701820000000  0.4810250000000 1.0
C      1  0.4443090000000  0.5490610000000  0.5505170000000 1.0
C      1  0.5473350000000  0.5222780000000  0.4036810000000 1.0
C      1  0.4564580000000  0.5222900000000  0.4043010000000 1.0
C      1  0.4016030000000  0.5268250000000  0.4750330000000 1.0
C      1  0.4160590000000  0.5233460000000  0.5707610000000 1.0
C      1  0.5021160000000  0.5160970000000  0.6133370000000 1.0
C      1  0.5804850000000  0.5255000000000  0.5654250000000 1.0
C      1  0.6089080000000  0.5178780000000  0.4729470000000 1.0
C      1  0.5376000000000  0.4049970000000  0.4819420000000 1.0
C      1  0.5177970000000  0.4017090000000  0.4606450000000 1.0
C      1  0.4777130000000  0.4095740000000  0.4656020000000 1.0
C      1  0.4608110000000  0.4074290000000  0.5036130000000 1.0
C      1  0.4851810000000  0.4042300000000  0.5221310000000 1.0
C      1  0.5113210000000  0.3958290000000  0.5329430000000 1.0
C      1  0.5376720000000  0.4027560000000  0.5257400000000 1.0
C      1  0.5419700000000  0.4316010000000  0.5655330000000 1.0
C      1  0.5747520000000  0.4326600000000  0.5065030000000 1.0
C      1  0.5562670000000  0.4333070000000  0.4410940000000 1.0
C      1  0.4908890000000  0.4319720000000  0.4211650000000 1.0
C      1  0.4327620000000  0.4324930000000  0.4608410000000 1.0
C      1  0.4242040000000  0.4358170000000  0.5284780000000 1.0
C      1  0.4727100000000  0.4327000000000  0.5686570000000 1.0
C      1  0.5943350000000  0.5464280000000  0.5151190000000 1.0
C      1  0.5763120000000  0.5439380000000  0.4490910000000 1.0
C      1  0.5065760000000  0.5479330000000  0.4110480000000 1.0
C      1  0.4327460000000  0.5488540000000  0.4365630000000 1.0
C      1  0.4056790000000  0.5481160000000  0.5225210000000 1.0
C      1  0.4629470000000  0.5462820000000  0.5874700000000 1.0
C      1  0.5336000000000  0.5447060000000  0.5891940000000 1.0
C      1  0.4479700000000  0.4506160000000  0.5718460000000 1.0
C      1  0.5243010000000  0.4475590000000  0.5840450000000 1.0
C      1  0.5806030000000  0.4489710000000  0.5327020000000 1.0
C      1  0.5778200000000  0.4483750000000  0.4550920000000 1.0
C      1  0.5151150000000  0.4482310000000  0.4109510000000 1.0
C      1  0.4401400000000  0.4473160000000  0.4347900000000 1.0
C      1  0.4103890000000  0.4507150000000  0.5064420000000 1.0
C      1  0.4508200000000  0.5826920000000  0.4725230000000 1.0
C      1  0.4244170000000  0.5666830000000  0.5101400000000 1.0
C      1  0.4814630000000  0.5651840000000  0.5718190000000 1.0
C      1  0.5358700000000  0.5799210000000  0.5416420000000 1.0
C      1  0.5743160000000  0.5638890000000  0.5016460000000 1.0
C      1  0.5296170000000  0.5791180000000  0.4512080000000 1.0
C      1  0.4813350000000  0.5786760000000  0.4388100000000 1.0
C      1  0.4859250000000  0.4738110000000  0.4483020000000 1.0
C      1  0.4522610000000  0.4713620000000  0.4781720000000 1.0
C      1  0.4565690000000  0.4722080000000  0.5224280000000 1.0
C      1  0.4888760000000  0.4782700000000  0.5539150000000 1.0
C      1  0.5304830000000  0.4708250000000  0.5363130000000 1.0
C      1  0.5517800000000  0.4750220000000  0.4974510000000 1.0
C      1  0.5273560000000  0.4694010000000  0.4615760000000 1.0
C      1  0.5948220000000  0.5222090000000  0.4469910000000 1.0
C      1  0.5188980000000  0.5259800000000  0.3958980000000 1.0
C      1  0.4311740000000  0.5253990000000  0.4191970000000 1.0
C      1  0.3955870000000  0.5272080000000  0.5042260000000 1.0
C      1  0.4405780000000  0.5260740000000  0.5884730000000 1.0
C      1  0.5305050000000  0.5219970000000  0.6068650000000 1.0
C      1  0.5964040000000  0.5277620000000  0.5388780000000 1.0
C      1  0.5151490000000  0.6011570000000  0.4652070000000 1.0
C      1  0.4861140000000  0.6015410000000  0.4576530000000 1.0
C      1  0.4673200000000  0.6060910000000  0.4797100000000 1.0
C      1  0.4776880000000  0.6011060000000  0.5076010000000 1.0
C      1  0.4944620000000  0.6026340000000  0.5315430000000 1.0
C      1  0.5231900000000  0.5995520000000  0.5215970000000 1.0
C      1  0.5243310000000  0.6053960000000  0.4927620000000 1.0
C      1  0.4867030000000  0.5402890000000  0.6048010000000 1.0
C      1  0.5587380000000  0.5455640000000  0.5732680000000 1.0
C      1  0.6074030000000  0.5425940000000  0.4884990000000 1.0
C      1  0.5488220000000  0.5406200000000  0.4295340000000 1.0
C      1  0.4759840000000  0.5426190000000  0.4154660000000 1.0
C      1  0.4177130000000  0.5489070000000  0.4622880000000 1.0
C      1  0.4150480000000  0.5443280000000  0.5503750000000 1.0
C      1  0.4057670000000  0.4979920000000  0.4732770000000 1.0
C      1  0.4172940000000  0.4959680000000  0.5618720000000 1.0
C      1  0.4994820000000  0.4910810000000  0.5997290000000 1.0
C      1  0.5725850000000  0.4975380000000  0.5650190000000 1.0
C      1  0.5924940000000  0.4961660000000  0.4822550000000 1.0
C      1  0.5481950000000  0.4940550000000  0.4088720000000 1.0
C      1  0.4591740000000  0.4936080000000  0.4051440000000 1.0
C      1  0.4526750000000  0.4953660000000  0.4345200000000 1.0
C      1  0.4228640000000  0.4975350000000  0.4974440000000 1.0
C      1  0.4478460000000  0.4977650000000  0.5608520000000 1.0
C      1  0.5190310000000  0.4978310000000  0.5765960000000 1.0
C      1  0.5662680000000  0.5001550000000  0.5363930000000 1.0
C      1  0.5689600000000  0.4963630000000  0.4648060000000 1.0
C      1  0.5217600000000  0.4967720000000  0.4240730000000 1.0
C      1  0.5008680000000  0.4799180000000  0.5031290000000 1.0
C      1  0.5015680000000  0.4267810000000  0.5019120000000 1.0
C      1  0.5012270000000  0.4523160000000  0.5024910000000 1.0
C      1  0.4953680000000  0.5523920000000  0.4990510000000 1.0
C      1  0.5012400000000  0.5272900000000  0.4931160000000 1.0
C      1  0.4882240000000  0.5759190000000  0.5003250000000 1.0
END
