TITL C-2441154-10-314 0.0405363468463103 125000 -15485.5746445051 0 0 113 (C1) n - 1
REM
REM in /home/bkarasulu/work/CARBON/AIRSS/Generating-Clusters/ReaxFF-fromJPCA2015/Units_Real/with-SteepDescent/Higher-Symm
REM
REM
REM
REM
REM
REM ./C.cell (1df0a924f5614ab8850e4351716899ee)
REM
REM compiler GCC version 9.2.1 20190827 (Red Hat 9.2.1-1)
REM options -cpp -mtune=generic -march=x86-64 -g -O0 -fpre-include=/usr/include/finclude/math-vector-fortran.h
REM seed 347485146 -1609825419 -282194172 590008302 277511251 991970284 -2067930132 -140547249 640137431 -48693248 173646308 1642185272 -975160224 96221726 -536038580 177841541 -949623100 2016775042 -864528781 231494453 -1189590884 -2087024813 797263033 -60403074 1244775154 -1656857740 1600878417 -1279467450 1530996196 2030663994 23277128 216661254 -951652299
REM
CELL 1.54180   50.00000   50.00000   50.00000   90.00000   90.00000   90.00000
LATT -1
SFAC C  
C      1  0.4751770000000  0.4355900000000  0.5305870000000 1.0
C      1  0.5245100000000  0.4319980000000  0.4901090000000 1.0
C      1  0.4784160000000  0.4552600000000  0.4513270000000 1.0
C      1  0.5221390000000  0.4911270000000  0.4330880000000 1.0
C      1  0.4774460000000  0.5254090000000  0.4388260000000 1.0
C      1  0.5264790000000  0.5615020000000  0.4656670000000 1.0
C      1  0.4758270000000  0.5688450000000  0.5136260000000 1.0
C      1  0.5222640000000  0.5501940000000  0.5453820000000 1.0
C      1  0.4780460000000  0.5128820000000  0.5648270000000 1.0
C      1  0.5235150000000  0.4677630000000  0.5589930000000 1.0
C      1  0.5222160000000  0.4806390000000  0.5301620000000 1.0
C      1  0.4761230000000  0.4646620000000  0.5149840000000 1.0
C      1  0.5201180000000  0.4643350000000  0.4941170000000 1.0
C      1  0.4759550000000  0.4739110000000  0.4723630000000 1.0
C      1  0.5175250000000  0.4980090000000  0.4620670000000 1.0
C      1  0.4871610000000  0.5199380000000  0.4660350000000 1.0
C      1  0.5217840000000  0.5348510000000  0.4823660000000 1.0
C      1  0.4849340000000  0.5359000000000  0.5121640000000 1.0
C      1  0.5160620000000  0.5293130000000  0.5279250000000 1.0
C      1  0.4790950000000  0.4995250000000  0.5395800000000 1.0
C      1  0.4596430000000  0.4644220000000  0.4923760000000 1.0
C      1  0.5289460000000  0.4732570000000  0.4689630000000 1.0
C      1  0.4638150000000  0.4995520000000  0.4700700000000 1.0
C      1  0.5369880000000  0.5116830000000  0.4786550000000 1.0
C      1  0.4760640000000  0.5389990000000  0.4850880000000 1.0
C      1  0.5319950000000  0.5412400000000  0.5075300000000 1.0
C      1  0.4622290000000  0.5183890000000  0.5220420000000 1.0
C      1  0.5357510000000  0.5056910000000  0.5320170000000 1.0
C      1  0.4639050000000  0.4762030000000  0.5364240000000 1.0
C      1  0.5417770000000  0.4684800000000  0.5119860000000 1.0
C      1  0.4934650000000  0.5205580000000  0.4181160000000 1.0
C      1  0.5065540000000  0.5650130000000  0.4448360000000 1.0
C      1  0.4965350000000  0.5853510000000  0.4949150000000 1.0
C      1  0.5062530000000  0.5710990000000  0.5468520000000 1.0
C      1  0.4970580000000  0.5292690000000  0.5769820000000 1.0
C      1  0.5058510000000  0.4770940000000  0.5802380000000 1.0
C      1  0.4938400000000  0.4343060000000  0.5531310000000 1.0
C      1  0.5062500000000  0.4160120000000  0.5049410000000 1.0
C      1  0.4939870000000  0.4307840000000  0.4544650000000 1.0
C      1  0.5062390000000  0.4698760000000  0.4215330000000 1.0
C      1  0.4887710000000  0.4166820000000  0.4815250000000 1.0
C      1  0.5120250000000  0.4409310000000  0.4331090000000 1.0
C      1  0.4869440000000  0.4910430000000  0.4131300000000 1.0
C      1  0.5115530000000  0.5417260000000  0.4269220000000 1.0
C      1  0.4913650000000  0.5794030000000  0.4658010000000 1.0
C      1  0.5111560000000  0.5862480000000  0.5194470000000 1.0
C      1  0.4887910000000  0.5560530000000  0.5638380000000 1.0
C      1  0.5104060000000  0.5055370000000  0.5868870000000 1.0
C      1  0.4884220000000  0.4550920000000  0.5738730000000 1.0
C      1  0.5120870000000  0.4220000000000  0.5338580000000 1.0
C      1  0.5522160000000  0.4713360000000  0.5670640000000 1.0
C      1  0.4477110000000  0.4339400000000  0.5385810000000 1.0
C      1  0.5520930000000  0.4256120000000  0.4926350000000 1.0
C      1  0.4374320000000  0.4488900000000  0.4524870000000 1.0
C      1  0.5627750000000  0.4856900000000  0.4328590000000 1.0
C      1  0.4494920000000  0.5314020000000  0.4317450000000 1.0
C      1  0.5550560000000  0.5657790000000  0.4626850000000 1.0
C      1  0.4492210000000  0.5728870000000  0.5064050000000 1.0
C      1  0.5485280000000  0.5567980000000  0.5514430000000 1.0
C      1  0.4515550000000  0.5154350000000  0.5749570000000 1.0
C      1  0.4184760000000  0.5310270000000  0.5348960000000 1.0
C      1  0.5819690000000  0.5053650000000  0.5466070000000 1.0
C      1  0.4172580000000  0.4761960000000  0.5409990000000 1.0
C      1  0.5847930000000  0.4570850000000  0.5195980000000 1.0
C      1  0.4169160000000  0.4549180000000  0.4912700000000 1.0
C      1  0.5810810000000  0.4699300000000  0.4669440000000 1.0
C      1  0.4187890000000  0.4944390000000  0.4538390000000 1.0
C      1  0.5798410000000  0.5241540000000  0.4596700000000 1.0
C      1  0.4219070000000  0.5416590000000  0.4808440000000 1.0
C      1  0.5809900000000  0.5464220000000  0.5098690000000 1.0
C      1  0.4603530000000  0.4628410000000  0.5786780000000 1.0
C      1  0.5395790000000  0.4283960000000  0.5397040000000 1.0
C      1  0.4615650000000  0.4166310000000  0.4903710000000 1.0
C      1  0.5392830000000  0.4365750000000  0.4425760000000 1.0
C      1  0.4597130000000  0.4835100000000  0.4210120000000 1.0
C      1  0.5395300000000  0.5327280000000  0.4277190000000 1.0
C      1  0.4633580000000  0.5742780000000  0.4587280000000 1.0
C      1  0.5374700000000  0.5845510000000  0.5078010000000 1.0
C      1  0.4610490000000  0.5582550000000  0.5554570000000 1.0
C      1  0.5368080000000  0.5169940000000  0.5824110000000 1.0
C      1  0.4558810000000  0.4567260000000  0.4316710000000 1.0
C      1  0.5446250000000  0.5046980000000  0.4201650000000 1.0
C      1  0.4563800000000  0.5577720000000  0.4371210000000 1.0
C      1  0.5402880000000  0.5829790000000  0.4791480000000 1.0
C      1  0.4564000000000  0.5765170000000  0.5334200000000 1.0
C      1  0.5476270000000  0.5413080000000  0.5738690000000 1.0
C      1  0.4527310000000  0.4891560000000  0.5836480000000 1.0
C      1  0.5431570000000  0.4445920000000  0.5629680000000 1.0
C      1  0.4577010000000  0.4160920000000  0.5188170000000 1.0
C      1  0.5416950000000  0.4213370000000  0.4666710000000 1.0
C      1  0.4461610000000  0.5330180000000  0.5499210000000 1.0
C      1  0.5528290000000  0.4994570000000  0.5586550000000 1.0
C      1  0.4450990000000  0.4602760000000  0.5502900000000 1.0
C      1  0.5559640000000  0.4414170000000  0.5168800000000 1.0
C      1  0.4448610000000  0.4409410000000  0.4814130000000 1.0
C      1  0.5509160000000  0.4632640000000  0.4516060000000 1.0
C      1  0.4451730000000  0.5021130000000  0.4399100000000 1.0
C      1  0.5581280000000  0.5413890000000  0.4482650000000 1.0
C      1  0.4513750000000  0.5573460000000  0.4825900000000 1.0
C      1  0.5522480000000  0.5591970000000  0.5192670000000 1.0
C      1  0.4176760000000  0.4660680000000  0.4639730000000 1.0
C      1  0.5821060000000  0.4948370000000  0.4517380000000 1.0
C      1  0.4162090000000  0.5171470000000  0.4692220000000 1.0
C      1  0.5836450000000  0.5330860000000  0.4856900000000 1.0
C      1  0.4151550000000  0.5334830000000  0.5065230000000 1.0
C      1  0.5864050000000  0.5236950000000  0.5253860000000 1.0
C      1  0.4134590000000  0.5032740000000  0.5354560000000 1.0
C      1  0.5877120000000  0.4824430000000  0.5311860000000 1.0
C      1  0.4145440000000  0.4674110000000  0.5151940000000 1.0
C      1  0.5852340000000  0.4655090000000  0.4934410000000 1.0
C      1  0.5512330000000  0.4987070000000  0.5038530000000 1.0
C      1  0.4510200000000  0.5020470000000  0.4979510000000 1.0
C      1  0.5004300000000  0.4796770000000  0.5109720000000 1.0
END
