TITL C-2441160-1326-1048 0.00563204729465998 125000 -6887.83500443549 0 0 50 (C1) n - 1
REM
REM in /home/bkarasulu/work/CARBON/AIRSS/Generating-Clusters/ReaxFF-fromJPCA2015/Units_Real/with-SteepDescent/Higher-Symm
REM
REM
REM
REM
REM
REM ./C.cell (1df0a924f5614ab8850e4351716899ee)
REM
REM compiler GCC version 9.2.1 20190827 (Red Hat 9.2.1-1)
REM options -cpp -mtune=generic -march=x86-64 -g -O0 -fpre-include=/usr/include/finclude/math-vector-fortran.h
REM seed -1388654151 -325796226 -1436905227 -1055999681 1835804501 1671098490 -375770113 -941473334 -128904139 -47672609 1960178042 -779264015 -506568383 -2024270063 1777246009 -231096333 1749585316 -765567591 -1802711303 839949764 -992302005 384335778 580465581 533853225 1174798983 -852954956 -105302856 -489984663 792259344 -122665219 756165122 -670969486 846527217
REM
CELL 1.54180   50.00000   50.00000   50.00000   90.00000   90.00000   90.00000
LATT -1
SFAC C  
C      1  0.5615840000000  0.5038770000000  0.4698270000000 1.0
C      1  0.5604420000000  0.5180250000000  0.5187480000000 1.0
C      1  0.5644490000000  0.4775680000000  0.5128810000000 1.0
C      1  0.4381470000000  0.5000480000000  0.4724700000000 1.0
C      1  0.4406830000000  0.4780140000000  0.5182270000000 1.0
C      1  0.4390090000000  0.5181420000000  0.5097450000000 1.0
C      1  0.4940520000000  0.4396140000000  0.4810130000000 1.0
C      1  0.4951280000000  0.5492320000000  0.4592410000000 1.0
C      1  0.4935790000000  0.5103320000000  0.5636850000000 1.0
C      1  0.5114420000000  0.5612060000000  0.4817240000000 1.0
C      1  0.5098510000000  0.4515480000000  0.4586020000000 1.0
C      1  0.5088980000000  0.4832890000000  0.5631170000000 1.0
C      1  0.5528610000000  0.5421330000000  0.5066520000000 1.0
C      1  0.5524840000000  0.4728530000000  0.5374700000000 1.0
C      1  0.5520430000000  0.4810190000000  0.4568630000000 1.0
C      1  0.4505450000000  0.4549860000000  0.5059930000000 1.0
C      1  0.4483220000000  0.5267730000000  0.5350350000000 1.0
C      1  0.4513540000000  0.5184080000000  0.4566780000000 1.0
C      1  0.4551640000000  0.4558470000000  0.5327870000000 1.0
C      1  0.4534330000000  0.4928120000000  0.4445820000000 1.0
C      1  0.4564640000000  0.5507100000000  0.5225260000000 1.0
C      1  0.5462010000000  0.5420090000000  0.5323670000000 1.0
C      1  0.5460200000000  0.5044020000000  0.4442950000000 1.0
C      1  0.5488750000000  0.4520100000000  0.5201450000000 1.0
C      1  0.5060450000000  0.5288660000000  0.4417630000000 1.0
C      1  0.5053370000000  0.5351860000000  0.5548380000000 1.0
C      1  0.5005520000000  0.4350000000000  0.5102890000000 1.0
C      1  0.5028800000000  0.4747400000000  0.4389350000000 1.0
C      1  0.5031810000000  0.4568760000000  0.5510160000000 1.0
C      1  0.5049280000000  0.5659870000000  0.5107240000000 1.0
C      1  0.4819940000000  0.4454240000000  0.5353330000000 1.0
C      1  0.4776310000000  0.4829780000000  0.4408430000000 1.0
C      1  0.4788480000000  0.5607100000000  0.5168320000000 1.0
C      1  0.5193040000000  0.5517390000000  0.5358170000000 1.0
C      1  0.5181970000000  0.5034720000000  0.4363560000000 1.0
C      1  0.5225940000000  0.4432040000000  0.5267000000000 1.0
C      1  0.4732690000000  0.4585600000000  0.4895730000000 1.0
C      1  0.4741150000000  0.5302030000000  0.4678210000000 1.0
C      1  0.4733430000000  0.5117350000000  0.5425820000000 1.0
C      1  0.5300280000000  0.5404490000000  0.4900240000000 1.0
C      1  0.5297950000000  0.4691860000000  0.4699940000000 1.0
C      1  0.5293840000000  0.4877590000000  0.5426710000000 1.0
C      1  0.4959780000000  0.5121320000000  0.5230040000000 1.0
C      1  0.4953470000000  0.4750200000000  0.5002720000000 1.0
C      1  0.4962550000000  0.5128570000000  0.4774710000000 1.0
C      1  0.5074420000000  0.4865790000000  0.5229310000000 1.0
C      1  0.5066200000000  0.5254810000000  0.5002250000000 1.0
C      1  0.5073630000000  0.4867560000000  0.4781470000000 1.0
C      1  0.5584170000000  0.5001250000000  0.4977880000000 1.0
C      1  0.4462110000000  0.4977160000000  0.4986710000000 1.0
END
