TITL C-2441163-1170-1431 2.26573700922628e-07 125000 -11261.1620981108 0 0 77 (C1) n - 1
REM
REM in /home/bkarasulu/work/CARBON/AIRSS/Generating-Clusters/ReaxFF-fromJPCA2015/Units_Real/with-SteepDescent/Higher-Symm
REM
REM
REM
REM
REM
REM ./C.cell (1df0a924f5614ab8850e4351716899ee)
REM
REM compiler GCC version 9.2.1 20190827 (Red Hat 9.2.1-1)
REM options -cpp -mtune=generic -march=x86-64 -g -O0 -fpre-include=/usr/include/finclude/math-vector-fortran.h
REM seed -524130793 -889780418 -2134838123 -812224900 1862450229 -866252584 -576397396 -1897042748 -1363076344 441313897 1059308316 89983796 654421866 -1038891803 1529431163 1458732096 519344737 111678905 -822794860 -438351590 1222476112 -1594013467 -1637328197 1092755602 594235247 -540044372 -1505435210 -263541016 1931824142 1745597100 1139998118 -436597645 -527122499
REM
CELL 1.54180   50.00000   50.00000   50.00000   90.00000   90.00000   90.00000
LATT -1
SFAC C  
C      1  0.5164910000000  0.4190840000000  0.5369930000000 1.0
C      1  0.5153430000000  0.4738480000000  0.5884560000000 1.0
C      1  0.5233910000000  0.5449570000000  0.5663030000000 1.0
C      1  0.5163990000000  0.5927130000000  0.5046690000000 1.0
C      1  0.5209910000000  0.5582880000000  0.4354310000000 1.0
C      1  0.5159890000000  0.4842290000000  0.4083690000000 1.0
C      1  0.5225800000000  0.4275760000000  0.4601880000000 1.0
C      1  0.4493700000000  0.4434090000000  0.5202690000000 1.0
C      1  0.4492690000000  0.4801700000000  0.5568390000000 1.0
C      1  0.4526670000000  0.5327930000000  0.5504820000000 1.0
C      1  0.4518770000000  0.5595660000000  0.5071040000000 1.0
C      1  0.4537120000000  0.5417470000000  0.4578880000000 1.0
C      1  0.4521680000000  0.4935740000000  0.4407740000000 1.0
C      1  0.4530710000000  0.4483720000000  0.4696490000000 1.0
C      1  0.5619260000000  0.5331980000000  0.5102380000000 1.0
C      1  0.5600690000000  0.5290860000000  0.4812220000000 1.0
C      1  0.5601030000000  0.5049010000000  0.4658790000000 1.0
C      1  0.5616830000000  0.4768410000000  0.4744730000000 1.0
C      1  0.5643680000000  0.4665870000000  0.5022280000000 1.0
C      1  0.5709140000000  0.4868710000000  0.5208470000000 1.0
C      1  0.5645140000000  0.5123740000000  0.5312930000000 1.0
C      1  0.4375260000000  0.4691180000000  0.5120040000000 1.0
C      1  0.4374050000000  0.4903570000000  0.5318820000000 1.0
C      1  0.4391180000000  0.5190700000000  0.5280880000000 1.0
C      1  0.4386100000000  0.5335170000000  0.5029770000000 1.0
C      1  0.4397180000000  0.5230220000000  0.4758890000000 1.0
C      1  0.4392080000000  0.4953260000000  0.4672210000000 1.0
C      1  0.4398520000000  0.4710540000000  0.4832150000000 1.0
C      1  0.4731990000000  0.4267810000000  0.4714160000000 1.0
C      1  0.4677870000000  0.4320080000000  0.5400200000000 1.0
C      1  0.4678900000000  0.4880450000000  0.5780480000000 1.0
C      1  0.4735210000000  0.5522170000000  0.5578850000000 1.0
C      1  0.4714920000000  0.5753060000000  0.4926730000000 1.0
C      1  0.4728180000000  0.5426420000000  0.4355700000000 1.0
C      1  0.4708970000000  0.4758870000000  0.4273180000000 1.0
C      1  0.4902210000000  0.4857320000000  0.5310350000000 1.0
C      1  0.4920820000000  0.5137060000000  0.5295870000000 1.0
C      1  0.4929930000000  0.5309050000000  0.5065810000000 1.0
C      1  0.4939170000000  0.5235680000000  0.4788940000000 1.0
C      1  0.4934430000000  0.4978160000000  0.4678660000000 1.0
C      1  0.4933730000000  0.4728760000000  0.4817620000000 1.0
C      1  0.4905950000000  0.4673890000000  0.5098050000000 1.0
C      1  0.4919170000000  0.4698810000000  0.4102100000000 1.0
C      1  0.4998100000000  0.4164140000000  0.4720460000000 1.0
C      1  0.4918470000000  0.4202230000000  0.5500130000000 1.0
C      1  0.4919190000000  0.4882540000000  0.5935710000000 1.0
C      1  0.5001230000000  0.5607920000000  0.5637580000000 1.0
C      1  0.4918060000000  0.5940420000000  0.4905300000000 1.0
C      1  0.4975110000000  0.5493980000000  0.4231170000000 1.0
C      1  0.5399080000000  0.4712830000000  0.5455180000000 1.0
C      1  0.5434210000000  0.5005860000000  0.5491340000000 1.0
C      1  0.5469050000000  0.5576590000000  0.5072310000000 1.0
C      1  0.5453550000000  0.5539490000000  0.4790350000000 1.0
C      1  0.5453350000000  0.4964690000000  0.4424650000000 1.0
C      1  0.5465030000000  0.4693300000000  0.4510820000000 1.0
C      1  0.5432940000000  0.4555450000000  0.5205510000000 1.0
C      1  0.5227420000000  0.5670240000000  0.5485780000000 1.0
C      1  0.5155720000000  0.5899320000000  0.4759050000000 1.0
C      1  0.5209520000000  0.5343250000000  0.4202610000000 1.0
C      1  0.5159700000000  0.4570590000000  0.4182480000000 1.0
C      1  0.5226980000000  0.4214240000000  0.4878140000000 1.0
C      1  0.5148260000000  0.4315420000000  0.5615590000000 1.0
C      1  0.5164140000000  0.5013350000000  0.5889520000000 1.0
C      1  0.4761440000000  0.4435410000000  0.5155120000000 1.0
C      1  0.4759920000000  0.4762410000000  0.5535460000000 1.0
C      1  0.4786980000000  0.5252030000000  0.5519520000000 1.0
C      1  0.4791460000000  0.5559000000000  0.5105900000000 1.0
C      1  0.4805340000000  0.5426130000000  0.4627460000000 1.0
C      1  0.4795810000000  0.4966950000000  0.4433510000000 1.0
C      1  0.4793590000000  0.4534570000000  0.4654920000000 1.0
C      1  0.5290110000000  0.5729650000000  0.5217020000000 1.0
C      1  0.5276400000000  0.5674110000000  0.4620290000000 1.0
C      1  0.5278120000000  0.5064220000000  0.4230640000000 1.0
C      1  0.5285080000000  0.4497370000000  0.4433170000000 1.0
C      1  0.5279780000000  0.4320040000000  0.5142150000000 1.0
C      1  0.5239970000000  0.4584350000000  0.5658580000000 1.0
C      1  0.5282140000000  0.5163860000000  0.5677190000000 1.0
END
