TITL C-2441169-1362-779 0.0205963710755558 125000 -17829.7594050759 0 0 122 (C1) n - 1
REM
REM in /home/bkarasulu/work/CARBON/AIRSS/Generating-Clusters/ReaxFF-fromJPCA2015/Units_Real/with-SteepDescent/Higher-Symm
REM
REM
REM
REM
REM
REM ./C.cell (1df0a924f5614ab8850e4351716899ee)
REM
REM compiler GCC version 9.2.1 20190827 (Red Hat 9.2.1-1)
REM options -cpp -mtune=generic -march=x86-64 -g -O0 -fpre-include=/usr/include/finclude/math-vector-fortran.h
REM seed -1664065793 233252044 120745945 -2128740842 1461528806 -1983853174 -826142556 1938399898 661806665 1560095687 541641120 1182589372 1905918894 965917036 585472849 331904369 -999135172 -1639119738 -1406726297 812492958 -736606515 1176709631 351736946 -56373394 942780685 664558542 -1074973160 -513242943 1999705357 -1167671631 -663819334 614480296 1707422264
REM
CELL 1.54180   50.00000   50.00000   50.00000   90.00000   90.00000   90.00000
LATT -1
SFAC C  
C      1  0.5345390000000  0.5584640000000  0.5695830000000 1.0
C      1  0.5391470000000  0.5603520000000  0.4263830000000 1.0
C      1  0.5763360000000  0.4873090000000  0.5455970000000 1.0
C      1  0.5635020000000  0.4725960000000  0.4434760000000 1.0
C      1  0.4730590000000  0.5199950000000  0.5804390000000 1.0
C      1  0.4739130000000  0.5200220000000  0.4226470000000 1.0
C      1  0.4237370000000  0.5143580000000  0.5103770000000 1.0
C      1  0.4263050000000  0.4999600000000  0.4868730000000 1.0
C      1  0.4723660000000  0.5843330000000  0.5469150000000 1.0
C      1  0.4760480000000  0.5750430000000  0.4519830000000 1.0
C      1  0.5279530000000  0.5035460000000  0.4101330000000 1.0
C      1  0.5248620000000  0.5061340000000  0.5911490000000 1.0
C      1  0.4440490000000  0.5346250000000  0.5151670000000 1.0
C      1  0.4569690000000  0.5423210000000  0.4876790000000 1.0
C      1  0.4522280000000  0.5354660000000  0.4355180000000 1.0
C      1  0.4518220000000  0.5353880000000  0.5681820000000 1.0
C      1  0.4555670000000  0.5593070000000  0.5494260000000 1.0
C      1  0.4517620000000  0.5590160000000  0.4534350000000 1.0
C      1  0.4479590000000  0.4534810000000  0.5797810000000 1.0
C      1  0.4500150000000  0.4536040000000  0.4212690000000 1.0
C      1  0.5437250000000  0.5890370000000  0.5293960000000 1.0
C      1  0.5422370000000  0.5854720000000  0.4717150000000 1.0
C      1  0.4123770000000  0.4716680000000  0.5186960000000 1.0
C      1  0.4108670000000  0.4769910000000  0.4909660000000 1.0
C      1  0.5421390000000  0.4649570000000  0.5747700000000 1.0
C      1  0.5409530000000  0.4601150000000  0.4297770000000 1.0
C      1  0.5349340000000  0.5065600000000  0.5274860000000 1.0
C      1  0.5350670000000  0.5101260000000  0.4686990000000 1.0
C      1  0.5063010000000  0.4438580000000  0.5527150000000 1.0
C      1  0.5046330000000  0.4382560000000  0.4455120000000 1.0
C      1  0.5046620000000  0.5410390000000  0.5262600000000 1.0
C      1  0.5044120000000  0.5445550000000  0.4766880000000 1.0
C      1  0.4324930000000  0.5134790000000  0.4311660000000 1.0
C      1  0.4314740000000  0.5150850000000  0.5733980000000 1.0
C      1  0.4627740000000  0.4196480000000  0.5546630000000 1.0
C      1  0.4663920000000  0.4123410000000  0.4420510000000 1.0
C      1  0.4476920000000  0.4347730000000  0.4431150000000 1.0
C      1  0.4409210000000  0.4389220000000  0.5561550000000 1.0
C      1  0.4777840000000  0.4946580000000  0.5313120000000 1.0
C      1  0.4863540000000  0.5063820000000  0.4671200000000 1.0
C      1  0.4153570000000  0.5077920000000  0.5539400000000 1.0
C      1  0.4130690000000  0.5074570000000  0.4489340000000 1.0
C      1  0.5444320000000  0.4309920000000  0.5313910000000 1.0
C      1  0.5403140000000  0.4269370000000  0.4704710000000 1.0
C      1  0.5059370000000  0.5506610000000  0.5691440000000 1.0
C      1  0.5128010000000  0.5504250000000  0.4253560000000 1.0
C      1  0.4476570000000  0.4320350000000  0.5134980000000 1.0
C      1  0.4497840000000  0.4289940000000  0.4853980000000 1.0
C      1  0.4369510000000  0.4573850000000  0.5304150000000 1.0
C      1  0.4613760000000  0.4519120000000  0.4666840000000 1.0
C      1  0.4473700000000  0.4832120000000  0.5722710000000 1.0
C      1  0.4463420000000  0.4823590000000  0.4317170000000 1.0
C      1  0.5038490000000  0.5206150000000  0.5714600000000 1.0
C      1  0.5071810000000  0.5212640000000  0.4249560000000 1.0
C      1  0.5374520000000  0.4802890000000  0.4843070000000 1.0
C      1  0.5446300000000  0.4849340000000  0.5118230000000 1.0
C      1  0.4653660000000  0.4123440000000  0.5261940000000 1.0
C      1  0.4667080000000  0.4091990000000  0.4713170000000 1.0
C      1  0.5507150000000  0.5377450000000  0.4158710000000 1.0
C      1  0.5494750000000  0.5362370000000  0.5766210000000 1.0
C      1  0.5299840000000  0.5334810000000  0.4857810000000 1.0
C      1  0.5294300000000  0.5316160000000  0.5138510000000 1.0
C      1  0.4968390000000  0.4672910000000  0.5071700000000 1.0
C      1  0.5099000000000  0.4671690000000  0.4833240000000 1.0
C      1  0.5908460000000  0.5426660000000  0.5154880000000 1.0
C      1  0.5901080000000  0.5436820000000  0.4852260000000 1.0
C      1  0.4914770000000  0.5922000000000  0.5261820000000 1.0
C      1  0.4890520000000  0.5859620000000  0.4763020000000 1.0
C      1  0.4926200000000  0.4724630000000  0.4106770000000 1.0
C      1  0.4910710000000  0.4724960000000  0.5934290000000 1.0
C      1  0.5526960000000  0.5670890000000  0.4510990000000 1.0
C      1  0.5533760000000  0.5661980000000  0.5466680000000 1.0
C      1  0.4723110000000  0.4795420000000  0.5063260000000 1.0
C      1  0.4639510000000  0.4917350000000  0.4804090000000 1.0
C      1  0.5880510000000  0.5132130000000  0.5139240000000 1.0
C      1  0.5882940000000  0.5147550000000  0.4842230000000 1.0
C      1  0.5665520000000  0.5146100000000  0.5364700000000 1.0
C      1  0.5679180000000  0.5170960000000  0.4609530000000 1.0
C      1  0.5107620000000  0.5076750000000  0.4518510000000 1.0
C      1  0.5084410000000  0.5021070000000  0.5459880000000 1.0
C      1  0.4858240000000  0.5207210000000  0.5168400000000 1.0
C      1  0.4916660000000  0.5217660000000  0.4890800000000 1.0
C      1  0.5710340000000  0.5475920000000  0.4632320000000 1.0
C      1  0.5717400000000  0.5450960000000  0.5373390000000 1.0
C      1  0.4492430000000  0.4775650000000  0.4607530000000 1.0
C      1  0.4544320000000  0.4802400000000  0.5431330000000 1.0
C      1  0.4067920000000  0.4988830000000  0.5289330000000 1.0
C      1  0.4009640000000  0.4977680000000  0.4712750000000 1.0
C      1  0.5323520000000  0.4373430000000  0.4448770000000 1.0
C      1  0.5356570000000  0.4423850000000  0.5564540000000 1.0
C      1  0.4875990000000  0.4252330000000  0.4269380000000 1.0
C      1  0.4865190000000  0.4295070000000  0.5690090000000 1.0
C      1  0.5217390000000  0.4759340000000  0.4138660000000 1.0
C      1  0.5200600000000  0.4778640000000  0.5905490000000 1.0
C      1  0.4770480000000  0.4477170000000  0.4116890000000 1.0
C      1  0.4755700000000  0.4479850000000  0.5887070000000 1.0
C      1  0.5162360000000  0.5919040000000  0.4856050000000 1.0
C      1  0.5181700000000  0.5951170000000  0.5142590000000 1.0
C      1  0.4915830000000  0.5645590000000  0.5171210000000 1.0
C      1  0.4844460000000  0.5615220000000  0.4907340000000 1.0
C      1  0.5182940000000  0.4233030000000  0.5150800000000 1.0
C      1  0.5195100000000  0.4164620000000  0.4868840000000 1.0
C      1  0.4382840000000  0.5642130000000  0.4872670000000 1.0
C      1  0.4373120000000  0.5628410000000  0.5163800000000 1.0
C      1  0.4977420000000  0.5558540000000  0.4490960000000 1.0
C      1  0.4816490000000  0.5650220000000  0.5645120000000 1.0
C      1  0.5629620000000  0.4843070000000  0.5710540000000 1.0
C      1  0.5691230000000  0.5000720000000  0.4371370000000 1.0
C      1  0.5644200000000  0.4424180000000  0.5145240000000 1.0
C      1  0.5619880000000  0.4403520000000  0.4846560000000 1.0
C      1  0.5659410000000  0.5824890000000  0.4860950000000 1.0
C      1  0.5641370000000  0.5852180000000  0.5120880000000 1.0
C      1  0.4720150000000  0.4928060000000  0.4168710000000 1.0
C      1  0.4706040000000  0.4930050000000  0.5893740000000 1.0
C      1  0.5533270000000  0.5099780000000  0.5856930000000 1.0
C      1  0.5553490000000  0.5103800000000  0.4146250000000 1.0
C      1  0.4934830000000  0.4542980000000  0.4649370000000 1.0
C      1  0.5027460000000  0.4463890000000  0.5240860000000 1.0
C      1  0.4905640000000  0.4041330000000  0.5139920000000 1.0
C      1  0.4926820000000  0.4038100000000  0.4858600000000 1.0
C      1  0.5667210000000  0.4709280000000  0.5228600000000 1.0
C      1  0.5617010000000  0.4659500000000  0.4717550000000 1.0
END
