TITL C-2441157-2117-1131 0.00177373199033812 125000 -7577.96960718323 0 0 51 (C1) n - 1
REM
REM in /home/bkarasulu/work/CARBON/AIRSS/Generating-Clusters/ReaxFF-fromJPCA2015/Units_Real/with-SteepDescent/Higher-Symm
REM
REM
REM
REM
REM
REM ./C.cell (1df0a924f5614ab8850e4351716899ee)
REM
REM compiler GCC version 9.2.1 20190827 (Red Hat 9.2.1-1)
REM options -cpp -mtune=generic -march=x86-64 -g -O0 -fpre-include=/usr/include/finclude/math-vector-fortran.h
REM seed -921613888 -1014149690 2027697133 -1407080299 -1829131046 -1983232972 853217638 -694283461 -615404310 1756973291 587787346 -1918330930 198705603 164582505 -141368260 1288594769 826502695 139667428 -1779496251 -2007982799 -1143334229 -1604246183 505726488 -877758000 -654702132 1713088896 820725977 319097776 823288110 -116568973 -1058222520 -1605090635 146203943
REM
CELL 1.54180   50.00000   50.00000   50.00000   90.00000   90.00000   90.00000
LATT -1
SFAC C  
C      1  0.5002650000000  0.4307510000000  0.5069670000000 1.0
C      1  0.5041480000000  0.5355590000000  0.5525560000000 1.0
C      1  0.5126160000000  0.5369560000000  0.4437780000000 1.0
C      1  0.4592360000000  0.4346000000000  0.5322050000000 1.0
C      1  0.4629340000000  0.5590050000000  0.5434400000000 1.0
C      1  0.4773310000000  0.5044840000000  0.4354130000000 1.0
C      1  0.4439020000000  0.5277490000000  0.5099190000000 1.0
C      1  0.4465020000000  0.4932700000000  0.4728540000000 1.0
C      1  0.4439740000000  0.4789230000000  0.5214600000000 1.0
C      1  0.4816820000000  0.5344490000000  0.4477770000000 1.0
C      1  0.4708640000000  0.4316250000000  0.5047450000000 1.0
C      1  0.4749110000000  0.5350830000000  0.5576540000000 1.0
C      1  0.5286500000000  0.5251050000000  0.5140300000000 1.0
C      1  0.5375370000000  0.4944070000000  0.4533120000000 1.0
C      1  0.5285550000000  0.4667950000000  0.5093720000000 1.0
C      1  0.4736100000000  0.4583880000000  0.4599480000000 1.0
C      1  0.4765830000000  0.4830650000000  0.5537860000000 1.0
C      1  0.4702630000000  0.5590700000000  0.4905520000000 1.0
C      1  0.4460740000000  0.5213260000000  0.4812820000000 1.0
C      1  0.4449140000000  0.4722810000000  0.4927740000000 1.0
C      1  0.4451070000000  0.5065970000000  0.5301510000000 1.0
C      1  0.5739800000000  0.4694860000000  0.4722950000000 1.0
C      1  0.5643860000000  0.4922550000000  0.5308990000000 1.0
C      1  0.5634320000000  0.5408820000000  0.4838020000000 1.0
C      1  0.4874770000000  0.5726200000000  0.5459470000000 1.0
C      1  0.5012560000000  0.4994760000000  0.4193460000000 1.0
C      1  0.4835320000000  0.4291590000000  0.5449360000000 1.0
C      1  0.4551420000000  0.5537500000000  0.5150340000000 1.0
C      1  0.4627760000000  0.4838510000000  0.4505160000000 1.0
C      1  0.4581390000000  0.4631060000000  0.5416210000000 1.0
C      1  0.5254720000000  0.5133560000000  0.4333590000000 1.0
C      1  0.5095300000000  0.4348360000000  0.5357550000000 1.0
C      1  0.5122950000000  0.5614540000000  0.5388430000000 1.0
C      1  0.5818540000000  0.4468730000000  0.4678870000000 1.0
C      1  0.5726250000000  0.5029210000000  0.5511980000000 1.0
C      1  0.5735570000000  0.5592100000000  0.4716900000000 1.0
C      1  0.5590450000000  0.4933270000000  0.4778010000000 1.0
C      1  0.5548180000000  0.4799580000000  0.5073960000000 1.0
C      1  0.5525790000000  0.5204090000000  0.4967740000000 1.0
C      1  0.4614180000000  0.5421780000000  0.4690650000000 1.0
C      1  0.4596630000000  0.4487520000000  0.4835260000000 1.0
C      1  0.4625530000000  0.5087710000000  0.5537310000000 1.0
C      1  0.5179710000000  0.4780410000000  0.4530860000000 1.0
C      1  0.5194320000000  0.4628520000000  0.5368520000000 1.0
C      1  0.5176650000000  0.5519510000000  0.5111590000000 1.0
C      1  0.5143470000000  0.4498190000000  0.4903270000000 1.0
C      1  0.5154190000000  0.5130450000000  0.5377930000000 1.0
C      1  0.5024870000000  0.5383270000000  0.4678370000000 1.0
C      1  0.4996000000000  0.5564270000000  0.4887010000000 1.0
C      1  0.5031680000000  0.4570380000000  0.4633060000000 1.0
C      1  0.5047240000000  0.4863800000000  0.5455420000000 1.0
END
