TITL C-2441157-2117-1046 0.131775556758329 125000 -23727.5058112785 0 0 184 (C1) n - 1
REM
REM in /home/bkarasulu/work/CARBON/AIRSS/Generating-Clusters/ReaxFF-fromJPCA2015/Units_Real/with-SteepDescent/Higher-Symm
REM
REM
REM
REM
REM
REM ./C.cell (1df0a924f5614ab8850e4351716899ee)
REM
REM compiler GCC version 9.2.1 20190827 (Red Hat 9.2.1-1)
REM options -cpp -mtune=generic -march=x86-64 -g -O0 -fpre-include=/usr/include/finclude/math-vector-fortran.h
REM seed -1782837979 -1389199869 -1523785826 1638958227 1352725417 1892729354 -1462458448 1110061562 1108929270 436035090 1612079237 -1498340516 1127141789 1857488815 1438228371 -1163734541 965252552 495548000 1201997477 952584823 287053648 -962840429 194897011 -52919381 283958143 -670895042 -874188193 -209703997 -1287805808 606358793 247825438 -1875564061 2144119387
REM
CELL 1.54180   50.00000   50.00000   50.00000   90.00000   90.00000   90.00000
LATT -1
SFAC C  
C      1  0.4247000000000  0.5587490000000  0.5581760000000 1.0
C      1  0.4006150000000  0.5086930000000  0.5576860000000 1.0
C      1  0.4145930000000  0.4548460000000  0.5574960000000 1.0
C      1  0.4516950000000  0.4121530000000  0.5587270000000 1.0
C      1  0.5064200000000  0.3991100000000  0.5613570000000 1.0
C      1  0.5579480000000  0.4197180000000  0.5638960000000 1.0
C      1  0.5935540000000  0.4642120000000  0.5585040000000 1.0
C      1  0.5967470000000  0.5181610000000  0.5668190000000 1.0
C      1  0.5728950000000  0.5659840000000  0.5661470000000 1.0
C      1  0.5245270000000  0.5952300000000  0.5637030000000 1.0
C      1  0.4677430000000  0.5942530000000  0.5661790000000 1.0
C      1  0.4588190000000  0.5304470000000  0.5381820000000 1.0
C      1  0.4464970000000  0.5046450000000  0.5502150000000 1.0
C      1  0.4495580000000  0.4732270000000  0.5524780000000 1.0
C      1  0.4715670000000  0.4580510000000  0.5370980000000 1.0
C      1  0.5024940000000  0.4494490000000  0.5520430000000 1.0
C      1  0.5373320000000  0.4569750000000  0.5516370000000 1.0
C      1  0.5424610000000  0.4816820000000  0.5369350000000 1.0
C      1  0.5506210000000  0.5122330000000  0.5497650000000 1.0
C      1  0.5335620000000  0.5415770000000  0.5481780000000 1.0
C      1  0.5072330000000  0.5565390000000  0.5368820000000 1.0
C      1  0.4794210000000  0.5503170000000  0.5499350000000 1.0
C      1  0.6048110000000  0.5060290000000  0.5148090000000 1.0
C      1  0.5869920000000  0.5565170000000  0.5051410000000 1.0
C      1  0.5279440000000  0.6040450000000  0.5010840000000 1.0
C      1  0.4807280000000  0.6016050000000  0.5015240000000 1.0
C      1  0.4202830000000  0.5702520000000  0.4906770000000 1.0
C      1  0.3947140000000  0.5268620000000  0.5033550000000 1.0
C      1  0.3952390000000  0.4495600000000  0.4931460000000 1.0
C      1  0.4314660000000  0.4135360000000  0.5042400000000 1.0
C      1  0.4832820000000  0.3988660000000  0.5158240000000 1.0
C      1  0.5567750000000  0.4152610000000  0.5010260000000 1.0
C      1  0.5944080000000  0.4497040000000  0.5100710000000 1.0
C      1  0.4112480000000  0.4914830000000  0.4345130000000 1.0
C      1  0.4271770000000  0.4458520000000  0.4306600000000 1.0
C      1  0.4716120000000  0.4235720000000  0.4270950000000 1.0
C      1  0.5221590000000  0.4144610000000  0.4257330000000 1.0
C      1  0.5625940000000  0.4388410000000  0.4262020000000 1.0
C      1  0.5788920000000  0.4827350000000  0.4266810000000 1.0
C      1  0.5764130000000  0.5310400000000  0.4258910000000 1.0
C      1  0.5507130000000  0.5733010000000  0.4297170000000 1.0
C      1  0.5046420000000  0.5819000000000  0.4252030000000 1.0
C      1  0.4547050000000  0.5743790000000  0.4304970000000 1.0
C      1  0.4259080000000  0.5403090000000  0.4287110000000 1.0
C      1  0.4163710000000  0.5138480000000  0.4894010000000 1.0
C      1  0.4046670000000  0.4727390000000  0.5093490000000 1.0
C      1  0.4468570000000  0.4387430000000  0.4991010000000 1.0
C      1  0.4842100000000  0.4184960000000  0.4954830000000 1.0
C      1  0.5304180000000  0.4223950000000  0.4952710000000 1.0
C      1  0.5933590000000  0.4588270000000  0.4829500000000 1.0
C      1  0.5952260000000  0.5099690000000  0.4891130000000 1.0
C      1  0.5665260000000  0.5394160000000  0.4951060000000 1.0
C      1  0.5480200000000  0.5853570000000  0.4991960000000 1.0
C      1  0.4959880000000  0.5789740000000  0.4925250000000 1.0
C      1  0.4480770000000  0.5635920000000  0.5067510000000 1.0
C      1  0.5741240000000  0.4291590000000  0.5188450000000 1.0
C      1  0.5947070000000  0.4750950000000  0.5264000000000 1.0
C      1  0.5972270000000  0.5331380000000  0.5231120000000 1.0
C      1  0.5664020000000  0.5726490000000  0.5175370000000 1.0
C      1  0.5064760000000  0.6083200000000  0.5185480000000 1.0
C      1  0.4596750000000  0.5890690000000  0.5172520000000 1.0
C      1  0.4081510000000  0.5523380000000  0.5098270000000 1.0
C      1  0.4027980000000  0.5065810000000  0.5260530000000 1.0
C      1  0.4097890000000  0.4323820000000  0.5125720000000 1.0
C      1  0.4543560000000  0.4065440000000  0.5264470000000 1.0
C      1  0.5073610000000  0.4028140000000  0.5316920000000 1.0
C      1  0.5175360000000  0.4467430000000  0.5063520000000 1.0
C      1  0.5275700000000  0.4785940000000  0.5108410000000 1.0
C      1  0.5502280000000  0.4931430000000  0.4996010000000 1.0
C      1  0.5464970000000  0.5231210000000  0.5070210000000 1.0
C      1  0.5224420000000  0.5353830000000  0.4980340000000 1.0
C      1  0.5013140000000  0.5533940000000  0.5070440000000 1.0
C      1  0.4735390000000  0.5432510000000  0.4993900000000 1.0
C      1  0.4706040000000  0.5195400000000  0.5145830000000 1.0
C      1  0.4527420000000  0.4917800000000  0.5054540000000 1.0
C      1  0.4726580000000  0.4709000000000  0.5110470000000 1.0
C      1  0.4874630000000  0.4493950000000  0.4963920000000 1.0
C      1  0.4329330000000  0.4322540000000  0.5664640000000 1.0
C      1  0.4782570000000  0.4059270000000  0.5688060000000 1.0
C      1  0.5318050000000  0.4088400000000  0.5728130000000 1.0
C      1  0.5787800000000  0.4413460000000  0.5691690000000 1.0
C      1  0.5953170000000  0.4895530000000  0.5679940000000 1.0
C      1  0.5871470000000  0.5435390000000  0.5794120000000 1.0
C      1  0.5507910000000  0.5846840000000  0.5736900000000 1.0
C      1  0.4964080000000  0.5958330000000  0.5736190000000 1.0
C      1  0.4420160000000  0.5785550000000  0.5713950000000 1.0
C      1  0.4099640000000  0.5350850000000  0.5677670000000 1.0
C      1  0.4062580000000  0.4824290000000  0.5677550000000 1.0
C      1  0.5826930000000  0.5337920000000  0.4727410000000 1.0
C      1  0.5553900000000  0.5823020000000  0.4709560000000 1.0
C      1  0.5046010000000  0.5924960000000  0.4691080000000 1.0
C      1  0.4513010000000  0.5894920000000  0.4705460000000 1.0
C      1  0.4175270000000  0.5337700000000  0.4716160000000 1.0
C      1  0.4084970000000  0.4859620000000  0.4819470000000 1.0
C      1  0.4360810000000  0.4391680000000  0.4728020000000 1.0
C      1  0.4723790000000  0.4055410000000  0.4709500000000 1.0
C      1  0.5241880000000  0.4056600000000  0.4706450000000 1.0
C      1  0.5678390000000  0.4301520000000  0.4687440000000 1.0
C      1  0.5980890000000  0.4869190000000  0.4722110000000 1.0
C      1  0.4756730000000  0.5402510000000  0.4707650000000 1.0
C      1  0.4596030000000  0.5196500000000  0.4605980000000 1.0
C      1  0.4534970000000  0.4948630000000  0.4718610000000 1.0
C      1  0.4670960000000  0.4730680000000  0.4593770000000 1.0
C      1  0.4852660000000  0.4538140000000  0.4669610000000 1.0
C      1  0.5120060000000  0.4539220000000  0.4572860000000 1.0
C      1  0.5347650000000  0.4672990000000  0.4613760000000 1.0
C      1  0.5474160000000  0.4914110000000  0.4701470000000 1.0
C      1  0.5397600000000  0.5167040000000  0.4586590000000 1.0
C      1  0.5229340000000  0.5345510000000  0.4705610000000 1.0
C      1  0.5001700000000  0.5435120000000  0.4585850000000 1.0
C      1  0.5814460000000  0.5638370000000  0.4652510000000 1.0
C      1  0.5330180000000  0.6029800000000  0.4610970000000 1.0
C      1  0.4751570000000  0.6028170000000  0.4603820000000 1.0
C      1  0.4235490000000  0.5812070000000  0.4634290000000 1.0
C      1  0.3919280000000  0.5280740000000  0.4620280000000 1.0
C      1  0.3955800000000  0.4624110000000  0.4670470000000 1.0
C      1  0.4399080000000  0.4124750000000  0.4632970000000 1.0
C      1  0.4976990000000  0.3932320000000  0.4574740000000 1.0
C      1  0.5541130000000  0.4051070000000  0.4606480000000 1.0
C      1  0.5925490000000  0.4438410000000  0.4590700000000 1.0
C      1  0.6163600000000  0.5040420000000  0.4482430000000 1.0
C      1  0.5498650000000  0.5191380000000  0.4127740000000 1.0
C      1  0.5270080000000  0.5346160000000  0.4125210000000 1.0
C      1  0.5039840000000  0.5509990000000  0.4125420000000 1.0
C      1  0.4786030000000  0.5393070000000  0.4133710000000 1.0
C      1  0.4533970000000  0.5282690000000  0.4143520000000 1.0
C      1  0.4572780000000  0.5007580000000  0.4134060000000 1.0
C      1  0.4652610000000  0.4756470000000  0.4130790000000 1.0
C      1  0.4798690000000  0.4519950000000  0.4137110000000 1.0
C      1  0.5063980000000  0.4594720000000  0.4126910000000 1.0
C      1  0.5292690000000  0.4725630000000  0.4131200000000 1.0
C      1  0.5511180000000  0.4898210000000  0.4141060000000 1.0
C      1  0.4410620000000  0.4621630000000  0.4530380000000 1.0
C      1  0.4758520000000  0.4301470000000  0.4548610000000 1.0
C      1  0.5187000000000  0.4283790000000  0.4509740000000 1.0
C      1  0.5530630000000  0.4487090000000  0.4520800000000 1.0
C      1  0.5733790000000  0.4909670000000  0.4562120000000 1.0
C      1  0.5674810000000  0.5196450000000  0.4524980000000 1.0
C      1  0.5389230000000  0.5634680000000  0.4544080000000 1.0
C      1  0.5115860000000  0.5680530000000  0.4521960000000 1.0
C      1  0.4582160000000  0.5628150000000  0.4584390000000 1.0
C      1  0.4398240000000  0.5391100000000  0.4558800000000 1.0
C      1  0.4276450000000  0.4865520000000  0.4592290000000 1.0
C      1  0.5158940000000  0.5863150000000  0.5365720000000 1.0
C      1  0.4710050000000  0.5782430000000  0.5416690000000 1.0
C      1  0.4324880000000  0.5491470000000  0.5295680000000 1.0
C      1  0.4311320000000  0.5001550000000  0.5253800000000 1.0
C      1  0.4202490000000  0.4559620000000  0.5280590000000 1.0
C      1  0.4589430000000  0.4348090000000  0.5227240000000 1.0
C      1  0.5114790000000  0.4313680000000  0.5306030000000 1.0
C      1  0.5519460000000  0.4334680000000  0.5382040000000 1.0
C      1  0.5665330000000  0.4785890000000  0.5201020000000 1.0
C      1  0.5789430000000  0.5210270000000  0.5428200000000 1.0
C      1  0.5570080000000  0.5587410000000  0.5413420000000 1.0
C      1  0.4957870000000  0.4018140000000  0.4310920000000 1.0
C      1  0.5512100000000  0.4120730000000  0.4330460000000 1.0
C      1  0.5868640000000  0.4536870000000  0.4323840000000 1.0
C      1  0.5981730000000  0.5088900000000  0.4280300000000 1.0
C      1  0.5763380000000  0.5607010000000  0.4375140000000 1.0
C      1  0.5313680000000  0.5957960000000  0.4333780000000 1.0
C      1  0.4769870000000  0.5930890000000  0.4333030000000 1.0
C      1  0.4264610000000  0.5695360000000  0.4361100000000 1.0
C      1  0.4027730000000  0.5193110000000  0.4366460000000 1.0
C      1  0.4043970000000  0.4627010000000  0.4389700000000 1.0
C      1  0.4403360000000  0.4208200000000  0.4358350000000 1.0
C      1  0.5335860000000  0.5373210000000  0.5790800000000 1.0
C      1  0.5080700000000  0.5428330000000  0.5858130000000 1.0
C      1  0.4809920000000  0.5472560000000  0.5823140000000 1.0
C      1  0.4630740000000  0.5262910000000  0.5868060000000 1.0
C      1  0.4479780000000  0.5047180000000  0.5831790000000 1.0
C      1  0.4565690000000  0.4765830000000  0.5806360000000 1.0
C      1  0.4816420000000  0.4670910000000  0.5929290000000 1.0
C      1  0.5027970000000  0.4509610000000  0.5811580000000 1.0
C      1  0.5317660000000  0.4591170000000  0.5816810000000 1.0
C      1  0.5414030000000  0.4848550000000  0.5864860000000 1.0
C      1  0.5489220000000  0.5101190000000  0.5799820000000 1.0
C      1  0.4984990000000  0.4995380000000  0.4183050000000 1.0
C      1  0.5070760000000  0.4949070000000  0.4988820000000 1.0
C      1  0.4959010000000  0.5071670000000  0.5214810000000 1.0
C      1  0.4964540000000  0.4933890000000  0.6014100000000 1.0
C      1  0.5003910000000  0.4988330000000  0.5729750000000 1.0
C      1  0.5014650000000  0.4977730000000  0.4713390000000 1.0
C      1  0.4999880000000  0.4986550000000  0.4449330000000 1.0
C      1  0.4993650000000  0.5023420000000  0.5479000000000 1.0
END
