TITL C-2441166-8118-337 0.0626729450817937 125000 -15898.0319759275 0 0 116 (C1) n - 1
REM
REM in /home/bkarasulu/work/CARBON/AIRSS/Generating-Clusters/ReaxFF-fromJPCA2015/Units_Real/with-SteepDescent/Higher-Symm
REM
REM
REM
REM
REM
REM ./C.cell (1df0a924f5614ab8850e4351716899ee)
REM
REM compiler GCC version 9.2.1 20190827 (Red Hat 9.2.1-1)
REM options -cpp -mtune=generic -march=x86-64 -g -O0 -fpre-include=/usr/include/finclude/math-vector-fortran.h
REM seed -363501391 1849687849 -925250085 170850104 -2036356249 -8902888 -508709877 1881931808 1636981821 849296506 -807147836 -1292206525 -494795454 -726343223 -1242440548 -489365736 1272441550 -1990353992 -107828258 -1012626724 209354712 1509978190 357054447 216359959 845416356 -170808830 -905831132 -1382742226 -1199206492 1543559535 -494238984 929056540 261279744
REM
CELL 1.54180   50.00000   50.00000   50.00000   90.00000   90.00000   90.00000
LATT -1
SFAC C  
C      1  0.5455990000000  0.5608850000000  0.5221420000000 1.0
C      1  0.4177840000000  0.4586350000000  0.4574920000000 1.0
C      1  0.4639510000000  0.5435990000000  0.4839360000000 1.0
C      1  0.5012050000000  0.5918050000000  0.5191700000000 1.0
C      1  0.4987890000000  0.4580990000000  0.5238700000000 1.0
C      1  0.4147810000000  0.5220290000000  0.4526660000000 1.0
C      1  0.4318790000000  0.4768630000000  0.4394120000000 1.0
C      1  0.4289650000000  0.5098210000000  0.4769310000000 1.0
C      1  0.5727600000000  0.5323730000000  0.4580060000000 1.0
C      1  0.4391990000000  0.4646240000000  0.5563260000000 1.0
C      1  0.4745010000000  0.4689510000000  0.5809520000000 1.0
C      1  0.5037890000000  0.4120770000000  0.5377940000000 1.0
C      1  0.4590960000000  0.4681020000000  0.4358940000000 1.0
C      1  0.5680610000000  0.5000070000000  0.4207810000000 1.0
C      1  0.4669210000000  0.4234010000000  0.5003670000000 1.0
C      1  0.5444780000000  0.4846380000000  0.5750370000000 1.0
C      1  0.4744120000000  0.5921730000000  0.5331530000000 1.0
C      1  0.5434160000000  0.5071490000000  0.5294690000000 1.0
C      1  0.5234660000000  0.5198350000000  0.5441880000000 1.0
C      1  0.5324780000000  0.5169260000000  0.4651350000000 1.0
C      1  0.5721840000000  0.5285650000000  0.4865730000000 1.0
C      1  0.5187100000000  0.4697790000000  0.4132420000000 1.0
C      1  0.4556040000000  0.4968540000000  0.4773700000000 1.0
C      1  0.4549250000000  0.5257220000000  0.4323440000000 1.0
C      1  0.5502610000000  0.5566150000000  0.5640910000000 1.0
C      1  0.5481000000000  0.5430340000000  0.4935910000000 1.0
C      1  0.5219970000000  0.4907720000000  0.4572840000000 1.0
C      1  0.5812130000000  0.4864950000000  0.4660150000000 1.0
C      1  0.5566340000000  0.5667680000000  0.4778690000000 1.0
C      1  0.4408240000000  0.4449520000000  0.5365260000000 1.0
C      1  0.5259570000000  0.4546590000000  0.4805910000000 1.0
C      1  0.4568320000000  0.5504800000000  0.5443060000000 1.0
C      1  0.4497010000000  0.5853440000000  0.4856330000000 1.0
C      1  0.5711920000000  0.4969230000000  0.4919990000000 1.0
C      1  0.5050970000000  0.4679500000000  0.4976260000000 1.0
C      1  0.5363110000000  0.5324730000000  0.5672650000000 1.0
C      1  0.4314410000000  0.5065010000000  0.4334290000000 1.0
C      1  0.4572930000000  0.4484570000000  0.4874280000000 1.0
C      1  0.5127630000000  0.4083450000000  0.5105700000000 1.0
C      1  0.4564980000000  0.5918580000000  0.5115800000000 1.0
C      1  0.5179250000000  0.5721620000000  0.5324350000000 1.0
C      1  0.5730030000000  0.4593720000000  0.4605520000000 1.0
C      1  0.4846710000000  0.4335320000000  0.5410540000000 1.0
C      1  0.4691260000000  0.4733560000000  0.4643830000000 1.0
C      1  0.5611370000000  0.5812440000000  0.5043080000000 1.0
C      1  0.5597680000000  0.4347140000000  0.5168520000000 1.0
C      1  0.5382430000000  0.4197840000000  0.5021050000000 1.0
C      1  0.4810410000000  0.5286200000000  0.4208740000000 1.0
C      1  0.4648470000000  0.4889060000000  0.5226340000000 1.0
C      1  0.4054660000000  0.5139650000000  0.5223710000000 1.0
C      1  0.4688530000000  0.5056580000000  0.5014410000000 1.0
C      1  0.4907740000000  0.4342970000000  0.4399890000000 1.0
C      1  0.5393500000000  0.4397340000000  0.5522920000000 1.0
C      1  0.4605260000000  0.5349070000000  0.5673510000000 1.0
C      1  0.4121980000000  0.4552160000000  0.4853470000000 1.0
C      1  0.5298840000000  0.4676650000000  0.4403720000000 1.0
C      1  0.5131460000000  0.5708730000000  0.4851020000000 1.0
C      1  0.4327430000000  0.4903810000000  0.5639670000000 1.0
C      1  0.5427030000000  0.5140090000000  0.4174890000000 1.0
C      1  0.5824860000000  0.5076290000000  0.4470390000000 1.0
C      1  0.4590860000000  0.5455640000000  0.4546050000000 1.0
C      1  0.4463640000000  0.4652180000000  0.5131730000000 1.0
C      1  0.5713790000000  0.4572020000000  0.5041390000000 1.0
C      1  0.5268480000000  0.4603770000000  0.5651740000000 1.0
C      1  0.4910280000000  0.4113740000000  0.4900440000000 1.0
C      1  0.5132930000000  0.5463370000000  0.5788030000000 1.0
C      1  0.4961920000000  0.5231810000000  0.5363490000000 1.0
C      1  0.4227890000000  0.5106180000000  0.5437870000000 1.0
C      1  0.5662030000000  0.5472260000000  0.5432210000000 1.0
C      1  0.5410800000000  0.4946720000000  0.5043430000000 1.0
C      1  0.5003900000000  0.4194970000000  0.4627230000000 1.0
C      1  0.4119130000000  0.4999170000000  0.4989620000000 1.0
C      1  0.4755730000000  0.5696220000000  0.5520580000000 1.0
C      1  0.4714550000000  0.5179970000000  0.5855300000000 1.0
C      1  0.5821310000000  0.4924730000000  0.5400330000000 1.0
C      1  0.5075670000000  0.5313680000000  0.4702750000000 1.0
C      1  0.4324610000000  0.4412390000000  0.4745120000000 1.0
C      1  0.5278310000000  0.4260540000000  0.4750210000000 1.0
C      1  0.4859260000000  0.5192380000000  0.4611630000000 1.0
C      1  0.4941100000000  0.4530370000000  0.4168590000000 1.0
C      1  0.5667220000000  0.4716280000000  0.4217730000000 1.0
C      1  0.5311170000000  0.5725190000000  0.4620800000000 1.0
C      1  0.5214560000000  0.4186070000000  0.5589900000000 1.0
C      1  0.4950980000000  0.5194420000000  0.5072320000000 1.0
C      1  0.5137210000000  0.4959680000000  0.4982890000000 1.0
C      1  0.4754290000000  0.5878490000000  0.4701280000000 1.0
C      1  0.4907600000000  0.5033870000000  0.4106680000000 1.0
C      1  0.4930170000000  0.4927560000000  0.4590200000000 1.0
C      1  0.4167730000000  0.5361050000000  0.5341760000000 1.0
C      1  0.4820450000000  0.4426660000000  0.5729060000000 1.0
C      1  0.4558020000000  0.4910130000000  0.5830770000000 1.0
C      1  0.4605500000000  0.4252190000000  0.5285090000000 1.0
C      1  0.5553880000000  0.4517870000000  0.4376920000000 1.0
C      1  0.4954060000000  0.4860990000000  0.5624950000000 1.0
C      1  0.5113500000000  0.4724410000000  0.5440950000000 1.0
C      1  0.4936500000000  0.5460350000000  0.4915060000000 1.0
C      1  0.5645340000000  0.4747700000000  0.5555250000000 1.0
C      1  0.4973550000000  0.5944010000000  0.4890750000000 1.0
C      1  0.5636580000000  0.4473510000000  0.5428110000000 1.0
C      1  0.5195190000000  0.4990310000000  0.4080750000000 1.0
C      1  0.5540320000000  0.4604100000000  0.4823410000000 1.0
C      1  0.4362550000000  0.5522960000000  0.5239490000000 1.0
C      1  0.5025560000000  0.5594940000000  0.5533860000000 1.0
C      1  0.5696630000000  0.5187830000000  0.5376890000000 1.0
C      1  0.5024800000000  0.5206440000000  0.5876140000000 1.0
C      1  0.4769290000000  0.4769110000000  0.4141890000000 1.0
C      1  0.4198800000000  0.4730020000000  0.5048040000000 1.0
C      1  0.5239580000000  0.5568050000000  0.4390870000000 1.0
C      1  0.4770850000000  0.5687420000000  0.4478520000000 1.0
C      1  0.5093560000000  0.4368170000000  0.5779670000000 1.0
C      1  0.5190510000000  0.4978040000000  0.5804390000000 1.0
C      1  0.4961820000000  0.5532680000000  0.4321510000000 1.0
C      1  0.4799180000000  0.5008770000000  0.5434810000000 1.0
C      1  0.5832770000000  0.4815550000000  0.5133490000000 1.0
C      1  0.5442760000000  0.5330900000000  0.4411850000000 1.0
C      1  0.4411760000000  0.5576500000000  0.4956120000000 1.0
END
