TITL C-2441164-471-1309 0.0248055767804603 125000 -29082.3072104306 0 0 198 (C1) n - 1
REM
REM in /home/bkarasulu/work/CARBON/AIRSS/Generating-Clusters/ReaxFF-fromJPCA2015/Units_Real/with-SteepDescent/Higher-Symm
REM
REM
REM
REM
REM
REM ./C.cell (1df0a924f5614ab8850e4351716899ee)
REM
REM compiler GCC version 9.2.1 20190827 (Red Hat 9.2.1-1)
REM options -cpp -mtune=generic -march=x86-64 -g -O0 -fpre-include=/usr/include/finclude/math-vector-fortran.h
REM seed -367713205 -362396357 607508057 -242904035 -771018788 397026293 -62386908 -383194542 -1147193458 -1392730871 1859912208 41719993 -1336035934 -1574876205 -924095016 1177807242 553973534 1812362062 1571452432 1107491078 -1274195184 -1056564393 301690989 -2048511718 2121513667 -784658501 125053037 1153643888 -382817635 879229391 245601283 -1684738404 -1255984941
REM
CELL 1.54180   50.00000   50.00000   50.00000   90.00000   90.00000   90.00000
LATT -1
SFAC C  
C      1  0.4199940000000  0.4871540000000  0.4180290000000 1.0
C      1  0.4437910000000  0.4429520000000  0.4104020000000 1.0
C      1  0.5176710000000  0.4236550000000  0.4145850000000 1.0
C      1  0.5806380000000  0.4644260000000  0.4167230000000 1.0
C      1  0.5728380000000  0.5443940000000  0.4174330000000 1.0
C      1  0.5104950000000  0.5781100000000  0.4116820000000 1.0
C      1  0.4461880000000  0.5669450000000  0.4166330000000 1.0
C      1  0.4647640000000  0.3982090000000  0.4637140000000 1.0
C      1  0.5598400000000  0.4058060000000  0.4678500000000 1.0
C      1  0.5941090000000  0.4929100000000  0.4646430000000 1.0
C      1  0.5754440000000  0.5825360000000  0.4605920000000 1.0
C      1  0.4866390000000  0.6141970000000  0.4650680000000 1.0
C      1  0.4106160000000  0.5545410000000  0.4592480000000 1.0
C      1  0.3957040000000  0.4600000000000  0.4618670000000 1.0
C      1  0.5680510000000  0.4776340000000  0.5212470000000 1.0
C      1  0.5623140000000  0.5359730000000  0.4929140000000 1.0
C      1  0.5100240000000  0.5794160000000  0.5139700000000 1.0
C      1  0.4459840000000  0.5591000000000  0.5152960000000 1.0
C      1  0.4375080000000  0.4880090000000  0.5137750000000 1.0
C      1  0.4731820000000  0.4377130000000  0.5157710000000 1.0
C      1  0.5238900000000  0.4411200000000  0.5175660000000 1.0
C      1  0.4541270000000  0.6001680000000  0.5596550000000 1.0
C      1  0.3969600000000  0.5241630000000  0.5583320000000 1.0
C      1  0.4140470000000  0.4324050000000  0.5600320000000 1.0
C      1  0.5025420000000  0.3883650000000  0.5607110000000 1.0
C      1  0.5875890000000  0.4338680000000  0.5656450000000 1.0
C      1  0.6143350000000  0.5257360000000  0.5545780000000 1.0
C      1  0.5471020000000  0.5877620000000  0.5580040000000 1.0
C      1  0.4271050000000  0.5383660000000  0.5283810000000 1.0
C      1  0.4303220000000  0.4630870000000  0.5252100000000 1.0
C      1  0.4814490000000  0.4144900000000  0.5309760000000 1.0
C      1  0.5483820000000  0.4367560000000  0.5338430000000 1.0
C      1  0.5794610000000  0.5031490000000  0.5326410000000 1.0
C      1  0.5575920000000  0.5499510000000  0.5186920000000 1.0
C      1  0.4870410000000  0.5861770000000  0.5302790000000 1.0
C      1  0.5463650000000  0.4443500000000  0.5979900000000 1.0
C      1  0.5681410000000  0.4990310000000  0.5950490000000 1.0
C      1  0.5468950000000  0.5458730000000  0.5921590000000 1.0
C      1  0.4903460000000  0.5618150000000  0.5923230000000 1.0
C      1  0.4374500000000  0.5387600000000  0.5971950000000 1.0
C      1  0.4312900000000  0.4670190000000  0.5948430000000 1.0
C      1  0.4783850000000  0.4250640000000  0.5939120000000 1.0
C      1  0.5588080000000  0.5703870000000  0.5796400000000 1.0
C      1  0.4794300000000  0.5964360000000  0.5728910000000 1.0
C      1  0.4124940000000  0.5382580000000  0.5792710000000 1.0
C      1  0.4114080000000  0.4529750000000  0.5804550000000 1.0
C      1  0.4823120000000  0.3992390000000  0.5792680000000 1.0
C      1  0.5663760000000  0.4260070000000  0.5853880000000 1.0
C      1  0.6015070000000  0.5073860000000  0.5720000000000 1.0
C      1  0.4830550000000  0.5240750000000  0.4846070000000 1.0
C      1  0.4784720000000  0.5019300000000  0.4683430000000 1.0
C      1  0.4769820000000  0.4793660000000  0.4833440000000 1.0
C      1  0.5049800000000  0.4710580000000  0.4871620000000 1.0
C      1  0.5270300000000  0.4832290000000  0.4781140000000 1.0
C      1  0.5307010000000  0.5093250000000  0.4767580000000 1.0
C      1  0.5127420000000  0.5296590000000  0.4866560000000 1.0
C      1  0.4932670000000  0.5791500000000  0.4908590000000 1.0
C      1  0.4452430000000  0.5486960000000  0.4876450000000 1.0
C      1  0.4268690000000  0.4810990000000  0.4839440000000 1.0
C      1  0.4836980000000  0.4280980000000  0.4905850000000 1.0
C      1  0.5348710000000  0.4296280000000  0.4915470000000 1.0
C      1  0.5652540000000  0.4818360000000  0.4922450000000 1.0
C      1  0.5462870000000  0.5542300000000  0.4773960000000 1.0
C      1  0.5153240000000  0.5292500000000  0.5187000000000 1.0
C      1  0.4863930000000  0.5332750000000  0.5316200000000 1.0
C      1  0.4730500000000  0.5188460000000  0.5111620000000 1.0
C      1  0.4676400000000  0.4908600000000  0.5111030000000 1.0
C      1  0.4853130000000  0.4769060000000  0.5284480000000 1.0
C      1  0.5122070000000  0.4748020000000  0.5175570000000 1.0
C      1  0.5233360000000  0.5013640000000  0.5268820000000 1.0
C      1  0.5229260000000  0.4538880000000  0.4481620000000 1.0
C      1  0.5540850000000  0.4892470000000  0.4403730000000 1.0
C      1  0.5248900000000  0.5313620000000  0.4367520000000 1.0
C      1  0.4924520000000  0.5659680000000  0.4663340000000 1.0
C      1  0.4604030000000  0.5314500000000  0.4416630000000 1.0
C      1  0.4414610000000  0.4812670000000  0.4588050000000 1.0
C      1  0.4785210000000  0.4436350000000  0.4530790000000 1.0
C      1  0.4830040000000  0.4537460000000  0.5911700000000 1.0
C      1  0.5365130000000  0.4720640000000  0.5955370000000 1.0
C      1  0.5419180000000  0.4997330000000  0.6032760000000 1.0
C      1  0.5231830000000  0.5259720000000  0.5953590000000 1.0
C      1  0.4935770000000  0.5384820000000  0.6043990000000 1.0
C      1  0.4656330000000  0.5289130000000  0.5999360000000 1.0
C      1  0.4594270000000  0.4713080000000  0.5922980000000 1.0
C      1  0.4594280000000  0.4601040000000  0.4673200000000 1.0
C      1  0.5024080000000  0.4468720000000  0.4688450000000 1.0
C      1  0.5442720000000  0.4692070000000  0.4609080000000 1.0
C      1  0.5447710000000  0.5136740000000  0.4520240000000 1.0
C      1  0.5183210000000  0.5504010000000  0.4656950000000 1.0
C      1  0.4669890000000  0.5469560000000  0.4676000000000 1.0
C      1  0.4590630000000  0.5030900000000  0.4477390000000 1.0
C      1  0.4175960000000  0.5434910000000  0.4851990000000 1.0
C      1  0.4083520000000  0.4593240000000  0.4882790000000 1.0
C      1  0.4802330000000  0.3996630000000  0.4883570000000 1.0
C      1  0.5618990000000  0.4208630000000  0.4934850000000 1.0
C      1  0.5803110000000  0.5068730000000  0.4885520000000 1.0
C      1  0.5589070000000  0.5805550000000  0.4844140000000 1.0
C      1  0.4780920000000  0.6033380000000  0.4903730000000 1.0
C      1  0.5622540000000  0.5699330000000  0.4229400000000 1.0
C      1  0.5043840000000  0.5972290000000  0.4276020000000 1.0
C      1  0.4235780000000  0.5500440000000  0.4204620000000 1.0
C      1  0.4197810000000  0.4576230000000  0.4193970000000 1.0
C      1  0.4502830000000  0.4200550000000  0.4268900000000 1.0
C      1  0.5405910000000  0.4110100000000  0.4279070000000 1.0
C      1  0.5964540000000  0.4873140000000  0.4233420000000 1.0
C      1  0.4320560000000  0.5603310000000  0.5787900000000 1.0
C      1  0.4128810000000  0.4811810000000  0.5794710000000 1.0
C      1  0.4572170000000  0.4140290000000  0.5770200000000 1.0
C      1  0.5378960000000  0.4201380000000  0.5835460000000 1.0
C      1  0.5892950000000  0.4847470000000  0.5829940000000 1.0
C      1  0.5675520000000  0.5430620000000  0.5729170000000 1.0
C      1  0.5030710000000  0.5807150000000  0.5758740000000 1.0
C      1  0.4072540000000  0.5342580000000  0.4371150000000 1.0
C      1  0.4091110000000  0.4429650000000  0.4418460000000 1.0
C      1  0.4759380000000  0.4155390000000  0.4424070000000 1.0
C      1  0.5645510000000  0.4218440000000  0.4432680000000 1.0
C      1  0.6014370000000  0.5093680000000  0.4411030000000 1.0
C      1  0.5568710000000  0.5918890000000  0.4389470000000 1.0
C      1  0.4791640000000  0.5916870000000  0.4474560000000 1.0
C      1  0.6024840000000  0.5519350000000  0.4887530000000 1.0
C      1  0.5271400000000  0.6144370000000  0.4892310000000 1.0
C      1  0.4306720000000  0.5889370000000  0.4856870000000 1.0
C      1  0.3842550000000  0.5012260000000  0.4833490000000 1.0
C      1  0.4230110000000  0.4071880000000  0.4919180000000 1.0
C      1  0.5293420000000  0.3878180000000  0.4908990000000 1.0
C      1  0.5939110000000  0.4534910000000  0.4903200000000 1.0
C      1  0.5913450000000  0.5375750000000  0.4399860000000 1.0
C      1  0.5288750000000  0.6048830000000  0.4400280000000 1.0
C      1  0.4503350000000  0.5841060000000  0.4399880000000 1.0
C      1  0.4051800000000  0.5037680000000  0.4369400000000 1.0
C      1  0.4271370000000  0.4194410000000  0.4441500000000 1.0
C      1  0.5136020000000  0.4070530000000  0.4383910000000 1.0
C      1  0.5800890000000  0.4463880000000  0.4408280000000 1.0
C      1  0.4682640000000  0.5161140000000  0.5735940000000 1.0
C      1  0.4639270000000  0.4887560000000  0.5702110000000 1.0
C      1  0.5003870000000  0.4620400000000  0.5695450000000 1.0
C      1  0.5274920000000  0.4733400000000  0.5667420000000 1.0
C      1  0.5276870000000  0.5003160000000  0.5543990000000 1.0
C      1  0.5159770000000  0.5205990000000  0.5685760000000 1.0
C      1  0.4908780000000  0.5263040000000  0.5585940000000 1.0
C      1  0.5220160000000  0.4101420000000  0.5599430000000 1.0
C      1  0.5800960000000  0.4615070000000  0.5637730000000 1.0
C      1  0.5971320000000  0.5470350000000  0.5426470000000 1.0
C      1  0.5246000000000  0.5702930000000  0.5551090000000 1.0
C      1  0.4510420000000  0.5708290000000  0.5586550000000 1.0
C      1  0.4119620000000  0.4994950000000  0.5561480000000 1.0
C      1  0.4421030000000  0.4271130000000  0.5550470000000 1.0
C      1  0.4005440000000  0.4299490000000  0.5336990000000 1.0
C      1  0.4985550000000  0.3761090000000  0.5330040000000 1.0
C      1  0.5914450000000  0.4304980000000  0.5362320000000 1.0
C      1  0.6222990000000  0.5204100000000  0.5248770000000 1.0
C      1  0.5544350000000  0.5982990000000  0.5311560000000 1.0
C      1  0.4480250000000  0.6080770000000  0.5309510000000 1.0
C      1  0.3856750000000  0.5294020000000  0.5290940000000 1.0
C      1  0.5345480000000  0.4894850000000  0.3933280000000 1.0
C      1  0.5317810000000  0.5188030000000  0.3907570000000 1.0
C      1  0.5057380000000  0.5335380000000  0.3851570000000 1.0
C      1  0.4772340000000  0.5281750000000  0.3918650000000 1.0
C      1  0.4668380000000  0.5013670000000  0.3869800000000 1.0
C      1  0.4837840000000  0.4766390000000  0.3892030000000 1.0
C      1  0.5113750000000  0.4725010000000  0.3983020000000 1.0
C      1  0.4285470000000  0.5096950000000  0.5344730000000 1.0
C      1  0.4496630000000  0.4430430000000  0.5319680000000 1.0
C      1  0.5080800000000  0.4237060000000  0.5384690000000 1.0
C      1  0.5543720000000  0.4612680000000  0.5487410000000 1.0
C      1  0.5712760000000  0.5319170000000  0.5427710000000 1.0
C      1  0.5257920000000  0.5561490000000  0.5287940000000 1.0
C      1  0.4701330000000  0.5627220000000  0.5358960000000 1.0
C      1  0.4341930000000  0.5899200000000  0.5126510000000 1.0
C      1  0.3807900000000  0.5126610000000  0.5067500000000 1.0
C      1  0.4115480000000  0.4141670000000  0.5132630000000 1.0
C      1  0.5171300000000  0.3778820000000  0.5120480000000 1.0
C      1  0.5915080000000  0.4538900000000  0.5177440000000 1.0
C      1  0.6119460000000  0.5469820000000  0.5154630000000 1.0
C      1  0.5310760000000  0.6052340000000  0.5142000000000 1.0
C      1  0.3904760000000  0.4893750000000  0.4579350000000 1.0
C      1  0.4356980000000  0.4028960000000  0.4670580000000 1.0
C      1  0.5291490000000  0.4064500000000  0.4691030000000 1.0
C      1  0.5923060000000  0.4624540000000  0.4634360000000 1.0
C      1  0.5928300000000  0.5571790000000  0.4619450000000 1.0
C      1  0.5163270000000  0.6184660000000  0.4634940000000 1.0
C      1  0.4281120000000  0.5802280000000  0.4587780000000 1.0
C      1  0.4037070000000  0.4545320000000  0.5175940000000 1.0
C      1  0.4778260000000  0.3889650000000  0.5167800000000 1.0
C      1  0.5682210000000  0.4184270000000  0.5227970000000 1.0
C      1  0.6009660000000  0.5041590000000  0.5141640000000 1.0
C      1  0.5657760000000  0.5791360000000  0.5129400000000 1.0
C      1  0.4742950000000  0.6095020000000  0.5192420000000 1.0
C      1  0.4037900000000  0.5458420000000  0.5128680000000 1.0
C      1  0.5164110000000  0.4523260000000  0.4197710000000 1.0
C      1  0.5569680000000  0.4828490000000  0.4114750000000 1.0
C      1  0.5454310000000  0.5341590000000  0.4111370000000 1.0
C      1  0.5075310000000  0.5574060000000  0.3983030000000 1.0
C      1  0.4646640000000  0.5424790000000  0.4151730000000 1.0
C      1  0.4468470000000  0.4891520000000  0.4053950000000 1.0
C      1  0.4631370000000  0.4646840000000  0.4068820000000 1.0
C      1  0.4823070000000  0.4760710000000  0.5546110000000 1.0
C      1  0.5044130000000  0.5118660000000  0.4314060000000 1.0
END
