TITL C-2441154-10-6 0.00903241052495437 125000 -7294.92892272749 0 0 49 (C1) n - 1
REM
REM in /home/bkarasulu/work/CARBON/AIRSS/Generating-Clusters/ReaxFF-fromJPCA2015/Units_Real/with-SteepDescent/Higher-Symm
REM
REM
REM
REM
REM
REM ./C.cell (1df0a924f5614ab8850e4351716899ee)
REM
REM compiler GCC version 9.2.1 20190827 (Red Hat 9.2.1-1)
REM options -cpp -mtune=generic -march=x86-64 -g -O0 -fpre-include=/usr/include/finclude/math-vector-fortran.h
REM seed -593895861 2099981664 -1542718433 1919226871 -2010935011 1237343484 -1980591032 -1568694096 -78328856 545469359 -1563208617 769591416 1913380186 1658735062 -1462849739 1896833194 282024342 -1908232586 -735917521 -1041898678 644026070 -1871502854 -203403994 1785194834 -2029093417 889795817 513372471 270852122 -2061152318 -16621054 -1206356524 -1108662257 749609076
REM
CELL 1.54180   50.00000   50.00000   50.00000   90.00000   90.00000   90.00000
LATT -1
SFAC C  
C      1  0.4632230000000  0.5109850000000  0.4497150000000 1.0
C      1  0.5117080000000  0.4896490000000  0.4367530000000 1.0
C      1  0.5545330000000  0.5118230000000  0.4630690000000 1.0
C      1  0.5610040000000  0.4891040000000  0.5115730000000 1.0
C      1  0.5334560000000  0.5123970000000  0.5525380000000 1.0
C      1  0.4879770000000  0.4892670000000  0.5601160000000 1.0
C      1  0.4491440000000  0.5126570000000  0.5356040000000 1.0
C      1  0.4353490000000  0.4886480000000  0.4896020000000 1.0
C      1  0.4455110000000  0.5112690000000  0.4732120000000 1.0
C      1  0.4836910000000  0.4902240000000  0.4482770000000 1.0
C      1  0.5295880000000  0.5103810000000  0.4455870000000 1.0
C      1  0.5583120000000  0.4903550000000  0.4826390000000 1.0
C      1  0.5468260000000  0.5102910000000  0.5255770000000 1.0
C      1  0.5173130000000  0.4889140000000  0.5587860000000 1.0
C      1  0.4715780000000  0.5123870000000  0.5547760000000 1.0
C      1  0.4421340000000  0.4899320000000  0.5195390000000 1.0
C      1  0.5253690000000  0.4661820000000  0.5429790000000 1.0
C      1  0.4869510000000  0.5361200000000  0.5498160000000 1.0
C      1  0.4602440000000  0.4691600000000  0.5239620000000 1.0
C      1  0.4549660000000  0.5327600000000  0.4893180000000 1.0
C      1  0.4918420000000  0.4818420000000  0.4757710000000 1.0
C      1  0.5110430000000  0.5250050000000  0.4638380000000 1.0
C      1  0.5345250000000  0.4754930000000  0.4802120000000 1.0
C      1  0.5221040000000  0.5171830000000  0.5112610000000 1.0
C      1  0.4732710000000  0.5515270000000  0.5293590000000 1.0
C      1  0.4596740000000  0.4521130000000  0.4991260000000 1.0
C      1  0.4723190000000  0.5493860000000  0.4733430000000 1.0
C      1  0.5012920000000  0.4558030000000  0.4649810000000 1.0
C      1  0.5302330000000  0.5489940000000  0.4738020000000 1.0
C      1  0.5378060000000  0.4532310000000  0.4994600000000 1.0
C      1  0.5220300000000  0.5440140000000  0.5245780000000 1.0
C      1  0.5012470000000  0.4508870000000  0.5391330000000 1.0
C      1  0.5472990000000  0.4659610000000  0.5232170000000 1.0
C      1  0.5163610000000  0.5361670000000  0.5519590000000 1.0
C      1  0.4792140000000  0.4668300000000  0.5451750000000 1.0
C      1  0.4532190000000  0.5351380000000  0.5181080000000 1.0
C      1  0.4424030000000  0.4631140000000  0.4800220000000 1.0
C      1  0.4828760000000  0.5320720000000  0.4529430000000 1.0
C      1  0.5241670000000  0.4678510000000  0.4517430000000 1.0
C      1  0.5550170000000  0.5382810000000  0.4736180000000 1.0
C      1  0.4871720000000  0.5705640000000  0.4853670000000 1.0
C      1  0.5015260000000  0.4302780000000  0.4791050000000 1.0
C      1  0.5164110000000  0.5714780000000  0.4869450000000 1.0
C      1  0.5203790000000  0.4306860000000  0.5010540000000 1.0
C      1  0.5141650000000  0.5707620000000  0.5162160000000 1.0
C      1  0.4993270000000  0.4307040000000  0.5197740000000 1.0
C      1  0.4857340000000  0.5711500000000  0.5135990000000 1.0
C      1  0.4796020000000  0.4299560000000  0.4986620000000 1.0
C      1  0.5110890000000  0.5017890000000  0.4877990000000 1.0
END
