TITL C-2441160-1326-729 0.179864183744346 125000 -17490.4899405894 0 0 149 (C1) n - 1
REM
REM in /home/bkarasulu/work/CARBON/AIRSS/Generating-Clusters/ReaxFF-fromJPCA2015/Units_Real/with-SteepDescent/Higher-Symm
REM
REM
REM
REM
REM
REM ./C.cell (1df0a924f5614ab8850e4351716899ee)
REM
REM compiler GCC version 9.2.1 20190827 (Red Hat 9.2.1-1)
REM options -cpp -mtune=generic -march=x86-64 -g -O0 -fpre-include=/usr/include/finclude/math-vector-fortran.h
REM seed -1009361194 994212188 1478024943 1886785961 -665770064 1648193719 404998837 499770607 80799154 -2074518013 770532829 -220578818 150495052 749159532 964705315 -614597393 -498858953 2074452154 -1900188525 -1045021967 1441829859 -1637114621 666025011 276330352 111182938 -398915974 816488462 -2104158177 -349308604 -2111288394 -1241765479 -550227728 321863067
REM
CELL 1.54180   50.00000   50.00000   50.00000   90.00000   90.00000   90.00000
LATT -1
SFAC C  
C      1  0.5025980000000  0.5853410000000  0.4465150000000 1.0
C      1  0.5468160000000  0.5829420000000  0.5286790000000 1.0
C      1  0.4522810000000  0.5854010000000  0.5267680000000 1.0
C      1  0.5104190000000  0.4743080000000  0.5112590000000 1.0
C      1  0.4862010000000  0.4744450000000  0.5021940000000 1.0
C      1  0.5084870000000  0.4717320000000  0.4865620000000 1.0
C      1  0.5771710000000  0.4333280000000  0.4934020000000 1.0
C      1  0.4689600000000  0.4343160000000  0.5672890000000 1.0
C      1  0.4573260000000  0.4333930000000  0.4371150000000 1.0
C      1  0.5779820000000  0.4407830000000  0.4641610000000 1.0
C      1  0.4947300000000  0.4407130000000  0.5831780000000 1.0
C      1  0.4321760000000  0.4426510000000  0.4496110000000 1.0
C      1  0.4698250000000  0.5877380000000  0.5034840000000 1.0
C      1  0.5148180000000  0.5861420000000  0.4726530000000 1.0
C      1  0.5177900000000  0.5856160000000  0.5266830000000 1.0
C      1  0.5791800000000  0.5577240000000  0.5237350000000 1.0
C      1  0.4375320000000  0.5614750000000  0.5571970000000 1.0
C      1  0.4833660000000  0.5633010000000  0.4176020000000 1.0
C      1  0.5256960000000  0.5181250000000  0.5353470000000 1.0
C      1  0.4540920000000  0.5173850000000  0.5076290000000 1.0
C      1  0.5131670000000  0.5173310000000  0.4578260000000 1.0
C      1  0.5798320000000  0.4739140000000  0.5540440000000 1.0
C      1  0.4150320000000  0.4696700000000  0.5390410000000 1.0
C      1  0.5087870000000  0.4697830000000  0.4049170000000 1.0
C      1  0.5459120000000  0.5341000000000  0.4828660000000 1.0
C      1  0.4895790000000  0.5331710000000  0.5455290000000 1.0
C      1  0.4648800000000  0.5313580000000  0.4685460000000 1.0
C      1  0.4833490000000  0.5607510000000  0.5060370000000 1.0
C      1  0.5010480000000  0.5611250000000  0.4811090000000 1.0
C      1  0.5140710000000  0.5607920000000  0.5106570000000 1.0
C      1  0.5117080000000  0.4459420000000  0.4769020000000 1.0
C      1  0.5106420000000  0.4505990000000  0.5282960000000 1.0
C      1  0.4735510000000  0.4499650000000  0.4995150000000 1.0
C      1  0.5419160000000  0.4557460000000  0.5308260000000 1.0
C      1  0.4555710000000  0.4573440000000  0.5198290000000 1.0
C      1  0.5052330000000  0.4567590000000  0.4509200000000 1.0
C      1  0.5938730000000  0.4931120000000  0.4581510000000 1.0
C      1  0.4890730000000  0.4933210000000  0.6011350000000 1.0
C      1  0.4112790000000  0.4934390000000  0.4395440000000 1.0
C      1  0.5203570000000  0.4357440000000  0.5699360000000 1.0
C      1  0.4353890000000  0.4397940000000  0.4789180000000 1.0
C      1  0.5491110000000  0.4407220000000  0.4532830000000 1.0
C      1  0.4465980000000  0.4930020000000  0.4577650000000 1.0
C      1  0.5587360000000  0.4919970000000  0.4754740000000 1.0
C      1  0.4921600000000  0.4931570000000  0.5616910000000 1.0
C      1  0.4246010000000  0.4457340000000  0.5252140000000 1.0
C      1  0.5164580000000  0.4459450000000  0.4203650000000 1.0
C      1  0.5613490000000  0.4518980000000  0.5545350000000 1.0
C      1  0.5069440000000  0.5036580000000  0.5221200000000 1.0
C      1  0.4760320000000  0.5012100000000  0.4943460000000 1.0
C      1  0.5164190000000  0.5051000000000  0.4814850000000 1.0
C      1  0.5174130000000  0.5058790000000  0.5947350000000 1.0
C      1  0.4067980000000  0.5054140000000  0.4658830000000 1.0
C      1  0.5744140000000  0.5074830000000  0.4376590000000 1.0
C      1  0.4598850000000  0.5426290000000  0.5184070000000 1.0
C      1  0.5027870000000  0.5424810000000  0.4558680000000 1.0
C      1  0.5335750000000  0.5412400000000  0.5237750000000 1.0
C      1  0.5038590000000  0.5820240000000  0.5519380000000 1.0
C      1  0.4557450000000  0.5879430000000  0.4787290000000 1.0
C      1  0.5436700000000  0.5821660000000  0.4707730000000 1.0
C      1  0.4703130000000  0.5033200000000  0.5791150000000 1.0
C      1  0.4394640000000  0.5074770000000  0.4320520000000 1.0
C      1  0.5841870000000  0.5026670000000  0.4846650000000 1.0
C      1  0.4750390000000  0.4137520000000  0.4840610000000 1.0
C      1  0.5240530000000  0.4187770000000  0.4851970000000 1.0
C      1  0.4981040000000  0.4182190000000  0.5285260000000 1.0
C      1  0.5396740000000  0.5534500000000  0.4653480000000 1.0
C      1  0.5083580000000  0.5527370000000  0.5517360000000 1.0
C      1  0.4487140000000  0.5543970000000  0.4791480000000 1.0
C      1  0.5430250000000  0.4158740000000  0.5281370000000 1.0
C      1  0.4453680000000  0.4208060000000  0.5249540000000 1.0
C      1  0.5042470000000  0.4190770000000  0.4408040000000 1.0
C      1  0.4638560000000  0.4563020000000  0.4729900000000 1.0
C      1  0.5480340000000  0.4661540000000  0.4773380000000 1.0
C      1  0.4950590000000  0.4665570000000  0.5485540000000 1.0
C      1  0.5053860000000  0.4969640000000  0.4404880000000 1.0
C      1  0.5474160000000  0.5006250000000  0.5360900000000 1.0
C      1  0.4487060000000  0.4963930000000  0.5249580000000 1.0
C      1  0.5056040000000  0.5329210000000  0.5893600000000 1.0
C      1  0.4197230000000  0.5318180000000  0.4602530000000 1.0
C      1  0.5747040000000  0.5330720000000  0.4509360000000 1.0
C      1  0.4053270000000  0.4937330000000  0.5210590000000 1.0
C      1  0.5289200000000  0.4922300000000  0.4056910000000 1.0
C      1  0.5678190000000  0.4958800000000  0.5721630000000 1.0
C      1  0.4801410000000  0.5487220000000  0.5846930000000 1.0
C      1  0.4366450000000  0.5361140000000  0.4366480000000 1.0
C      1  0.5834750000000  0.5468640000000  0.4777960000000 1.0
C      1  0.4642670000000  0.4599260000000  0.4263720000000 1.0
C      1  0.5838150000000  0.4594520000000  0.5058520000000 1.0
C      1  0.4538260000000  0.4593380000000  0.5682290000000 1.0
C      1  0.5232750000000  0.4164160000000  0.5482040000000 1.0
C      1  0.4484120000000  0.4177050000000  0.4966330000000 1.0
C      1  0.5288070000000  0.4163370000000  0.4550260000000 1.0
C      1  0.5410910000000  0.4588350000000  0.4306610000000 1.0
C      1  0.5390770000000  0.4603340000000  0.5724810000000 1.0
C      1  0.4183400000000  0.4620840000000  0.4958250000000 1.0
C      1  0.4654110000000  0.4987850000000  0.4104320000000 1.0
C      1  0.5964070000000  0.5050930000000  0.5155870000000 1.0
C      1  0.4395940000000  0.4998590000000  0.5730870000000 1.0
C      1  0.4637880000000  0.5347490000000  0.5456100000000 1.0
C      1  0.4784920000000  0.5344070000000  0.4469430000000 1.0
C      1  0.5511870000000  0.5274020000000  0.5078060000000 1.0
C      1  0.5139440000000  0.5175160000000  0.4133420000000 1.0
C      1  0.5672950000000  0.5189090000000  0.5568010000000 1.0
C      1  0.4114660000000  0.5215230000000  0.5295990000000 1.0
C      1  0.5524050000000  0.4200470000000  0.5028540000000 1.0
C      1  0.4695470000000  0.4212000000000  0.5414460000000 1.0
C      1  0.4782040000000  0.4189720000000  0.4522910000000 1.0
C      1  0.5655610000000  0.5763420000000  0.5079700000000 1.0
C      1  0.4596110000000  0.5791340000000  0.5537470000000 1.0
C      1  0.4750720000000  0.5788010000000  0.4397490000000 1.0
C      1  0.4539590000000  0.5409390000000  0.5724410000000 1.0
C      1  0.4666130000000  0.5388280000000  0.4206380000000 1.0
C      1  0.5904910000000  0.5384020000000  0.5045190000000 1.0
C      1  0.5407280000000  0.4920590000000  0.5844360000000 1.0
C      1  0.4065470000000  0.4899350000000  0.4919210000000 1.0
C      1  0.5522830000000  0.4969950000000  0.4219180000000 1.0
C      1  0.4661320000000  0.5040160000000  0.4699550000000 1.0
C      1  0.5410120000000  0.5064550000000  0.4880150000000 1.0
C      1  0.4898880000000  0.5073040000000  0.5400130000000 1.0
C      1  0.4781950000000  0.4693130000000  0.4508890000000 1.0
C      1  0.5550710000000  0.4659710000000  0.5048640000000 1.0
C      1  0.4655480000000  0.4702340000000  0.5429200000000 1.0
C      1  0.5266290000000  0.5459170000000  0.5745660000000 1.0
C      1  0.4215220000000  0.5469990000000  0.4844170000000 1.0
C      1  0.5511920000000  0.5446590000000  0.4394920000000 1.0
C      1  0.4792790000000  0.4737950000000  0.4046170000000 1.0
C      1  0.5932310000000  0.4767030000000  0.5276970000000 1.0
C      1  0.4277580000000  0.4730640000000  0.5654950000000 1.0
C      1  0.5103920000000  0.5601060000000  0.4303370000000 1.0
C      1  0.5560180000000  0.5584470000000  0.5425910000000 1.0
C      1  0.4352010000000  0.5609310000000  0.5264050000000 1.0
C      1  0.5871180000000  0.4664040000000  0.4590140000000 1.0
C      1  0.4930260000000  0.4668010000000  0.5940730000000 1.0
C      1  0.4273540000000  0.4721850000000  0.4506530000000 1.0
C      1  0.5301010000000  0.5416980000000  0.4206110000000 1.0
C      1  0.5538240000000  0.5428970000000  0.5660570000000 1.0
C      1  0.4158310000000  0.5449220000000  0.5118630000000 1.0
C      1  0.5881400000000  0.5148530000000  0.5412520000000 1.0
C      1  0.4219390000000  0.5129000000000  0.5548620000000 1.0
C      1  0.4845950000000  0.5177120000000  0.4052640000000 1.0
C      1  0.5327350000000  0.4781430000000  0.5467630000000 1.0
C      1  0.4416930000000  0.4763450000000  0.5062910000000 1.0
C      1  0.5255490000000  0.4773820000000  0.4474290000000 1.0
C      1  0.5703500000000  0.5738210000000  0.4798510000000 1.0
C      1  0.4825470000000  0.5752570000000  0.5715820000000 1.0
C      1  0.4499950000000  0.5732470000000  0.4548860000000 1.0
C      1  0.4988380000000  0.4098360000000  0.5002260000000 1.0
C      1  0.4991070000000  0.5175580000000  0.4991490000000 1.0
END
