TITL C-2441164-471-873 0.0311626077995693 125000 -19232.679155508 0 0 134 (C1) n - 1
REM
REM in /home/bkarasulu/work/CARBON/AIRSS/Generating-Clusters/ReaxFF-fromJPCA2015/Units_Real/with-SteepDescent/Higher-Symm
REM
REM
REM
REM
REM
REM ./C.cell (1df0a924f5614ab8850e4351716899ee)
REM
REM compiler GCC version 9.2.1 20190827 (Red Hat 9.2.1-1)
REM options -cpp -mtune=generic -march=x86-64 -g -O0 -fpre-include=/usr/include/finclude/math-vector-fortran.h
REM seed -1664292769 1069400434 -893739522 -629918833 1894984055 956708326 -1359117329 -29313552 1596938611 698004923 664125829 1010804900 866781223 1308833468 466511126 1989471972 -1811673791 1807921334 955071548 1865721779 -386209333 60486877 548157791 -1435404771 -820919510 -1967340277 188499756 -238965975 1420273074 93055001 -1200958883 -1267794807 1770743710
REM
CELL 1.54180   50.00000   50.00000   50.00000   90.00000   90.00000   90.00000
LATT -1
SFAC C  
C      1  0.5816010000000  0.5154850000000  0.4497160000000 1.0
C      1  0.4712670000000  0.4213810000000  0.4478520000000 1.0
C      1  0.4483120000000  0.5625470000000  0.4482570000000 1.0
C      1  0.5772390000000  0.4845340000000  0.5520390000000 1.0
C      1  0.4722200000000  0.5812830000000  0.5487730000000 1.0
C      1  0.4445920000000  0.4334350000000  0.5475720000000 1.0
C      1  0.4268840000000  0.4865050000000  0.5521720000000 1.0
C      1  0.5285110000000  0.5737550000000  0.5505710000000 1.0
C      1  0.5564410000000  0.4352720000000  0.5485500000000 1.0
C      1  0.4160300000000  0.5154570000000  0.4506110000000 1.0
C      1  0.5294340000000  0.4208040000000  0.4509290000000 1.0
C      1  0.5565780000000  0.5643660000000  0.4506860000000 1.0
C      1  0.4663180000000  0.4098060000000  0.5008910000000 1.0
C      1  0.4400000000000  0.5728780000000  0.5010800000000 1.0
C      1  0.5933400000000  0.5149290000000  0.4975950000000 1.0
C      1  0.4647470000000  0.5888110000000  0.5024430000000 1.0
C      1  0.4407350000000  0.4257760000000  0.5015700000000 1.0
C      1  0.5947220000000  0.4841580000000  0.4974140000000 1.0
C      1  0.5327200000000  0.5900300000000  0.4977550000000 1.0
C      1  0.5609850000000  0.4260920000000  0.5019830000000 1.0
C      1  0.4054440000000  0.4834910000000  0.4977150000000 1.0
C      1  0.5354320000000  0.4105970000000  0.5029720000000 1.0
C      1  0.5565270000000  0.5682520000000  0.4980130000000 1.0
C      1  0.4122160000000  0.5153470000000  0.4994050000000 1.0
C      1  0.4714300000000  0.5043960000000  0.5500610000000 1.0
C      1  0.5147250000000  0.5229270000000  0.5601810000000 1.0
C      1  0.5124850000000  0.4755700000000  0.5485290000000 1.0
C      1  0.4694700000000  0.4974530000000  0.4490370000000 1.0
C      1  0.5151450000000  0.4756690000000  0.4490280000000 1.0
C      1  0.5152500000000  0.5248040000000  0.4456310000000 1.0
C      1  0.5259430000000  0.4993260000000  0.4398470000000 1.0
C      1  0.4857990000000  0.4734310000000  0.4479790000000 1.0
C      1  0.4845620000000  0.5225140000000  0.4438200000000 1.0
C      1  0.5255900000000  0.4958370000000  0.5627600000000 1.0
C      1  0.4860300000000  0.5231180000000  0.5653710000000 1.0
C      1  0.4832920000000  0.4776350000000  0.5492730000000 1.0
C      1  0.5149090000000  0.4431100000000  0.4890100000000 1.0
C      1  0.4487790000000  0.5118340000000  0.4973660000000 1.0
C      1  0.5388280000000  0.5412180000000  0.4897560000000 1.0
C      1  0.5132300000000  0.5659480000000  0.5255200000000 1.0
C      1  0.4341800000000  0.4766690000000  0.5259830000000 1.0
C      1  0.5463310000000  0.4637800000000  0.5103660000000 1.0
C      1  0.4918480000000  0.5560190000000  0.5096690000000 1.0
C      1  0.5656290000000  0.4767330000000  0.5255830000000 1.0
C      1  0.4538750000000  0.4655620000000  0.5093080000000 1.0
C      1  0.4867880000000  0.4431490000000  0.4884080000000 1.0
C      1  0.5529130000000  0.5179840000000  0.4951370000000 1.0
C      1  0.4562810000000  0.5380010000000  0.4872980000000 1.0
C      1  0.5387850000000  0.5092730000000  0.4160720000000 1.0
C      1  0.5002270000000  0.4702360000000  0.4105770000000 1.0
C      1  0.4702290000000  0.5243380000000  0.4174040000000 1.0
C      1  0.5386950000000  0.4859830000000  0.5864740000000 1.0
C      1  0.4766070000000  0.5454590000000  0.5801300000000 1.0
C      1  0.4760960000000  0.4891150000000  0.5885150000000 1.0
C      1  0.4488270000000  0.4981890000000  0.5886760000000 1.0
C      1  0.5251420000000  0.5435190000000  0.5811790000000 1.0
C      1  0.5305970000000  0.4560180000000  0.5851630000000 1.0
C      1  0.4488770000000  0.5034580000000  0.4154380000000 1.0
C      1  0.5212470000000  0.4505680000000  0.4128300000000 1.0
C      1  0.5288480000000  0.5401690000000  0.4178020000000 1.0
C      1  0.5127790000000  0.5952040000000  0.5190240000000 1.0
C      1  0.5749750000000  0.4367180000000  0.5252090000000 1.0
C      1  0.4101480000000  0.4620850000000  0.5171030000000 1.0
C      1  0.5181660000000  0.4141110000000  0.4778880000000 1.0
C      1  0.5736600000000  0.5587340000000  0.4735790000000 1.0
C      1  0.4143910000000  0.5311730000000  0.4744680000000 1.0
C      1  0.4830050000000  0.4151830000000  0.4766950000000 1.0
C      1  0.4339040000000  0.5552160000000  0.4744500000000 1.0
C      1  0.5867500000000  0.5318170000000  0.4738990000000 1.0
C      1  0.4825520000000  0.5944640000000  0.5246970000000 1.0
C      1  0.4265860000000  0.4365440000000  0.5239900000000 1.0
C      1  0.5898880000000  0.4623960000000  0.5176360000000 1.0
C      1  0.4861280000000  0.5759590000000  0.4853010000000 1.0
C      1  0.5812920000000  0.4702190000000  0.4766020000000 1.0
C      1  0.4412560000000  0.4502790000000  0.4840530000000 1.0
C      1  0.4864210000000  0.4133010000000  0.5221960000000 1.0
C      1  0.5752350000000  0.5266730000000  0.5190790000000 1.0
C      1  0.4336510000000  0.5560270000000  0.5241580000000 1.0
C      1  0.5161710000000  0.4151720000000  0.5246580000000 1.0
C      1  0.4194800000000  0.5299750000000  0.5245320000000 1.0
C      1  0.5661140000000  0.5553000000000  0.5234630000000 1.0
C      1  0.5154460000000  0.5851840000000  0.4762110000000 1.0
C      1  0.4180610000000  0.4707960000000  0.4758550000000 1.0
C      1  0.5595270000000  0.4496030000000  0.4820380000000 1.0
C      1  0.4391370000000  0.4740580000000  0.5758380000000 1.0
C      1  0.5146370000000  0.5697610000000  0.5765560000000 1.0
C      1  0.5566780000000  0.4495810000000  0.5742880000000 1.0
C      1  0.4294170000000  0.5238510000000  0.4249870000000 1.0
C      1  0.5119020000000  0.4267870000000  0.4265990000000 1.0
C      1  0.5560610000000  0.5480240000000  0.4262220000000 1.0
C      1  0.5661690000000  0.5209110000000  0.4249920000000 1.0
C      1  0.4848530000000  0.4355850000000  0.4266910000000 1.0
C      1  0.4497020000000  0.5444590000000  0.4254530000000 1.0
C      1  0.5666800000000  0.4770400000000  0.5789500000000 1.0
C      1  0.4859260000000  0.5721510000000  0.5733260000000 1.0
C      1  0.4536910000000  0.4484650000000  0.5710920000000 1.0
C      1  0.4381520000000  0.4782730000000  0.4286900000000 1.0
C      1  0.5131440000000  0.5645680000000  0.4287010000000 1.0
C      1  0.5475160000000  0.4562220000000  0.4287840000000 1.0
C      1  0.4366650000000  0.5208910000000  0.5737500000000 1.0
C      1  0.5112680000000  0.4399660000000  0.5697730000000 1.0
C      1  0.5529380000000  0.5434770000000  0.5741660000000 1.0
C      1  0.5621190000000  0.5168850000000  0.5716130000000 1.0
C      1  0.4817480000000  0.4370100000000  0.5683710000000 1.0
C      1  0.4492270000000  0.5462740000000  0.5716000000000 1.0
C      1  0.5606990000000  0.4808480000000  0.4297930000000 1.0
C      1  0.4877690000000  0.5672780000000  0.4374280000000 1.0
C      1  0.4510110000000  0.4533590000000  0.4311160000000 1.0
C      1  0.5488880000000  0.4405610000000  0.4537680000000 1.0
C      1  0.4212920000000  0.4865790000000  0.4515820000000 1.0
C      1  0.5283900000000  0.5747360000000  0.4520840000000 1.0
C      1  0.5546770000000  0.5612800000000  0.5489280000000 1.0
C      1  0.4217380000000  0.5147260000000  0.5495870000000 1.0
C      1  0.5278440000000  0.4280820000000  0.5480560000000 1.0
C      1  0.4493040000000  0.5632560000000  0.5479570000000 1.0
C      1  0.5767780000000  0.5127780000000  0.5483700000000 1.0
C      1  0.4718150000000  0.4201670000000  0.5463240000000 1.0
C      1  0.4494900000000  0.4392910000000  0.4545810000000 1.0
C      1  0.5783150000000  0.4863560000000  0.4512940000000 1.0
C      1  0.4721730000000  0.5732250000000  0.4564140000000 1.0
C      1  0.4682630000000  0.5009600000000  0.4774820000000 1.0
C      1  0.5164070000000  0.5280680000000  0.4759630000000 1.0
C      1  0.5184990000000  0.4706240000000  0.4772910000000 1.0
C      1  0.4695560000000  0.5072610000000  0.5200720000000 1.0
C      1  0.5223030000000  0.4736040000000  0.5216840000000 1.0
C      1  0.5157260000000  0.5252420000000  0.5292910000000 1.0
C      1  0.5222180000000  0.5012820000000  0.5158070000000 1.0
C      1  0.4770040000000  0.4768140000000  0.5202720000000 1.0
C      1  0.4906370000000  0.5294780000000  0.5168750000000 1.0
C      1  0.5293550000000  0.5016990000000  0.4886140000000 1.0
C      1  0.4805340000000  0.5283150000000  0.4746290000000 1.0
C      1  0.4872350000000  0.4701390000000  0.4780480000000 1.0
C      1  0.5000560000000  0.4929510000000  0.5961410000000 1.0
C      1  0.5001430000000  0.4978450000000  0.4076740000000 1.0
END
