TITL C-2441158-471-184 0.0919626636110406 125000 -20912.4314904901 0 0 157 (C1) n - 1
REM
REM in /home/bkarasulu/work/CARBON/AIRSS/Generating-Clusters/ReaxFF-fromJPCA2015/Units_Real/with-SteepDescent/Higher-Symm
REM
REM
REM
REM
REM
REM ./C.cell (1df0a924f5614ab8850e4351716899ee)
REM
REM compiler GCC version 9.2.1 20190827 (Red Hat 9.2.1-1)
REM options -cpp -mtune=generic -march=x86-64 -g -O0 -fpre-include=/usr/include/finclude/math-vector-fortran.h
REM seed 160788434 1231111438 793036573 -1195563602 963471361 -1471345034 -78021541 -741787768 -791038261 1166498577 -342553516 844678447 1980252221 -264428663 -1290026422 -372164336 -1471487449 1133087330 1628637382 1379369298 -806320387 -889211712 1093850268 -1768681851 -2066955810 -1109488080 142253233 132701020 -321350792 982343872 -1649324823 -243421495 -1155737331
REM
CELL 1.54180   50.00000   50.00000   50.00000   90.00000   90.00000   90.00000
LATT -1
SFAC C  
C      1  0.4907670000000  0.4796250000000  0.5214240000000 1.0
C      1  0.4707490000000  0.5092290000000  0.4924810000000 1.0
C      1  0.5091410000000  0.4923000000000  0.4739980000000 1.0
C      1  0.5289360000000  0.5081340000000  0.5061580000000 1.0
C      1  0.4159700000000  0.5530390000000  0.5127130000000 1.0
C      1  0.4897710000000  0.4484940000000  0.4189970000000 1.0
C      1  0.5835480000000  0.5518060000000  0.4888300000000 1.0
C      1  0.5147930000000  0.4528950000000  0.5866740000000 1.0
C      1  0.5286320000000  0.5897450000000  0.4494140000000 1.0
C      1  0.5476170000000  0.4105370000000  0.5211540000000 1.0
C      1  0.4668810000000  0.5879850000000  0.5457570000000 1.0
C      1  0.4482190000000  0.4089320000000  0.4703590000000 1.0
C      1  0.4736490000000  0.5469020000000  0.4076360000000 1.0
C      1  0.5939620000000  0.4529270000000  0.4747950000000 1.0
C      1  0.5249520000000  0.5442180000000  0.5918530000000 1.0
C      1  0.4175770000000  0.4610070000000  0.5285990000000 1.0
C      1  0.4929350000000  0.5972100000000  0.5137380000000 1.0
C      1  0.4837800000000  0.3995670000000  0.4915330000000 1.0
C      1  0.5083100000000  0.5963470000000  0.4864370000000 1.0
C      1  0.5101600000000  0.3972400000000  0.5059640000000 1.0
C      1  0.3975200000000  0.5310200000000  0.5038110000000 1.0
C      1  0.4792200000000  0.4716920000000  0.3997330000000 1.0
C      1  0.6008910000000  0.5273870000000  0.4776970000000 1.0
C      1  0.5254770000000  0.4735340000000  0.6039480000000 1.0
C      1  0.5982510000000  0.4938930000000  0.5116770000000 1.0
C      1  0.4890560000000  0.5055060000000  0.5986920000000 1.0
C      1  0.4021230000000  0.4929050000000  0.4870600000000 1.0
C      1  0.5117420000000  0.5062370000000  0.4032480000000 1.0
C      1  0.4444220000000  0.5804890000000  0.5020240000000 1.0
C      1  0.4980770000000  0.4201970000000  0.4477360000000 1.0
C      1  0.5556750000000  0.5808790000000  0.4977870000000 1.0
C      1  0.5005300000000  0.4151610000000  0.5506540000000 1.0
C      1  0.4512500000000  0.4863680000000  0.4974480000000 1.0
C      1  0.4997210000000  0.5092060000000  0.4515290000000 1.0
C      1  0.5454180000000  0.4853540000000  0.5120010000000 1.0
C      1  0.4994390000000  0.5126060000000  0.5514760000000 1.0
C      1  0.4328910000000  0.4316140000000  0.4548590000000 1.0
C      1  0.5449540000000  0.5680010000000  0.4327780000000 1.0
C      1  0.5658100000000  0.4337710000000  0.5408270000000 1.0
C      1  0.4537420000000  0.5564420000000  0.5700200000000 1.0
C      1  0.4486840000000  0.5002590000000  0.5804310000000 1.0
C      1  0.4231930000000  0.4855390000000  0.4443950000000 1.0
C      1  0.5554390000000  0.5142240000000  0.4248840000000 1.0
C      1  0.5749150000000  0.4857370000000  0.5553380000000 1.0
C      1  0.4117560000000  0.4647330000000  0.4829250000000 1.0
C      1  0.5178140000000  0.5344360000000  0.4109070000000 1.0
C      1  0.5913180000000  0.4655780000000  0.5181840000000 1.0
C      1  0.4826310000000  0.5343250000000  0.5911160000000 1.0
C      1  0.5639840000000  0.4966330000000  0.5792580000000 1.0
C      1  0.4145080000000  0.5013530000000  0.5558020000000 1.0
C      1  0.4367680000000  0.4948020000000  0.4204170000000 1.0
C      1  0.5781990000000  0.5025420000000  0.4378290000000 1.0
C      1  0.5809060000000  0.4591430000000  0.5438860000000 1.0
C      1  0.4552050000000  0.5335170000000  0.5844250000000 1.0
C      1  0.4193230000000  0.4580980000000  0.4567320000000 1.0
C      1  0.5438020000000  0.5409860000000  0.4195510000000 1.0
C      1  0.4569030000000  0.5799620000000  0.4748710000000 1.0
C      1  0.5249070000000  0.4171740000000  0.4644430000000 1.0
C      1  0.5415750000000  0.5811820000000  0.5249880000000 1.0
C      1  0.4739290000000  0.4169410000000  0.5382360000000 1.0
C      1  0.4684340000000  0.4845520000000  0.5951360000000 1.0
C      1  0.4022030000000  0.5220450000000  0.4763300000000 1.0
C      1  0.5296220000000  0.4839780000000  0.4114940000000 1.0
C      1  0.5917230000000  0.5169220000000  0.5291850000000 1.0
C      1  0.4175600000000  0.4448550000000  0.5047210000000 1.0
C      1  0.4981790000000  0.5567230000000  0.4160580000000 1.0
C      1  0.5847360000000  0.4443410000000  0.4989330000000 1.0
C      1  0.5025670000000  0.5568950000000  0.5844020000000 1.0
C      1  0.4554410000000  0.4075940000000  0.4985850000000 1.0
C      1  0.5011590000000  0.5886000000000  0.4592020000000 1.0
C      1  0.5351850000000  0.4034340000000  0.4957420000000 1.0
C      1  0.4960330000000  0.5874430000000  0.5413170000000 1.0
C      1  0.5627230000000  0.5477080000000  0.5550770000000 1.0
C      1  0.4452410000000  0.4541180000000  0.5631460000000 1.0
C      1  0.4380820000000  0.5451230000000  0.4427750000000 1.0
C      1  0.5548610000000  0.4526900000000  0.4382270000000 1.0
C      1  0.5548970000000  0.4460310000000  0.4864160000000 1.0
C      1  0.5147520000000  0.5659570000000  0.5572070000000 1.0
C      1  0.4397170000000  0.4277390000000  0.5148210000000 1.0
C      1  0.4852660000000  0.5649780000000  0.4433200000000 1.0
C      1  0.5254530000000  0.4515300000000  0.5283600000000 1.0
C      1  0.4752190000000  0.5437960000000  0.5296560000000 1.0
C      1  0.4724950000000  0.4565450000000  0.4757610000000 1.0
C      1  0.5220740000000  0.5465090000000  0.4695440000000 1.0
C      1  0.4237540000000  0.5404370000000  0.4678940000000 1.0
C      1  0.5297310000000  0.4573430000000  0.4228200000000 1.0
C      1  0.5805390000000  0.5434940000000  0.5286380000000 1.0
C      1  0.4685170000000  0.4604500000000  0.5788360000000 1.0
C      1  0.4776850000000  0.4054180000000  0.4623870000000 1.0
C      1  0.5379510000000  0.5947460000000  0.4784260000000 1.0
C      1  0.5236440000000  0.4039420000000  0.5360810000000 1.0
C      1  0.4629520000000  0.5972320000000  0.5181970000000 1.0
C      1  0.4010660000000  0.4844300000000  0.5365130000000 1.0
C      1  0.4628670000000  0.5223810000000  0.4005170000000 1.0
C      1  0.5998460000000  0.4758490000000  0.4622720000000 1.0
C      1  0.5384870000000  0.5226730000000  0.6013730000000 1.0
C      1  0.4409390000000  0.5702950000000  0.5512980000000 1.0
C      1  0.4530300000000  0.4299830000000  0.4381570000000 1.0
C      1  0.5626160000000  0.5711260000000  0.4516550000000 1.0
C      1  0.5458040000000  0.4291410000000  0.5567170000000 1.0
C      1  0.5505800000000  0.4724880000000  0.5897800000000 1.0
C      1  0.4271270000000  0.5268270000000  0.5485620000000 1.0
C      1  0.4533620000000  0.4722500000000  0.4114270000000 1.0
C      1  0.5907740000000  0.5250540000000  0.4514570000000 1.0
C      1  0.4216080000000  0.5524310000000  0.5401020000000 1.0
C      1  0.4633030000000  0.4516980000000  0.4300880000000 1.0
C      1  0.5714980000000  0.5488600000000  0.4618810000000 1.0
C      1  0.5390350000000  0.4528730000000  0.5717360000000 1.0
C      1  0.5362910000000  0.4753450000000  0.5384920000000 1.0
C      1  0.4548330000000  0.5230560000000  0.5372480000000 1.0
C      1  0.4624640000000  0.4775080000000  0.4594680000000 1.0
C      1  0.5450760000000  0.5307610000000  0.4646280000000 1.0
C      1  0.4553110000000  0.5681730000000  0.4479670000000 1.0
C      1  0.5491870000000  0.4334070000000  0.4582050000000 1.0
C      1  0.5437450000000  0.5710670000000  0.5519370000000 1.0
C      1  0.4489920000000  0.4316740000000  0.5428190000000 1.0
C      1  0.4766840000000  0.5626080000000  0.4865070000000 1.0
C      1  0.5103080000000  0.4335810000000  0.4853510000000 1.0
C      1  0.5212090000000  0.5625830000000  0.5157340000000 1.0
C      1  0.4864650000000  0.4327510000000  0.5164960000000 1.0
C      1  0.4999340000000  0.5444180000000  0.5152050000000 1.0
C      1  0.4785170000000  0.4568610000000  0.5037690000000 1.0
C      1  0.4980370000000  0.5441420000000  0.4856540000000 1.0
C      1  0.5282870000000  0.4455830000000  0.5018520000000 1.0
C      1  0.5380960000000  0.4947910000000  0.4366160000000 1.0
C      1  0.5661220000000  0.5075190000000  0.5387600000000 1.0
C      1  0.4684430000000  0.5038060000000  0.5541990000000 1.0
C      1  0.4380260000000  0.5031180000000  0.4621270000000 1.0
C      1  0.5499180000000  0.5189590000000  0.4902680000000 1.0
C      1  0.5098430000000  0.4854850000000  0.5489360000000 1.0
C      1  0.4474610000000  0.5144390000000  0.5085120000000 1.0
C      1  0.4856770000000  0.4852500000000  0.4431680000000 1.0
C      1  0.6016520000000  0.4993280000000  0.4839900000000 1.0
C      1  0.5161050000000  0.5007250000000  0.6039240000000 1.0
C      1  0.3958690000000  0.5024270000000  0.5131740000000 1.0
C      1  0.4844930000000  0.4997620000000  0.3981320000000 1.0
C      1  0.5650700000000  0.5400530000000  0.5052930000000 1.0
C      1  0.4956030000000  0.4596280000000  0.5665900000000 1.0
C      1  0.4374220000000  0.5387720000000  0.4967330000000 1.0
C      1  0.5052540000000  0.4619350000000  0.4395830000000 1.0
C      1  0.4673000000000  0.4807140000000  0.5377120000000 1.0
C      1  0.4621450000000  0.5192870000000  0.4657580000000 1.0
C      1  0.5347530000000  0.4850770000000  0.4643590000000 1.0
C      1  0.5448680000000  0.5271830000000  0.5431460000000 1.0
C      1  0.4450080000000  0.4727680000000  0.5222660000000 1.0
C      1  0.4821590000000  0.5318240000000  0.4489060000000 1.0
C      1  0.5516850000000  0.4757800000000  0.4852630000000 1.0
C      1  0.5179730000000  0.5330760000000  0.5500270000000 1.0
C      1  0.5596090000000  0.5251300000000  0.5819320000000 1.0
C      1  0.4301370000000  0.4797570000000  0.5675970000000 1.0
C      1  0.4416630000000  0.5238880000000  0.4204640000000 1.0
C      1  0.5784840000000  0.4730260000000  0.4427730000000 1.0
C      1  0.4965460000000  0.4448250000000  0.4630120000000 1.0
C      1  0.5386560000000  0.5566380000000  0.4948060000000 1.0
C      1  0.5033110000000  0.4428060000000  0.5431200000000 1.0
C      1  0.4599150000000  0.5557830000000  0.5079210000000 1.0
C      1  0.5004340000000  0.4998100000000  0.5008590000000 1.0
END
