TITL C-2441158-471-458 -1.70984028431861e-10 125000 -470.440377059494 0 0 4 (D(inf)h) n - 1
REM
REM in /home/bkarasulu/work/CARBON/AIRSS/Generating-Clusters/ReaxFF-fromJPCA2015/Units_Real/with-SteepDescent/Higher-Symm
REM
REM
REM
REM
REM
REM ./C.cell (1df0a924f5614ab8850e4351716899ee)
REM
REM compiler GCC version 9.2.1 20190827 (Red Hat 9.2.1-1)
REM options -cpp -mtune=generic -march=x86-64 -g -O0 -fpre-include=/usr/include/finclude/math-vector-fortran.h
REM seed 1647429523 -1848236999 -619780267 1649756825 -1838626711 -966219853 -423125821 -555284862 1694454514 847074979 -2087641524 -1199733387 -363072304 -1280249547 48363980 430574385 -484433992 -172184581 557837290 1285369657 -738480569 -1170464041 254868281 -1079558924 -2138497277 80103178 301018003 -2062770382 -2003360430 866640133 -1185480600 -1743771782 1172659019
REM
CELL 1.54180   50.00000   50.00000   50.00000   90.00000   90.00000   90.00000
LATT -1
SFAC C  
C      1  0.4884570000000  0.4969070000000  0.5023050000000 1.0
C      1  0.5144880000000  0.4969070000000  0.5023050000000 1.0
C      1  0.5388610000000  0.4969070000000  0.5023050000000 1.0
C      1  0.4640830000000  0.4969070000000  0.5023050000000 1.0
END
