TITL C-2441168-9922-517 0.0131525965623754 125000 -8701.45943986076 0 0 64 (C1) n - 1
REM
REM in /home/bkarasulu/work/CARBON/AIRSS/Generating-Clusters/ReaxFF-fromJPCA2015/Units_Real/with-SteepDescent/Higher-Symm
REM
REM
REM
REM
REM
REM ./C.cell (1df0a924f5614ab8850e4351716899ee)
REM
REM compiler GCC version 9.2.1 20190827 (Red Hat 9.2.1-1)
REM options -cpp -mtune=generic -march=x86-64 -g -O0 -fpre-include=/usr/include/finclude/math-vector-fortran.h
REM seed -1566801438 -776907071 1777477991 1449837325 789024174 1639499788 -866258978 -1225039355 891306345 1784230414 -1709655023 329865620 -1269354891 1392171604 -750177746 625856597 -1008391190 -560593326 -2127704330 -2079208251 -884920909 1268299335 762768836 1848822321 -902033441 -1960842333 1652369072 -627156033 2080621593 -831464769 -504367496 -1972307671 1121805229
REM
CELL 1.54180   50.00000   50.00000   50.00000   90.00000   90.00000   90.00000
LATT -1
SFAC C  
C      1  0.5401780000000  0.4647390000000  0.5398830000000 1.0
C      1  0.4575950000000  0.4761820000000  0.5411890000000 1.0
C      1  0.5068500000000  0.5517650000000  0.5394230000000 1.0
C      1  0.5389570000000  0.5258170000000  0.4575610000000 1.0
C      1  0.4573860000000  0.5208880000000  0.4666530000000 1.0
C      1  0.5015560000000  0.4526440000000  0.4652300000000 1.0
C      1  0.4871980000000  0.5252080000000  0.4747600000000 1.0
C      1  0.5272390000000  0.5026210000000  0.4744070000000 1.0
C      1  0.4854060000000  0.4769140000000  0.4765190000000 1.0
C      1  0.4949120000000  0.4689670000000  0.5239140000000 1.0
C      1  0.5302590000000  0.5161510000000  0.5192430000000 1.0
C      1  0.4783890000000  0.5112980000000  0.5116990000000 1.0
C      1  0.4897300000000  0.4223040000000  0.5302940000000 1.0
C      1  0.4324080000000  0.5449340000000  0.5339240000000 1.0
C      1  0.5732960000000  0.5323740000000  0.5321050000000 1.0
C      1  0.4908730000000  0.5768280000000  0.4708350000000 1.0
C      1  0.4376830000000  0.4563760000000  0.4688850000000 1.0
C      1  0.5677450000000  0.4665680000000  0.4721330000000 1.0
C      1  0.5180450000000  0.4279920000000  0.5367760000000 1.0
C      1  0.4265840000000  0.5165340000000  0.5375300000000 1.0
C      1  0.5535870000000  0.5536140000000  0.5369480000000 1.0
C      1  0.5191680000000  0.5703800000000  0.4657590000000 1.0
C      1  0.4315310000000  0.4847260000000  0.4637750000000 1.0
C      1  0.5482510000000  0.4466000000000  0.4632700000000 1.0
C      1  0.4939920000000  0.5314770000000  0.4463240000000 1.0
C      1  0.5282380000000  0.4874690000000  0.4473860000000 1.0
C      1  0.4768920000000  0.4819660000000  0.4479880000000 1.0
C      1  0.4962620000000  0.4678810000000  0.5537750000000 1.0
C      1  0.5293910000000  0.5126140000000  0.5483800000000 1.0
C      1  0.4773280000000  0.5139520000000  0.5411470000000 1.0
C      1  0.4656370000000  0.4356640000000  0.5392820000000 1.0
C      1  0.4580170000000  0.5575880000000  0.5369790000000 1.0
C      1  0.5718220000000  0.5041890000000  0.5391370000000 1.0
C      1  0.4674630000000  0.5632480000000  0.4593610000000 1.0
C      1  0.4610530000000  0.4417260000000  0.4593660000000 1.0
C      1  0.5705540000000  0.4928170000000  0.4596160000000 1.0
C      1  0.4786970000000  0.4427450000000  0.5147830000000 1.0
C      1  0.4486160000000  0.5502770000000  0.5090730000000 1.0
C      1  0.5605550000000  0.5136100000000  0.5126220000000 1.0
C      1  0.4780810000000  0.5549590000000  0.4854920000000 1.0
C      1  0.4618330000000  0.4555570000000  0.4858310000000 1.0
C      1  0.5547710000000  0.4909340000000  0.4847210000000 1.0
C      1  0.5193670000000  0.5455510000000  0.4490450000000 1.0
C      1  0.5243880000000  0.4584320000000  0.4484260000000 1.0
C      1  0.4532640000000  0.4993250000000  0.4493100000000 1.0
C      1  0.5201190000000  0.4509230000000  0.5554720000000 1.0
C      1  0.5309080000000  0.5420140000000  0.5526810000000 1.0
C      1  0.4507890000000  0.5026030000000  0.5487780000000 1.0
C      1  0.4654650000000  0.5381330000000  0.4438720000000 1.0
C      1  0.5517000000000  0.5045540000000  0.4406080000000 1.0
C      1  0.4830380000000  0.4533510000000  0.4424270000000 1.0
C      1  0.4689340000000  0.4572850000000  0.5590340000000 1.0
C      1  0.5491130000000  0.4909540000000  0.5514520000000 1.0
C      1  0.4805140000000  0.5428130000000  0.5479960000000 1.0
C      1  0.4239510000000  0.4952220000000  0.4890260000000 1.0
C      1  0.5348740000000  0.5705940000000  0.4897010000000 1.0
C      1  0.5437650000000  0.4365220000000  0.4888080000000 1.0
C      1  0.4201420000000  0.5047640000000  0.5123590000000 1.0
C      1  0.5349710000000  0.4302720000000  0.5129840000000 1.0
C      1  0.5464220000000  0.5666110000000  0.5122360000000 1.0
C      1  0.5229730000000  0.4702360000000  0.5141680000000 1.0
C      1  0.5142760000000  0.5412380000000  0.5107850000000 1.0
C      1  0.4542440000000  0.5220540000000  0.4995170000000 1.0
C      1  0.4974380000000  0.5017220000000  0.4896260000000 1.0
END
