TITL C-2441163-1170-697 0.0152902676921196 125000 -13330.2919813719 0 0 94 (C1) n - 1
REM
REM in /home/bkarasulu/work/CARBON/AIRSS/Generating-Clusters/ReaxFF-fromJPCA2015/Units_Real/with-SteepDescent/Higher-Symm
REM
REM
REM
REM
REM
REM ./C.cell (1df0a924f5614ab8850e4351716899ee)
REM
REM compiler GCC version 9.2.1 20190827 (Red Hat 9.2.1-1)
REM options -cpp -mtune=generic -march=x86-64 -g -O0 -fpre-include=/usr/include/finclude/math-vector-fortran.h
REM seed 1658841245 532489836 -1926252568 -790352285 -626399030 -878555741 -1585581654 -1588148282 2133025916 -2085734692 1643280976 -712966204 141455394 -1153707705 -809534228 -1427934856 -1259839773 254817527 -1991877504 1246429818 -736187328 -670352763 -1316479412 1199631432 1664366793 1095185033 -943455312 963895711 -934230128 1623265693 2096334935 1550914829 1138245469
REM
CELL 1.54180   50.00000   50.00000   50.00000   90.00000   90.00000   90.00000
LATT -1
SFAC C  
C      1  0.4823530000000  0.5086050000000  0.4718630000000 1.0
C      1  0.4683910000000  0.4962890000000  0.4959730000000 1.0
C      1  0.4745020000000  0.5091080000000  0.5247440000000 1.0
C      1  0.5044430000000  0.5107150000000  0.5350440000000 1.0
C      1  0.5275820000000  0.4970250000000  0.5190550000000 1.0
C      1  0.5341110000000  0.5078370000000  0.4902120000000 1.0
C      1  0.5140470000000  0.4968680000000  0.4694570000000 1.0
C      1  0.4375980000000  0.4199760000000  0.4836520000000 1.0
C      1  0.4544150000000  0.4258020000000  0.5537580000000 1.0
C      1  0.4781030000000  0.4104790000000  0.5586290000000 1.0
C      1  0.5507210000000  0.4046380000000  0.5282760000000 1.0
C      1  0.5600350000000  0.4149480000000  0.5019070000000 1.0
C      1  0.5265440000000  0.4306100000000  0.4501890000000 1.0
C      1  0.4709800000000  0.4203470000000  0.4388730000000 1.0
C      1  0.5282630000000  0.4233320000000  0.4938690000000 1.0
C      1  0.5143570000000  0.4146180000000  0.4675240000000 1.0
C      1  0.4847610000000  0.4237760000000  0.4681480000000 1.0
C      1  0.4653290000000  0.4142240000000  0.4912140000000 1.0
C      1  0.4737890000000  0.4256270000000  0.5167780000000 1.0
C      1  0.4978920000000  0.4199120000000  0.5349590000000 1.0
C      1  0.5218170000000  0.4098610000000  0.5202660000000 1.0
C      1  0.4245870000000  0.4677900000000  0.4959260000000 1.0
C      1  0.4514220000000  0.4752180000000  0.5599590000000 1.0
C      1  0.5229050000000  0.4790280000000  0.5725970000000 1.0
C      1  0.5730630000000  0.4886390000000  0.5148390000000 1.0
C      1  0.5741680000000  0.4756970000000  0.4703450000000 1.0
C      1  0.5177900000000  0.4711050000000  0.4268560000000 1.0
C      1  0.4439910000000  0.4869530000000  0.4552970000000 1.0
C      1  0.4776830000000  0.5421850000000  0.4719310000000 1.0
C      1  0.4580350000000  0.5473830000000  0.4961500000000 1.0
C      1  0.4686230000000  0.5432110000000  0.5237080000000 1.0
C      1  0.5161650000000  0.5435110000000  0.5356690000000 1.0
C      1  0.5380140000000  0.5483140000000  0.5158080000000 1.0
C      1  0.5332780000000  0.5404320000000  0.4858040000000 1.0
C      1  0.5081820000000  0.5470440000000  0.4671280000000 1.0
C      1  0.4386520000000  0.4510470000000  0.5462540000000 1.0
C      1  0.5018460000000  0.4588690000000  0.5688100000000 1.0
C      1  0.5583040000000  0.4567130000000  0.5369650000000 1.0
C      1  0.5702170000000  0.4500760000000  0.4831160000000 1.0
C      1  0.5388830000000  0.4503040000000  0.4364000000000 1.0
C      1  0.4652910000000  0.4477100000000  0.4325450000000 1.0
C      1  0.4294450000000  0.4477110000000  0.4744470000000 1.0
C      1  0.4533290000000  0.5010190000000  0.5441400000000 1.0
C      1  0.5086860000000  0.5038130000000  0.5638670000000 1.0
C      1  0.5560340000000  0.4987540000000  0.5363550000000 1.0
C      1  0.5655250000000  0.5008110000000  0.4873260000000 1.0
C      1  0.5233290000000  0.4970880000000  0.4400050000000 1.0
C      1  0.4678150000000  0.5020320000000  0.4466920000000 1.0
C      1  0.4360650000000  0.4944850000000  0.4837440000000 1.0
C      1  0.5717080000000  0.4598810000000  0.5119080000000 1.0
C      1  0.5629080000000  0.4556960000000  0.4537370000000 1.0
C      1  0.4908120000000  0.4620660000000  0.4260210000000 1.0
C      1  0.4424550000000  0.4591910000000  0.4510660000000 1.0
C      1  0.4311130000000  0.4590590000000  0.5210500000000 1.0
C      1  0.4759000000000  0.4664370000000  0.5688130000000 1.0
C      1  0.5420390000000  0.4648400000000  0.5570930000000 1.0
C      1  0.5261240000000  0.4541200000000  0.4947230000000 1.0
C      1  0.5125400000000  0.4667100000000  0.4726190000000 1.0
C      1  0.4867960000000  0.4541180000000  0.4739460000000 1.0
C      1  0.4748200000000  0.4674130000000  0.4965630000000 1.0
C      1  0.4781550000000  0.4533320000000  0.5195020000000 1.0
C      1  0.5009660000000  0.4547080000000  0.5360100000000 1.0
C      1  0.5211230000000  0.4677890000000  0.5189840000000 1.0
C      1  0.4668690000000  0.5248460000000  0.4272260000000 1.0
C      1  0.4216950000000  0.5208320000000  0.4778500000000 1.0
C      1  0.4333550000000  0.5225020000000  0.5490940000000 1.0
C      1  0.5003880000000  0.5273070000000  0.5799420000000 1.0
C      1  0.5632120000000  0.5239630000000  0.5490380000000 1.0
C      1  0.5804960000000  0.5270840000000  0.4845580000000 1.0
C      1  0.5340010000000  0.5222940000000  0.4318700000000 1.0
C      1  0.5634220000000  0.5441610000000  0.5274630000000 1.0
C      1  0.5596850000000  0.5412270000000  0.4711000000000 1.0
C      1  0.5148930000000  0.5426050000000  0.4401380000000 1.0
C      1  0.4591170000000  0.5434230000000  0.4478810000000 1.0
C      1  0.4307960000000  0.5402740000000  0.4972320000000 1.0
C      1  0.4537450000000  0.5427600000000  0.5510030000000 1.0
C      1  0.5190480000000  0.5446810000000  0.5667810000000 1.0
C      1  0.4926460000000  0.5237870000000  0.3945330000000 1.0
C      1  0.4098770000000  0.5240060000000  0.4389750000000 1.0
C      1  0.3952440000000  0.5207910000000  0.5323000000000 1.0
C      1  0.4642780000000  0.5256160000000  0.5990100000000 1.0
C      1  0.5587720000000  0.5190940000000  0.5905250000000 1.0
C      1  0.6089980000000  0.5265140000000  0.5141670000000 1.0
C      1  0.5856890000000  0.5255040000000  0.4307780000000 1.0
C      1  0.4287200000000  0.5373560000000  0.4524900000000 1.0
C      1  0.4162260000000  0.5329940000000  0.5253230000000 1.0
C      1  0.4697680000000  0.5377760000000  0.5765700000000 1.0
C      1  0.5478710000000  0.5364320000000  0.5737170000000 1.0
C      1  0.5872730000000  0.5400710000000  0.5088690000000 1.0
C      1  0.5622680000000  0.5326550000000  0.4421650000000 1.0
C      1  0.4928750000000  0.5372540000000  0.4166230000000 1.0
C      1  0.4976060000000  0.5841510000000  0.5100570000000 1.0
C      1  0.5005720000000  0.6053670000000  0.4984220000000 1.0
C      1  0.4942810000000  0.5608110000000  0.5227880000000 1.0
END
