TITL C-2441158-471-358 0.039608938244623 125000 -9899.36063389318 0 0 77 (C1) n - 1
REM
REM in /home/bkarasulu/work/CARBON/AIRSS/Generating-Clusters/ReaxFF-fromJPCA2015/Units_Real/with-SteepDescent/Higher-Symm
REM
REM
REM
REM
REM
REM ./C.cell (1df0a924f5614ab8850e4351716899ee)
REM
REM compiler GCC version 9.2.1 20190827 (Red Hat 9.2.1-1)
REM options -cpp -mtune=generic -march=x86-64 -g -O0 -fpre-include=/usr/include/finclude/math-vector-fortran.h
REM seed -106958760 72409280 -1183839630 236659545 1421423875 -1808358376 1674712166 -512357322 138059976 -138283671 574482603 -1095237296 1686556477 1927205162 394398133 -1919290425 -1193442313 -1269640889 1440633068 -327243664 1390543971 1203276170 429229745 258406580 -70907977 912440244 -1592190630 -804464367 -561865806 -118481493 -1498504158 -494474533 -1347671213
REM
CELL 1.54180   50.00000   50.00000   50.00000   90.00000   90.00000   90.00000
LATT -1
SFAC C  
C      1  0.5755760000000  0.4878930000000  0.5016290000000 1.0
C      1  0.5211470000000  0.4814110000000  0.4299100000000 1.0
C      1  0.4452250000000  0.4820080000000  0.4556330000000 1.0
C      1  0.4405490000000  0.4877210000000  0.5406660000000 1.0
C      1  0.5213440000000  0.4877970000000  0.5697470000000 1.0
C      1  0.5752910000000  0.5150930000000  0.5013700000000 1.0
C      1  0.5223860000000  0.5224280000000  0.4316240000000 1.0
C      1  0.4434930000000  0.5215270000000  0.4551290000000 1.0
C      1  0.4395030000000  0.5147580000000  0.5436060000000 1.0
C      1  0.5231500000000  0.5148680000000  0.5708210000000 1.0
C      1  0.4837770000000  0.4614340000000  0.5720540000000 1.0
C      1  0.5632480000000  0.4615630000000  0.5382230000000 1.0
C      1  0.5551190000000  0.4614390000000  0.4502400000000 1.0
C      1  0.4734510000000  0.4611780000000  0.4333760000000 1.0
C      1  0.4265410000000  0.4610810000000  0.5070860000000 1.0
C      1  0.4850200000000  0.5419010000000  0.5727010000000 1.0
C      1  0.5643870000000  0.5423480000000  0.5374810000000 1.0
C      1  0.5549950000000  0.5416460000000  0.4509710000000 1.0
C      1  0.4726100000000  0.5400340000000  0.4322970000000 1.0
C      1  0.4263660000000  0.5417410000000  0.5075940000000 1.0
C      1  0.5490920000000  0.5232820000000  0.4923380000000 1.0
C      1  0.5058980000000  0.5239480000000  0.4533170000000 1.0
C      1  0.4538440000000  0.5221690000000  0.4802130000000 1.0
C      1  0.4661290000000  0.5235550000000  0.5353340000000 1.0
C      1  0.5238420000000  0.5233250000000  0.5431580000000 1.0
C      1  0.5496870000000  0.4796640000000  0.4919920000000 1.0
C      1  0.5062020000000  0.4791600000000  0.4537110000000 1.0
C      1  0.4551450000000  0.4801270000000  0.4799840000000 1.0
C      1  0.4657880000000  0.4792890000000  0.5334970000000 1.0
C      1  0.5222510000000  0.4797290000000  0.5430660000000 1.0
C      1  0.5382320000000  0.4567570000000  0.5476470000000 1.0
C      1  0.5562630000000  0.4566570000000  0.4770440000000 1.0
C      1  0.5019980000000  0.4617770000000  0.4315900000000 1.0
C      1  0.4397830000000  0.4553790000000  0.4848250000000 1.0
C      1  0.4684600000000  0.4574650000000  0.5505890000000 1.0
C      1  0.5393050000000  0.5466230000000  0.5455680000000 1.0
C      1  0.5555710000000  0.5461410000000  0.4773330000000 1.0
C      1  0.4978790000000  0.5486750000000  0.4340290000000 1.0
C      1  0.4395030000000  0.5485040000000  0.4849350000000 1.0
C      1  0.4692250000000  0.5466520000000  0.5510670000000 1.0
C      1  0.4481660000000  0.5611820000000  0.5077690000000 1.0
C      1  0.4921750000000  0.5619820000000  0.5523040000000 1.0
C      1  0.5474400000000  0.5623620000000  0.5239400000000 1.0
C      1  0.5376120000000  0.5621120000000  0.4634110000000 1.0
C      1  0.4787020000000  0.5603740000000  0.4517730000000 1.0
C      1  0.4476540000000  0.4415040000000  0.5082920000000 1.0
C      1  0.4910690000000  0.4409740000000  0.5522860000000 1.0
C      1  0.5462510000000  0.4416490000000  0.5260250000000 1.0
C      1  0.5384580000000  0.4414100000000  0.4633040000000 1.0
C      1  0.4745630000000  0.4428360000000  0.4543540000000 1.0
C      1  0.5754110000000  0.4867380000000  0.5301420000000 1.0
C      1  0.5486890000000  0.4863790000000  0.4367790000000 1.0
C      1  0.4566590000000  0.4853970000000  0.4318090000000 1.0
C      1  0.4220460000000  0.4860580000000  0.5204580000000 1.0
C      1  0.4958760000000  0.4863510000000  0.5800970000000 1.0
C      1  0.5758000000000  0.5165370000000  0.5300660000000 1.0
C      1  0.5495710000000  0.5161820000000  0.4369290000000 1.0
C      1  0.4564450000000  0.5151940000000  0.4309670000000 1.0
C      1  0.4216440000000  0.5160050000000  0.5203010000000 1.0
C      1  0.4957280000000  0.5160340000000  0.5806630000000 1.0
C      1  0.4892960000000  0.5708340000000  0.4765420000000 1.0
C      1  0.4768430000000  0.5669840000000  0.5035800000000 1.0
C      1  0.4972510000000  0.5704650000000  0.5252070000000 1.0
C      1  0.5227170000000  0.5705220000000  0.5112190000000 1.0
C      1  0.5172070000000  0.5692760000000  0.4825780000000 1.0
C      1  0.4853380000000  0.4296790000000  0.4763290000000 1.0
C      1  0.4754010000000  0.4331600000000  0.5045860000000 1.0
C      1  0.4964960000000  0.4325140000000  0.5251170000000 1.0
C      1  0.5227480000000  0.4315060000000  0.5128780000000 1.0
C      1  0.5171820000000  0.4365890000000  0.4836860000000 1.0
C      1  0.4817040000000  0.5019340000000  0.5221050000000 1.0
C      1  0.5160000000000  0.5018100000000  0.5242720000000 1.0
C      1  0.5291900000000  0.5012700000000  0.4934620000000 1.0
C      1  0.5020540000000  0.5015690000000  0.4725660000000 1.0
C      1  0.4738840000000  0.5013860000000  0.4902840000000 1.0
C      1  0.4964560000000  0.5386850000000  0.4992740000000 1.0
C      1  0.5029360000000  0.4621570000000  0.4946390000000 1.0
END
