TITL C-2441165-58-393 0.0511608726386861 125000 -19074.5788902549 0 0 134 (C1) n - 1
REM
REM in /home/bkarasulu/work/CARBON/AIRSS/Generating-Clusters/ReaxFF-fromJPCA2015/Units_Real/with-SteepDescent/Higher-Symm
REM
REM
REM
REM
REM
REM ./C.cell (1df0a924f5614ab8850e4351716899ee)
REM
REM compiler GCC version 9.2.1 20190827 (Red Hat 9.2.1-1)
REM options -cpp -mtune=generic -march=x86-64 -g -O0 -fpre-include=/usr/include/finclude/math-vector-fortran.h
REM seed -1301205077 694855017 -1278269578 1955097323 -2026696499 -658554347 -307067426 1019155291 1699346781 1785041691 -861703849 1435522543 -981001101 1938345559 1232804664 -144785450 -23928452 941569144 -523824066 1383584454 1211968583 -709198656 -427348568 -1404884083 -1242808691 1884954559 -1559065653 -997525576 -161345659 1383404912 -344550152 -1258761773 -1481511867
REM
CELL 1.54180   50.00000   50.00000   50.00000   90.00000   90.00000   90.00000
LATT -1
SFAC C  
C      1  0.5315940000000  0.4840240000000  0.5332080000000 1.0
C      1  0.5256180000000  0.5128720000000  0.5293420000000 1.0
C      1  0.5248720000000  0.5338920000000  0.5099620000000 1.0
C      1  0.5240200000000  0.5326070000000  0.4810670000000 1.0
C      1  0.5301460000000  0.5088180000000  0.4683320000000 1.0
C      1  0.5337060000000  0.4653140000000  0.4815060000000 1.0
C      1  0.5302290000000  0.4596270000000  0.5106150000000 1.0
C      1  0.4041960000000  0.5214420000000  0.4658230000000 1.0
C      1  0.3997510000000  0.4808670000000  0.4706640000000 1.0
C      1  0.4029810000000  0.4535770000000  0.4766340000000 1.0
C      1  0.4001470000000  0.4797510000000  0.5316390000000 1.0
C      1  0.4043770000000  0.4932680000000  0.5549060000000 1.0
C      1  0.3983790000000  0.5467360000000  0.5149650000000 1.0
C      1  0.3997910000000  0.5437240000000  0.4826330000000 1.0
C      1  0.5364930000000  0.5807230000000  0.5437890000000 1.0
C      1  0.5350280000000  0.5819330000000  0.4634920000000 1.0
C      1  0.5337950000000  0.5236630000000  0.4087690000000 1.0
C      1  0.5413680000000  0.4485030000000  0.4305720000000 1.0
C      1  0.5351770000000  0.4060290000000  0.4964030000000 1.0
C      1  0.5399060000000  0.4425020000000  0.5667450000000 1.0
C      1  0.5379640000000  0.5171800000000  0.5898800000000 1.0
C      1  0.4835170000000  0.4652810000000  0.5070550000000 1.0
C      1  0.4815230000000  0.4825990000000  0.5314730000000 1.0
C      1  0.4831400000000  0.5123610000000  0.5324490000000 1.0
C      1  0.4825360000000  0.5317910000000  0.5111650000000 1.0
C      1  0.4791780000000  0.5256630000000  0.4801460000000 1.0
C      1  0.4859950000000  0.4994380000000  0.4674870000000 1.0
C      1  0.4859520000000  0.4724450000000  0.4784390000000 1.0
C      1  0.4628620000000  0.5877700000000  0.5434300000000 1.0
C      1  0.4662690000000  0.5958790000000  0.4650030000000 1.0
C      1  0.4642200000000  0.5292150000000  0.4002300000000 1.0
C      1  0.4718940000000  0.4455340000000  0.4170400000000 1.0
C      1  0.4647170000000  0.3998520000000  0.4934510000000 1.0
C      1  0.4701470000000  0.4325660000000  0.5745600000000 1.0
C      1  0.4706930000000  0.5222940000000  0.5918110000000 1.0
C      1  0.4521630000000  0.5500120000000  0.5587990000000 1.0
C      1  0.4600680000000  0.5750380000000  0.5007890000000 1.0
C      1  0.4540150000000  0.5539640000000  0.4439530000000 1.0
C      1  0.4510990000000  0.4875560000000  0.4211360000000 1.0
C      1  0.4532410000000  0.4289060000000  0.4617150000000 1.0
C      1  0.4492980000000  0.4261280000000  0.5304850000000 1.0
C      1  0.4515840000000  0.4803300000000  0.5779910000000 1.0
C      1  0.5615700000000  0.4797600000000  0.5494010000000 1.0
C      1  0.5644290000000  0.5305770000000  0.5526910000000 1.0
C      1  0.5669110000000  0.5597500000000  0.5095220000000 1.0
C      1  0.5665420000000  0.5433310000000  0.4576530000000 1.0
C      1  0.5665820000000  0.4905660000000  0.4413260000000 1.0
C      1  0.5652800000000  0.4533020000000  0.4720330000000 1.0
C      1  0.5547360000000  0.4403770000000  0.5175380000000 1.0
C      1  0.5531250000000  0.5413260000000  0.5775650000000 1.0
C      1  0.5503400000000  0.5830820000000  0.5163530000000 1.0
C      1  0.5507990000000  0.5637980000000  0.4434990000000 1.0
C      1  0.5466850000000  0.4979310000000  0.4062800000000 1.0
C      1  0.5541700000000  0.4321970000000  0.4515080000000 1.0
C      1  0.5495260000000  0.4107240000000  0.5222710000000 1.0
C      1  0.5546500000000  0.4666280000000  0.5765730000000 1.0
C      1  0.6050270000000  0.4710540000000  0.4920310000000 1.0
C      1  0.5957610000000  0.4562520000000  0.5125380000000 1.0
C      1  0.5943560000000  0.5004180000000  0.5361180000000 1.0
C      1  0.5943440000000  0.5234870000000  0.5182080000000 1.0
C      1  0.5948250000000  0.5284890000000  0.4895870000000 1.0
C      1  0.5973280000000  0.5121530000000  0.4664810000000 1.0
C      1  0.6023490000000  0.4836130000000  0.4678810000000 1.0
C      1  0.5003870000000  0.5444550000000  0.4690640000000 1.0
C      1  0.5086840000000  0.5026370000000  0.4493770000000 1.0
C      1  0.5081290000000  0.4577290000000  0.4665020000000 1.0
C      1  0.5036700000000  0.4449350000000  0.5116110000000 1.0
C      1  0.5064320000000  0.4749900000000  0.5466660000000 1.0
C      1  0.5059810000000  0.5189790000000  0.5495080000000 1.0
C      1  0.5029830000000  0.5500200000000  0.5200440000000 1.0
C      1  0.5536820000000  0.4741240000000  0.4200930000000 1.0
C      1  0.5439030000000  0.4155150000000  0.4713340000000 1.0
C      1  0.5522790000000  0.4261620000000  0.5461330000000 1.0
C      1  0.5460800000000  0.4906870000000  0.5872540000000 1.0
C      1  0.5458130000000  0.5647230000000  0.5645150000000 1.0
C      1  0.5421810000000  0.5862670000000  0.4900440000000 1.0
C      1  0.5420280000000  0.5461100000000  0.4242450000000 1.0
C      1  0.4493510000000  0.5265550000000  0.5721880000000 1.0
C      1  0.4468940000000  0.5703100000000  0.5256130000000 1.0
C      1  0.4490700000000  0.5716690000000  0.4677720000000 1.0
C      1  0.4469600000000  0.5159800000000  0.4197800000000 1.0
C      1  0.4535580000000  0.4470470000000  0.4399830000000 1.0
C      1  0.4451420000000  0.4181030000000  0.5034870000000 1.0
C      1  0.4523320000000  0.4540280000000  0.5664580000000 1.0
C      1  0.5104360000000  0.5178770000000  0.5784340000000 1.0
C      1  0.5074530000000  0.5704910000000  0.5444170000000 1.0
C      1  0.5066240000000  0.5722350000000  0.4629070000000 1.0
C      1  0.5095790000000  0.5076060000000  0.4209540000000 1.0
C      1  0.5135390000000  0.4481220000000  0.4397720000000 1.0
C      1  0.5076540000000  0.4173530000000  0.5029780000000 1.0
C      1  0.5120090000000  0.4526270000000  0.5642750000000 1.0
C      1  0.4456740000000  0.5164120000000  0.4710930000000 1.0
C      1  0.4340230000000  0.4863640000000  0.4699730000000 1.0
C      1  0.4381820000000  0.4674940000000  0.4924310000000 1.0
C      1  0.4323800000000  0.4737660000000  0.5217130000000 1.0
C      1  0.4443910000000  0.4979440000000  0.5327420000000 1.0
C      1  0.4342970000000  0.5220550000000  0.5204840000000 1.0
C      1  0.4377810000000  0.5318370000000  0.4943980000000 1.0
C      1  0.4896240000000  0.4142740000000  0.4468590000000 1.0
C      1  0.4899950000000  0.4030310000000  0.5360360000000 1.0
C      1  0.4883220000000  0.4702300000000  0.5949580000000 1.0
C      1  0.4950200000000  0.5640300000000  0.5722350000000 1.0
C      1  0.4951150000000  0.6071130000000  0.5098250000000 1.0
C      1  0.4874940000000  0.5727370000000  0.4265500000000 1.0
C      1  0.4971320000000  0.4885530000000  0.4009140000000 1.0
C      1  0.5790350000000  0.4728800000000  0.4581090000000 1.0
C      1  0.5761100000000  0.4431050000000  0.4977130000000 1.0
C      1  0.5874160000000  0.4725540000000  0.5348860000000 1.0
C      1  0.5739520000000  0.5048260000000  0.5548650000000 1.0
C      1  0.5765380000000  0.5424560000000  0.5296790000000 1.0
C      1  0.5767220000000  0.5492640000000  0.4842300000000 1.0
C      1  0.5770360000000  0.5175850000000  0.4474800000000 1.0
C      1  0.4727360000000  0.6008310000000  0.4936680000000 1.0
C      1  0.4694910000000  0.5541990000000  0.4187640000000 1.0
C      1  0.4728180000000  0.4724440000000  0.4069210000000 1.0
C      1  0.4699380000000  0.4043970000000  0.4642460000000 1.0
C      1  0.4701640000000  0.4149510000000  0.5509590000000 1.0
C      1  0.4711030000000  0.4920610000000  0.5968230000000 1.0
C      1  0.4676400000000  0.5725460000000  0.5683200000000 1.0
C      1  0.4259760000000  0.5576010000000  0.4856450000000 1.0
C      1  0.4383000000000  0.5293740000000  0.4449700000000 1.0
C      1  0.4421730000000  0.4734460000000  0.4439970000000 1.0
C      1  0.4339490000000  0.4392780000000  0.4836820000000 1.0
C      1  0.4414950000000  0.4511140000000  0.5398280000000 1.0
C      1  0.4370020000000  0.4995540000000  0.5604950000000 1.0
C      1  0.4224120000000  0.5472710000000  0.5308840000000 1.0
C      1  0.4955100000000  0.4291530000000  0.4240080000000 1.0
C      1  0.4890820000000  0.3944530000000  0.5096390000000 1.0
C      1  0.4941380000000  0.4438870000000  0.5873710000000 1.0
C      1  0.4938470000000  0.5401390000000  0.5884650000000 1.0
C      1  0.4902460000000  0.5956700000000  0.5344330000000 1.0
C      1  0.4894470000000  0.5916610000000  0.4472510000000 1.0
C      1  0.4822520000000  0.5098980000000  0.3906420000000 1.0
C      1  0.5347260000000  0.4888380000000  0.4832550000000 1.0
END
