TITL C-2441167-4473-272 0.140704898885241 125000 -23586.174900597 0 0 181 (C1) n - 1
REM
REM in /home/bkarasulu/work/CARBON/AIRSS/Generating-Clusters/ReaxFF-fromJPCA2015/Units_Real/with-SteepDescent/Higher-Symm
REM
REM
REM
REM
REM
REM ./C.cell (1df0a924f5614ab8850e4351716899ee)
REM
REM compiler GCC version 9.2.1 20190827 (Red Hat 9.2.1-1)
REM options -cpp -mtune=generic -march=x86-64 -g -O0 -fpre-include=/usr/include/finclude/math-vector-fortran.h
REM seed 39501074 -1984746972 2061798042 841598901 756181063 890392591 -149127336 472162209 2106432748 123337900 1158333318 -212876658 1650783180 -1973469911 -765003322 -1889706258 146732833 417938016 -9244433 -1005315638 -191553999 389325250 1740919659 392132577 158122452 1932702202 39043927 -785999828 702914387 -918373862 -1722054153 -198224352 1002405013
REM
CELL 1.54180   50.00000   50.00000   50.00000   90.00000   90.00000   90.00000
LATT -1
SFAC C  
C      1  0.4454820000000  0.5490270000000  0.4464300000000 1.0
C      1  0.5549800000000  0.5507910000000  0.4449700000000 1.0
C      1  0.4092430000000  0.5111740000000  0.5522200000000 1.0
C      1  0.5864600000000  0.5101180000000  0.5576560000000 1.0
C      1  0.5628460000000  0.4448550000000  0.4357180000000 1.0
C      1  0.4373240000000  0.4453290000000  0.4379840000000 1.0
C      1  0.5576720000000  0.4837130000000  0.4661940000000 1.0
C      1  0.4431970000000  0.4880900000000  0.4648820000000 1.0
C      1  0.4106400000000  0.4415230000000  0.5295620000000 1.0
C      1  0.5882460000000  0.4412530000000  0.5298530000000 1.0
C      1  0.4370600000000  0.4713740000000  0.5659870000000 1.0
C      1  0.5609800000000  0.4696620000000  0.5676680000000 1.0
C      1  0.4657160000000  0.5333270000000  0.5936740000000 1.0
C      1  0.5309770000000  0.5325180000000  0.5977170000000 1.0
C      1  0.4853030000000  0.5535910000000  0.4086880000000 1.0
C      1  0.5140070000000  0.5567010000000  0.4063480000000 1.0
C      1  0.4418370000000  0.4082200000000  0.4811090000000 1.0
C      1  0.5559760000000  0.4086370000000  0.4848700000000 1.0
C      1  0.4874760000000  0.6078990000000  0.4625850000000 1.0
C      1  0.5168620000000  0.6031750000000  0.4650460000000 1.0
C      1  0.5143970000000  0.5615070000000  0.5971120000000 1.0
C      1  0.4884000000000  0.5705420000000  0.5930410000000 1.0
C      1  0.4797010000000  0.6073150000000  0.5110060000000 1.0
C      1  0.5090510000000  0.6024470000000  0.5089070000000 1.0
C      1  0.5493870000000  0.4554530000000  0.5403280000000 1.0
C      1  0.4475500000000  0.4612400000000  0.5340230000000 1.0
C      1  0.5249600000000  0.4539440000000  0.4087510000000 1.0
C      1  0.4764900000000  0.4531460000000  0.4054340000000 1.0
C      1  0.5152930000000  0.4859150000000  0.5981690000000 1.0
C      1  0.4849270000000  0.4845690000000  0.6003860000000 1.0
C      1  0.5322850000000  0.4627800000000  0.6054380000000 1.0
C      1  0.4671660000000  0.4613000000000  0.6020110000000 1.0
C      1  0.4834550000000  0.4276290000000  0.5179260000000 1.0
C      1  0.5119320000000  0.4278990000000  0.5114480000000 1.0
C      1  0.5892490000000  0.4821940000000  0.5600780000000 1.0
C      1  0.4109060000000  0.4830180000000  0.5605230000000 1.0
C      1  0.4929370000000  0.5562760000000  0.5573140000000 1.0
C      1  0.5180330000000  0.5513860000000  0.5680070000000 1.0
C      1  0.4886260000000  0.4697640000000  0.4808350000000 1.0
C      1  0.5143200000000  0.4674190000000  0.4864890000000 1.0
C      1  0.5842350000000  0.4408140000000  0.4544730000000 1.0
C      1  0.4138590000000  0.4411200000000  0.4545070000000 1.0
C      1  0.4761420000000  0.4676460000000  0.5312770000000 1.0
C      1  0.5259590000000  0.4679150000000  0.5304960000000 1.0
C      1  0.5883800000000  0.5211390000000  0.4372590000000 1.0
C      1  0.4101470000000  0.5218540000000  0.4398470000000 1.0
C      1  0.5810600000000  0.4941510000000  0.4275930000000 1.0
C      1  0.4156670000000  0.4950720000000  0.4292710000000 1.0
C      1  0.5317000000000  0.4388450000000  0.5907330000000 1.0
C      1  0.4721600000000  0.4402050000000  0.5832140000000 1.0
C      1  0.4726130000000  0.4010440000000  0.5156720000000 1.0
C      1  0.5244870000000  0.4065480000000  0.5268200000000 1.0
C      1  0.6010100000000  0.4667820000000  0.5384460000000 1.0
C      1  0.3995010000000  0.4674810000000  0.5388760000000 1.0
C      1  0.4336600000000  0.5521600000000  0.5406420000000 1.0
C      1  0.5706340000000  0.5473210000000  0.5360170000000 1.0
C      1  0.4085130000000  0.5284320000000  0.4685290000000 1.0
C      1  0.5930970000000  0.5293780000000  0.4659890000000 1.0
C      1  0.4557980000000  0.4349280000000  0.4170810000000 1.0
C      1  0.5452930000000  0.4330590000000  0.4163560000000 1.0
C      1  0.3961420000000  0.4665120000000  0.4940490000000 1.0
C      1  0.6025630000000  0.4672100000000  0.4936460000000 1.0
C      1  0.4588080000000  0.4390860000000  0.4564670000000 1.0
C      1  0.5303250000000  0.4427650000000  0.4516600000000 1.0
C      1  0.5223770000000  0.5265150000000  0.5711450000000 1.0
C      1  0.4752800000000  0.5348760000000  0.5661780000000 1.0
C      1  0.5917070000000  0.5576270000000  0.4715470000000 1.0
C      1  0.4091400000000  0.5569210000000  0.4740390000000 1.0
C      1  0.5446710000000  0.5885950000000  0.5248040000000 1.0
C      1  0.4608630000000  0.5919560000000  0.5293690000000 1.0
C      1  0.4892510000000  0.4796170000000  0.3976230000000 1.0
C      1  0.5184610000000  0.4805570000000  0.3991710000000 1.0
C      1  0.5610410000000  0.4304930000000  0.5317560000000 1.0
C      1  0.4378580000000  0.4331300000000  0.5293280000000 1.0
C      1  0.5321600000000  0.6051630000000  0.4897540000000 1.0
C      1  0.4674170000000  0.6073700000000  0.4844800000000 1.0
C      1  0.5958790000000  0.5109050000000  0.5262750000000 1.0
C      1  0.4028570000000  0.5112850000000  0.5234350000000 1.0
C      1  0.5485610000000  0.5131240000000  0.5287360000000 1.0
C      1  0.4479220000000  0.5093770000000  0.5285320000000 1.0
C      1  0.4495920000000  0.5198590000000  0.4668120000000 1.0
C      1  0.5535070000000  0.5247090000000  0.4612560000000 1.0
C      1  0.5383490000000  0.4844980000000  0.4435170000000 1.0
C      1  0.4610530000000  0.4798310000000  0.4384750000000 1.0
C      1  0.4846640000000  0.5797550000000  0.4561810000000 1.0
C      1  0.5124310000000  0.5738220000000  0.4623880000000 1.0
C      1  0.4423170000000  0.4916190000000  0.4180620000000 1.0
C      1  0.5537780000000  0.4929370000000  0.4175110000000 1.0
C      1  0.5135820000000  0.5127740000000  0.6115260000000 1.0
C      1  0.4837970000000  0.5130360000000  0.6071850000000 1.0
C      1  0.6056960000000  0.5384430000000  0.5155140000000 1.0
C      1  0.3947460000000  0.5394210000000  0.5172710000000 1.0
C      1  0.6006490000000  0.4629860000000  0.4653070000000 1.0
C      1  0.3988100000000  0.4634160000000  0.4653820000000 1.0
C      1  0.4682060000000  0.4177370000000  0.4384300000000 1.0
C      1  0.5321370000000  0.4174030000000  0.4379750000000 1.0
C      1  0.4838500000000  0.4227850000000  0.5483550000000 1.0
C      1  0.5117800000000  0.4129600000000  0.5523260000000 1.0
C      1  0.4491170000000  0.4808960000000  0.4928470000000 1.0
C      1  0.5545100000000  0.4833460000000  0.4944870000000 1.0
C      1  0.4392880000000  0.5223830000000  0.5853400000000 1.0
C      1  0.5649810000000  0.5189740000000  0.5779800000000 1.0
C      1  0.5266470000000  0.5312970000000  0.3989390000000 1.0
C      1  0.4739070000000  0.5270910000000  0.4052360000000 1.0
C      1  0.5159230000000  0.5386410000000  0.4852540000000 1.0
C      1  0.4872270000000  0.5421860000000  0.4774470000000 1.0
C      1  0.5098280000000  0.5333850000000  0.4390070000000 1.0
C      1  0.4859370000000  0.5410460000000  0.4490170000000 1.0
C      1  0.4329770000000  0.5686690000000  0.4636380000000 1.0
C      1  0.5676180000000  0.5696670000000  0.4638690000000 1.0
C      1  0.4353080000000  0.4858230000000  0.5171340000000 1.0
C      1  0.5678800000000  0.4955780000000  0.5172460000000 1.0
C      1  0.3921880000000  0.4846180000000  0.5167930000000 1.0
C      1  0.6083680000000  0.4848020000000  0.5167910000000 1.0
C      1  0.4705870000000  0.5622860000000  0.4354290000000 1.0
C      1  0.5248060000000  0.5586120000000  0.4374800000000 1.0
C      1  0.4830030000000  0.4603770000000  0.4327120000000 1.0
C      1  0.5132520000000  0.4597020000000  0.4353790000000 1.0
C      1  0.5259870000000  0.4838710000000  0.5038130000000 1.0
C      1  0.4760910000000  0.4819050000000  0.5047220000000 1.0
C      1  0.5168630000000  0.4978600000000  0.4565310000000 1.0
C      1  0.4880160000000  0.4945580000000  0.4564370000000 1.0
C      1  0.4212130000000  0.4278900000000  0.4788580000000 1.0
C      1  0.5762780000000  0.4278240000000  0.4798800000000 1.0
C      1  0.4153160000000  0.4838460000000  0.4555170000000 1.0
C      1  0.5838140000000  0.4835160000000  0.4548570000000 1.0
C      1  0.5289420000000  0.5177310000000  0.4700770000000 1.0
C      1  0.4769280000000  0.5149570000000  0.4778180000000 1.0
C      1  0.4459670000000  0.5188800000000  0.4083690000000 1.0
C      1  0.5530860000000  0.5197640000000  0.4050700000000 1.0
C      1  0.5147250000000  0.5171200000000  0.5071310000000 1.0
C      1  0.4859470000000  0.5110500000000  0.5068750000000 1.0
C      1  0.5312190000000  0.5068250000000  0.5552830000000 1.0
C      1  0.4674530000000  0.5073690000000  0.5548480000000 1.0
C      1  0.5171940000000  0.4373510000000  0.5672120000000 1.0
C      1  0.4900850000000  0.4472720000000  0.5624990000000 1.0
C      1  0.5385900000000  0.3999410000000  0.4611230000000 1.0
C      1  0.4602010000000  0.3993150000000  0.4599500000000 1.0
C      1  0.4801450000000  0.5583780000000  0.5052640000000 1.0
C      1  0.5067710000000  0.5732130000000  0.5145860000000 1.0
C      1  0.4101690000000  0.5615620000000  0.5258930000000 1.0
C      1  0.5922650000000  0.5617770000000  0.5247820000000 1.0
C      1  0.4465240000000  0.4516120000000  0.5851400000000 1.0
C      1  0.5547370000000  0.4530100000000  0.5905380000000 1.0
C      1  0.4899590000000  0.4204440000000  0.4769150000000 1.0
C      1  0.5149160000000  0.4207390000000  0.4854540000000 1.0
C      1  0.4462390000000  0.5869930000000  0.4821800000000 1.0
C      1  0.5529640000000  0.5834480000000  0.4849460000000 1.0
C      1  0.5132290000000  0.5337570000000  0.5332720000000 1.0
C      1  0.4843640000000  0.5362560000000  0.5257020000000 1.0
C      1  0.5705440000000  0.5250950000000  0.4836830000000 1.0
C      1  0.4303110000000  0.5239800000000  0.4883860000000 1.0
C      1  0.4093740000000  0.4429980000000  0.5008340000000 1.0
C      1  0.5883990000000  0.4442190000000  0.5007770000000 1.0
C      1  0.5284650000000  0.4450060000000  0.4794880000000 1.0
C      1  0.4732680000000  0.4431460000000  0.4818090000000 1.0
C      1  0.4303080000000  0.5362450000000  0.4256850000000 1.0
C      1  0.5696490000000  0.5362330000000  0.4223340000000 1.0
C      1  0.5643580000000  0.5454980000000  0.5648570000000 1.0
C      1  0.4242640000000  0.5330990000000  0.5629860000000 1.0
C      1  0.5436990000000  0.5658840000000  0.5696480000000 1.0
C      1  0.4649820000000  0.5724930000000  0.5785170000000 1.0
C      1  0.6017130000000  0.5605010000000  0.4975050000000 1.0
C      1  0.4003220000000  0.5612400000000  0.5002220000000 1.0
C      1  0.4472400000000  0.4971710000000  0.5734310000000 1.0
C      1  0.5480840000000  0.4953150000000  0.5761580000000 1.0
C      1  0.4538520000000  0.5747540000000  0.5518770000000 1.0
C      1  0.5331120000000  0.5857360000000  0.5506520000000 1.0
C      1  0.5156390000000  0.5089770000000  0.4153890000000 1.0
C      1  0.4875390000000  0.5030070000000  0.4166260000000 1.0
C      1  0.4861700000000  0.4853570000000  0.5514870000000 1.0
C      1  0.5128220000000  0.4864540000000  0.5481900000000 1.0
C      1  0.5147090000000  0.3888660000000  0.4717220000000 1.0
C      1  0.4861790000000  0.3922700000000  0.4723220000000 1.0
C      1  0.5567630000000  0.5357850000000  0.5127710000000 1.0
C      1  0.4404840000000  0.5322170000000  0.5149730000000 1.0
C      1  0.5504520000000  0.4091960000000  0.5136760000000 1.0
C      1  0.4464880000000  0.4103750000000  0.5112060000000 1.0
C      1  0.5418460000000  0.5663110000000  0.5065460000000 1.0
C      1  0.4548300000000  0.5743030000000  0.5069930000000 1.0
C      1  0.5052880000000  0.5763780000000  0.5430080000000 1.0
END
