TITL C-2441159-1093-662 0.0603937961272797 125000 -7880.11783170854 0 0 80 (C1) n - 1
REM
REM in /home/bkarasulu/work/CARBON/AIRSS/Generating-Clusters/ReaxFF-fromJPCA2015/Units_Real/with-SteepDescent/Higher-Symm
REM
REM
REM
REM
REM
REM ./C.cell (1df0a924f5614ab8850e4351716899ee)
REM
REM compiler GCC version 9.2.1 20190827 (Red Hat 9.2.1-1)
REM options -cpp -mtune=generic -march=x86-64 -g -O0 -fpre-include=/usr/include/finclude/math-vector-fortran.h
REM seed 1931616152 -1933810713 -285354318 -1134455421 -1110275818 537945240 1520768316 -707145850 1850285735 -1273828536 1563327769 1564796706 -1744212224 -513431087 -224806398 774740428 1392832505 1533045616 -1176489735 -1736676983 -999143428 1625033196 1947648516 1449532874 6690626 702423982 -1871669746 -127030763 2127496242 -132229619 1772628134 2132595009 -1122215395
REM
CELL 1.54180   50.00000   50.00000   50.00000   90.00000   90.00000   90.00000
LATT -1
SFAC C  
C      1  0.5150030000000  0.5259370000000  0.4340730000000 1.0
C      1  0.5252380000000  0.4337710000000  0.5150380000000 1.0
C      1  0.4330120000000  0.5151420000000  0.5257550000000 1.0
C      1  0.4851510000000  0.5258240000000  0.5665250000000 1.0
C      1  0.4852250000000  0.4751430000000  0.4324810000000 1.0
C      1  0.5148190000000  0.4749100000000  0.5673840000000 1.0
C      1  0.4745190000000  0.4339340000000  0.4849310000000 1.0
C      1  0.4746070000000  0.5668740000000  0.5150610000000 1.0
C      1  0.5250430000000  0.5664970000000  0.4857120000000 1.0
C      1  0.5668160000000  0.5148830000000  0.4747060000000 1.0
C      1  0.5661680000000  0.4850750000000  0.5259350000000 1.0
C      1  0.4339500000000  0.4856790000000  0.4739220000000 1.0
C      1  0.5151920000000  0.4750320000000  0.4330750000000 1.0
C      1  0.5251510000000  0.5665480000000  0.5149670000000 1.0
C      1  0.4336940000000  0.4857860000000  0.5255190000000 1.0
C      1  0.4847720000000  0.4748310000000  0.5670870000000 1.0
C      1  0.4856980000000  0.5253140000000  0.4337500000000 1.0
C      1  0.5147820000000  0.5256490000000  0.5664660000000 1.0
C      1  0.4742980000000  0.5668880000000  0.4850290000000 1.0
C      1  0.4736200000000  0.4333370000000  0.5139850000000 1.0
C      1  0.5266540000000  0.4331830000000  0.4864580000000 1.0
C      1  0.5659700000000  0.4851370000000  0.4749690000000 1.0
C      1  0.5663900000000  0.5147360000000  0.5252070000000 1.0
C      1  0.4338780000000  0.5150800000000  0.4756580000000 1.0
C      1  0.5122510000000  0.4862790000000  0.4620130000000 1.0
C      1  0.4854120000000  0.4612910000000  0.5126160000000 1.0
C      1  0.4612840000000  0.5122200000000  0.4860440000000 1.0
C      1  0.4876490000000  0.4863910000000  0.5383970000000 1.0
C      1  0.4884230000000  0.5149150000000  0.4617380000000 1.0
C      1  0.5116890000000  0.5148940000000  0.5386270000000 1.0
C      1  0.5143120000000  0.4611790000000  0.4877350000000 1.0
C      1  0.5143920000000  0.5383530000000  0.5124360000000 1.0
C      1  0.4856220000000  0.5378130000000  0.4877660000000 1.0
C      1  0.5380170000000  0.5122760000000  0.5147040000000 1.0
C      1  0.5384870000000  0.4881780000000  0.4858990000000 1.0
C      1  0.4614320000000  0.4881940000000  0.5148620000000 1.0
C      1  0.5116850000000  0.5149400000000  0.4614950000000 1.0
C      1  0.4858790000000  0.5380810000000  0.5124860000000 1.0
C      1  0.4618100000000  0.4874690000000  0.4853430000000 1.0
C      1  0.4883720000000  0.5148540000000  0.5389220000000 1.0
C      1  0.4878370000000  0.4863720000000  0.4622080000000 1.0
C      1  0.5121700000000  0.4861370000000  0.5381910000000 1.0
C      1  0.5145340000000  0.5383130000000  0.4882080000000 1.0
C      1  0.5145980000000  0.4615550000000  0.5122780000000 1.0
C      1  0.4855530000000  0.4610960000000  0.4884320000000 1.0
C      1  0.5381680000000  0.4879490000000  0.5146740000000 1.0
C      1  0.5378610000000  0.5124560000000  0.4861640000000 1.0
C      1  0.4616930000000  0.5123990000000  0.5141890000000 1.0
C      1  0.5174350000000  0.4393920000000  0.5426460000000 1.0
C      1  0.4387610000000  0.5423500000000  0.5156660000000 1.0
C      1  0.5414420000000  0.5149310000000  0.4391170000000 1.0
C      1  0.4827340000000  0.4395610000000  0.4577070000000 1.0
C      1  0.4850260000000  0.5618860000000  0.5418120000000 1.0
C      1  0.5151890000000  0.5616000000000  0.4587180000000 1.0
C      1  0.5609730000000  0.5422350000000  0.4843850000000 1.0
C      1  0.5617380000000  0.4585810000000  0.5149110000000 1.0
C      1  0.4370480000000  0.4572960000000  0.4857140000000 1.0
C      1  0.4586220000000  0.5150300000000  0.5614450000000 1.0
C      1  0.4581720000000  0.4841360000000  0.4387120000000 1.0
C      1  0.5416830000000  0.4848430000000  0.5618400000000 1.0
C      1  0.5148720000000  0.5617700000000  0.5418000000000 1.0
C      1  0.4387650000000  0.4581220000000  0.5179810000000 1.0
C      1  0.5417640000000  0.4854080000000  0.4382710000000 1.0
C      1  0.4847920000000  0.5616240000000  0.4583790000000 1.0
C      1  0.4838540000000  0.4387800000000  0.5430330000000 1.0
C      1  0.5166480000000  0.4391000000000  0.4570240000000 1.0
C      1  0.5618950000000  0.4586230000000  0.4857380000000 1.0
C      1  0.5610040000000  0.5420150000000  0.5160290000000 1.0
C      1  0.4385490000000  0.5420470000000  0.4852960000000 1.0
C      1  0.4582470000000  0.4854630000000  0.5621840000000 1.0
C      1  0.4582990000000  0.5168320000000  0.4398810000000 1.0
C      1  0.5415070000000  0.5154540000000  0.5610280000000 1.0
C      1  0.5438000000000  0.5439580000000  0.4568770000000 1.0
C      1  0.5431460000000  0.4564330000000  0.5446520000000 1.0
C      1  0.4560750000000  0.5440920000000  0.5439200000000 1.0
C      1  0.4563310000000  0.4560250000000  0.5439680000000 1.0
C      1  0.5431100000000  0.4557330000000  0.4559060000000 1.0
C      1  0.4564970000000  0.5434880000000  0.4559670000000 1.0
C      1  0.4570810000000  0.4567950000000  0.4550590000000 1.0
C      1  0.5438490000000  0.5438730000000  0.5437890000000 1.0
END
