TITL C-2441163-1170-42 0.0512105824760201 125000 -14669.7662303014 0 0 106 (C1) n - 1
REM
REM in /home/bkarasulu/work/CARBON/AIRSS/Generating-Clusters/ReaxFF-fromJPCA2015/Units_Real/with-SteepDescent/Higher-Symm
REM
REM
REM
REM
REM
REM ./C.cell (1df0a924f5614ab8850e4351716899ee)
REM
REM compiler GCC version 9.2.1 20190827 (Red Hat 9.2.1-1)
REM options -cpp -mtune=generic -march=x86-64 -g -O0 -fpre-include=/usr/include/finclude/math-vector-fortran.h
REM seed 933009816 -1854216442 -911967201 32119625 -1910378840 -87984386 -1413168043 -1887081592 1125202651 498370479 -882779440 -1994632374 161580031 -1365225321 838565698 -451919412 -465329978 -949585219 921472538 229558778 561915647 897457931 -1516448082 1523302752 441982938 732148652 -1955882734 -815340941 -450654148 -517164215 1135557804 1673525534 1511092538
REM
CELL 1.54180   50.00000   50.00000   50.00000   90.00000   90.00000   90.00000
LATT -1
SFAC C  
C      1  0.5432870000000  0.4827910000000  0.5732900000000 1.0
C      1  0.4567720000000  0.5184390000000  0.4256720000000 1.0
C      1  0.5320220000000  0.5546260000000  0.4394410000000 1.0
C      1  0.4679260000000  0.4455080000000  0.5604090000000 1.0
C      1  0.5069910000000  0.4882760000000  0.4083160000000 1.0
C      1  0.4940920000000  0.5117030000000  0.5918610000000 1.0
C      1  0.5574730000000  0.5445440000000  0.4460530000000 1.0
C      1  0.4418340000000  0.4546770000000  0.5546570000000 1.0
C      1  0.5816850000000  0.5293340000000  0.4850250000000 1.0
C      1  0.4203910000000  0.4714490000000  0.5151830000000 1.0
C      1  0.4284870000000  0.4989610000000  0.5228010000000 1.0
C      1  0.5821460000000  0.5019730000000  0.4762030000000 1.0
C      1  0.5060040000000  0.5626990000000  0.4969710000000 1.0
C      1  0.4945600000000  0.4361860000000  0.5031500000000 1.0
C      1  0.5057990000000  0.5216070000000  0.5113010000000 1.0
C      1  0.4930840000000  0.4778040000000  0.4896970000000 1.0
C      1  0.5402490000000  0.4294340000000  0.4983890000000 1.0
C      1  0.4602430000000  0.5701920000000  0.5018530000000 1.0
C      1  0.4776760000000  0.5178080000000  0.5058350000000 1.0
C      1  0.5216010000000  0.4823500000000  0.4948060000000 1.0
C      1  0.4964910000000  0.5161350000000  0.4124080000000 1.0
C      1  0.5040360000000  0.4843520000000  0.5863140000000 1.0
C      1  0.4759810000000  0.5716530000000  0.5545970000000 1.0
C      1  0.5241710000000  0.4276570000000  0.4438790000000 1.0
C      1  0.5095720000000  0.5852420000000  0.5150050000000 1.0
C      1  0.4917900000000  0.4147140000000  0.4837740000000 1.0
C      1  0.5256260000000  0.5517780000000  0.5468770000000 1.0
C      1  0.4729350000000  0.4475440000000  0.4531930000000 1.0
C      1  0.5203460000000  0.4540650000000  0.4338010000000 1.0
C      1  0.4790890000000  0.5447480000000  0.5639330000000 1.0
C      1  0.5180930000000  0.4943360000000  0.5627970000000 1.0
C      1  0.4819400000000  0.5084260000000  0.4365940000000 1.0
C      1  0.5572870000000  0.4670310000000  0.5326350000000 1.0
C      1  0.4435420000000  0.5339930000000  0.4671250000000 1.0
C      1  0.5504300000000  0.5669630000000  0.5090110000000 1.0
C      1  0.4492470000000  0.4330060000000  0.4900140000000 1.0
C      1  0.5134280000000  0.4763720000000  0.4515210000000 1.0
C      1  0.4842080000000  0.5222370000000  0.5468940000000 1.0
C      1  0.4822100000000  0.4797300000000  0.5293480000000 1.0
C      1  0.5179350000000  0.5201470000000  0.4709280000000 1.0
C      1  0.4793690000000  0.4608740000000  0.5079380000000 1.0
C      1  0.5211210000000  0.5379150000000  0.4933890000000 1.0
C      1  0.5725930000000  0.4966250000000  0.4493800000000 1.0
C      1  0.4279600000000  0.5035130000000  0.5523170000000 1.0
C      1  0.4234240000000  0.5128350000000  0.4559080000000 1.0
C      1  0.5760320000000  0.4872060000000  0.5432750000000 1.0
C      1  0.4144120000000  0.4718680000000  0.4866140000000 1.0
C      1  0.5830290000000  0.5276030000000  0.5141090000000 1.0
C      1  0.5042750000000  0.4285180000000  0.5417500000000 1.0
C      1  0.4958040000000  0.5712960000000  0.4585010000000 1.0
C      1  0.4734870000000  0.5689380000000  0.5257040000000 1.0
C      1  0.5260240000000  0.4361010000000  0.4748460000000 1.0
C      1  0.5119420000000  0.5335350000000  0.5862260000000 1.0
C      1  0.4888620000000  0.4663450000000  0.4117640000000 1.0
C      1  0.5392390000000  0.4574690000000  0.5600620000000 1.0
C      1  0.4605030000000  0.5436110000000  0.4398040000000 1.0
C      1  0.4745210000000  0.4282340000000  0.5391730000000 1.0
C      1  0.5256340000000  0.5722380000000  0.4604300000000 1.0
C      1  0.5345420000000  0.4889460000000  0.4180590000000 1.0
C      1  0.4665400000000  0.5105320000000  0.5826540000000 1.0
C      1  0.5740900000000  0.4609600000000  0.5087890000000 1.0
C      1  0.4262400000000  0.5405320000000  0.4915970000000 1.0
C      1  0.4413040000000  0.5410980000000  0.5395470000000 1.0
C      1  0.5529520000000  0.4565680000000  0.4622910000000 1.0
C      1  0.4319020000000  0.4484860000000  0.5288740000000 1.0
C      1  0.5679260000000  0.5509990000000  0.4710760000000 1.0
C      1  0.4146950000000  0.5163870000000  0.5016710000000 1.0
C      1  0.5875020000000  0.4841770000000  0.4990130000000 1.0
C      1  0.5275260000000  0.5511830000000  0.5748960000000 1.0
C      1  0.4744380000000  0.4499800000000  0.4260940000000 1.0
C      1  0.5574170000000  0.5272220000000  0.5468390000000 1.0
C      1  0.4399520000000  0.4743220000000  0.4529980000000 1.0
C      1  0.4873720000000  0.4605850000000  0.5785970000000 1.0
C      1  0.5129530000000  0.5398340000000  0.4212670000000 1.0
C      1  0.5323920000000  0.5752960000000  0.5289580000000 1.0
C      1  0.4675060000000  0.4233280000000  0.4707200000000 1.0
C      1  0.4382110000000  0.5546730000000  0.5139100000000 1.0
C      1  0.5622480000000  0.4457400000000  0.4880310000000 1.0
C      1  0.4522070000000  0.4305040000000  0.5187290000000 1.0
C      1  0.5480030000000  0.5698080000000  0.4802820000000 1.0
C      1  0.4683510000000  0.5222420000000  0.4795630000000 1.0
C      1  0.5320200000000  0.4779240000000  0.5206630000000 1.0
C      1  0.4384800000000  0.4797750000000  0.5659850000000 1.0
C      1  0.5612650000000  0.5195940000000  0.4351240000000 1.0
C      1  0.5195330000000  0.4342390000000  0.5172660000000 1.0
C      1  0.4808910000000  0.5638360000000  0.4828390000000 1.0
C      1  0.5292700000000  0.4937190000000  0.4694450000000 1.0
C      1  0.4663200000000  0.5046900000000  0.5293180000000 1.0
C      1  0.4871740000000  0.5533680000000  0.4377530000000 1.0
C      1  0.5132530000000  0.4467860000000  0.5622300000000 1.0
C      1  0.5146670000000  0.4119780000000  0.4662280000000 1.0
C      1  0.4886850000000  0.5894000000000  0.5343600000000 1.0
C      1  0.5099470000000  0.4822450000000  0.5373310000000 1.0
C      1  0.4901490000000  0.5182930000000  0.4624890000000 1.0
C      1  0.4634240000000  0.4829910000000  0.5783610000000 1.0
C      1  0.5369230000000  0.5166780000000  0.4214340000000 1.0
C      1  0.4097590000000  0.5001010000000  0.4781660000000 1.0
C      1  0.5893490000000  0.5004680000000  0.5223190000000 1.0
C      1  0.4361330000000  0.4565930000000  0.4739730000000 1.0
C      1  0.5586010000000  0.5407080000000  0.5228670000000 1.0
C      1  0.5554830000000  0.4746280000000  0.4409140000000 1.0
C      1  0.4431910000000  0.5263770000000  0.5631960000000 1.0
C      1  0.4883890000000  0.4702340000000  0.4632370000000 1.0
C      1  0.5118320000000  0.5258180000000  0.5388140000000 1.0
C      1  0.5630340000000  0.5040570000000  0.5624960000000 1.0
C      1  0.4370510000000  0.4968820000000  0.4359850000000 1.0
END
