TITL C-2441158-471-1401 0.00308341047051241 125000 -15581.9341807255 0 0 103 (C1) n - 1
REM
REM in /home/bkarasulu/work/CARBON/AIRSS/Generating-Clusters/ReaxFF-fromJPCA2015/Units_Real/with-SteepDescent/Higher-Symm
REM
REM
REM
REM
REM
REM ./C.cell (1df0a924f5614ab8850e4351716899ee)
REM
REM compiler GCC version 9.2.1 20190827 (Red Hat 9.2.1-1)
REM options -cpp -mtune=generic -march=x86-64 -g -O0 -fpre-include=/usr/include/finclude/math-vector-fortran.h
REM seed -1261897660 59839532 300350286 1856577261 194170722 716909635 -1043424614 -1825415276 -703166941 1764924844 1014528658 -1290783546 -248298607 -1450692813 -1055148936 -1464528919 2042399037 281968897 1822313967 1414305550 -761359903 -1626493946 -1865795414 -457478019 -1019106587 1297217093 132660590 -1110542475 -1741004758 -1125737764 1712721100 -653111290 -1597968683
REM
CELL 1.54180   50.00000   50.00000   50.00000   90.00000   90.00000   90.00000
LATT -1
SFAC C  
C      1  0.4821780000000  0.4649880000000  0.5063030000000 1.0
C      1  0.4817520000000  0.4898860000000  0.5208340000000 1.0
C      1  0.4839980000000  0.5322320000000  0.5034050000000 1.0
C      1  0.5117280000000  0.5326270000000  0.5062610000000 1.0
C      1  0.5282020000000  0.5087120000000  0.5120850000000 1.0
C      1  0.5304170000000  0.4800940000000  0.5063610000000 1.0
C      1  0.5096000000000  0.4610850000000  0.4970370000000 1.0
C      1  0.4501590000000  0.4618780000000  0.4387180000000 1.0
C      1  0.4362850000000  0.5138770000000  0.4360570000000 1.0
C      1  0.4706940000000  0.5597530000000  0.4351720000000 1.0
C      1  0.5281750000000  0.5596070000000  0.4339790000000 1.0
C      1  0.5630600000000  0.5144190000000  0.4339020000000 1.0
C      1  0.5510720000000  0.4588260000000  0.4374500000000 1.0
C      1  0.5003850000000  0.4365410000000  0.4368160000000 1.0
C      1  0.4994360000000  0.5536370000000  0.4350860000000 1.0
C      1  0.5402660000000  0.5327950000000  0.4357150000000 1.0
C      1  0.5502640000000  0.4882440000000  0.4384320000000 1.0
C      1  0.5235860000000  0.4525520000000  0.4436670000000 1.0
C      1  0.4788560000000  0.4564930000000  0.4356630000000 1.0
C      1  0.4478000000000  0.4896160000000  0.4472670000000 1.0
C      1  0.4588700000000  0.5329270000000  0.4353450000000 1.0
C      1  0.4609640000000  0.4791730000000  0.5688710000000 1.0
C      1  0.4619290000000  0.5078710000000  0.5677270000000 1.0
C      1  0.5010550000000  0.5376780000000  0.5768170000000 1.0
C      1  0.5315260000000  0.5306410000000  0.5784500000000 1.0
C      1  0.5388080000000  0.5026120000000  0.5742180000000 1.0
C      1  0.5169140000000  0.4823440000000  0.5634330000000 1.0
C      1  0.4867650000000  0.4658140000000  0.5691890000000 1.0
C      1  0.5827330000000  0.5153540000000  0.5491760000000 1.0
C      1  0.5567000000000  0.4456290000000  0.5491510000000 1.0
C      1  0.4957820000000  0.4176850000000  0.5457810000000 1.0
C      1  0.4412460000000  0.4432820000000  0.5449370000000 1.0
C      1  0.4188420000000  0.5259370000000  0.5461920000000 1.0
C      1  0.4756110000000  0.5777330000000  0.5486270000000 1.0
C      1  0.5446440000000  0.5719750000000  0.5444990000000 1.0
C      1  0.5102080000000  0.4241160000000  0.5011150000000 1.0
C      1  0.4546440000000  0.4469730000000  0.5033250000000 1.0
C      1  0.4023560000000  0.5105140000000  0.4997730000000 1.0
C      1  0.4632850000000  0.5586120000000  0.5053930000000 1.0
C      1  0.5237340000000  0.5637370000000  0.5028190000000 1.0
C      1  0.5609450000000  0.5211700000000  0.5039080000000 1.0
C      1  0.5597890000000  0.4653200000000  0.5062310000000 1.0
C      1  0.4748760000000  0.5220240000000  0.4555830000000 1.0
C      1  0.4994240000000  0.5328620000000  0.4547970000000 1.0
C      1  0.5242080000000  0.5202740000000  0.4560190000000 1.0
C      1  0.5313860000000  0.4935050000000  0.4591420000000 1.0
C      1  0.5146290000000  0.4712760000000  0.4642230000000 1.0
C      1  0.4900570000000  0.4790230000000  0.4498350000000 1.0
C      1  0.4691620000000  0.4970830000000  0.4671020000000 1.0
C      1  0.4356490000000  0.4499150000000  0.4609950000000 1.0
C      1  0.4166250000000  0.5187740000000  0.4568560000000 1.0
C      1  0.4643880000000  0.5735240000000  0.4601260000000 1.0
C      1  0.5363780000000  0.5738910000000  0.4579630000000 1.0
C      1  0.5804510000000  0.5179370000000  0.4571190000000 1.0
C      1  0.5650710000000  0.4477400000000  0.4607070000000 1.0
C      1  0.4999400000000  0.4166880000000  0.4580730000000 1.0
C      1  0.5566020000000  0.4345390000000  0.5043690000000 1.0
C      1  0.4845010000000  0.4078350000000  0.5003550000000 1.0
C      1  0.4296230000000  0.4643990000000  0.5050360000000 1.0
C      1  0.4167720000000  0.5337850000000  0.4957700000000 1.0
C      1  0.4798360000000  0.5849490000000  0.5030650000000 1.0
C      1  0.5549440000000  0.5695370000000  0.5021040000000 1.0
C      1  0.5832000000000  0.5038570000000  0.4973000000000 1.0
C      1  0.4385720000000  0.5253250000000  0.5654260000000 1.0
C      1  0.4894060000000  0.5594400000000  0.5645380000000 1.0
C      1  0.5383550000000  0.5512580000000  0.5617290000000 1.0
C      1  0.5667660000000  0.5011590000000  0.5678380000000 1.0
C      1  0.5369360000000  0.4634760000000  0.5567480000000 1.0
C      1  0.4907210000000  0.4423240000000  0.5580640000000 1.0
C      1  0.4360790000000  0.4677760000000  0.5558170000000 1.0
C      1  0.4498510000000  0.4250870000000  0.5270240000000 1.0
C      1  0.4147880000000  0.5057680000000  0.5264290000000 1.0
C      1  0.4539010000000  0.5639270000000  0.5337240000000 1.0
C      1  0.5215420000000  0.5816590000000  0.5268040000000 1.0
C      1  0.5759610000000  0.5333200000000  0.5273260000000 1.0
C      1  0.5734080000000  0.4648880000000  0.5336510000000 1.0
C      1  0.5198900000000  0.4159410000000  0.5284510000000 1.0
C      1  0.4205630000000  0.4693710000000  0.4783180000000 1.0
C      1  0.4225810000000  0.5457520000000  0.4719070000000 1.0
C      1  0.4871830000000  0.5868030000000  0.4751000000000 1.0
C      1  0.5604440000000  0.5643480000000  0.4737670000000 1.0
C      1  0.5899430000000  0.4925260000000  0.4724780000000 1.0
C      1  0.5507810000000  0.4268570000000  0.4769060000000 1.0
C      1  0.4745310000000  0.4135030000000  0.4736210000000 1.0
C      1  0.5830650000000  0.4870920000000  0.5492030000000 1.0
C      1  0.5472260000000  0.4238250000000  0.5296560000000 1.0
C      1  0.4739450000000  0.4087620000000  0.5272510000000 1.0
C      1  0.4242900000000  0.4784630000000  0.5299940000000 1.0
C      1  0.4351760000000  0.5486830000000  0.5492160000000 1.0
C      1  0.4942430000000  0.5902240000000  0.5279990000000 1.0
C      1  0.5672390000000  0.5612850000000  0.5270820000000 1.0
C      1  0.5700650000000  0.5372450000000  0.4759510000000 1.0
C      1  0.5764330000000  0.4672080000000  0.4788830000000 1.0
C      1  0.5235630000000  0.4163220000000  0.4753020000000 1.0
C      1  0.4525110000000  0.4324910000000  0.4767930000000 1.0
C      1  0.4088030000000  0.4963890000000  0.4740250000000 1.0
C      1  0.4462790000000  0.5614440000000  0.4791340000000 1.0
C      1  0.5151190000000  0.5789500000000  0.4768790000000 1.0
C      1  0.4732820000000  0.5059700000000  0.4984370000000 1.0
C      1  0.4883500000000  0.5171410000000  0.5581840000000 1.0
C      1  0.5014410000000  0.5025280000000  0.4017620000000 1.0
C      1  0.5034020000000  0.5007380000000  0.5391920000000 1.0
C      1  0.4960580000000  0.4915070000000  0.4222680000000 1.0
END
