TITL C-2441166-8118-848 0.117049703040493 125000 -18036.8632269621 0 0 147 (C1) n - 1
REM
REM in /home/bkarasulu/work/CARBON/AIRSS/Generating-Clusters/ReaxFF-fromJPCA2015/Units_Real/with-SteepDescent/Higher-Symm
REM
REM
REM
REM
REM
REM ./C.cell (1df0a924f5614ab8850e4351716899ee)
REM
REM compiler GCC version 9.2.1 20190827 (Red Hat 9.2.1-1)
REM options -cpp -mtune=generic -march=x86-64 -g -O0 -fpre-include=/usr/include/finclude/math-vector-fortran.h
REM seed -1832910271 -1271073425 -86274823 -851183961 902492293 2100770019 -95561083 -1073407840 -34233133 354154982 1160715715 -1406196829 -157779332 1009682855 257392769 -1077534873 -615499214 971872604 904934807 2116542304 -1901835376 40378309 -1734719392 549523190 -6919940 -727668786 1895311711 180873139 1986376043 -731863185 1969141159 1951225125 117451023
REM
CELL 1.54180   50.00000   50.00000   50.00000   90.00000   90.00000   90.00000
LATT -1
SFAC C  
C      1  0.5468160000000  0.4668990000000  0.5748320000000 1.0
C      1  0.5838850000000  0.4661320000000  0.5110860000000 1.0
C      1  0.5619480000000  0.4679670000000  0.4391880000000 1.0
C      1  0.4905130000000  0.4679210000000  0.4130410000000 1.0
C      1  0.4264490000000  0.4664990000000  0.4533610000000 1.0
C      1  0.4190440000000  0.4667210000000  0.5257640000000 1.0
C      1  0.4713450000000  0.4670800000000  0.5823570000000 1.0
C      1  0.5173060000000  0.4389190000000  0.4793140000000 1.0
C      1  0.4934390000000  0.4514140000000  0.4696970000000 1.0
C      1  0.4704420000000  0.4388980000000  0.4817720000000 1.0
C      1  0.4777280000000  0.4353280000000  0.5058460000000 1.0
C      1  0.4899370000000  0.4488510000000  0.5272840000000 1.0
C      1  0.5229200000000  0.4512040000000  0.5266710000000 1.0
C      1  0.5267220000000  0.4372820000000  0.5041650000000 1.0
C      1  0.4631070000000  0.5789330000000  0.4646900000000 1.0
C      1  0.4478480000000  0.5789940000000  0.5074540000000 1.0
C      1  0.4731750000000  0.5791480000000  0.5450290000000 1.0
C      1  0.5180590000000  0.5787530000000  0.5491760000000 1.0
C      1  0.5496250000000  0.5793230000000  0.5164120000000 1.0
C      1  0.5438220000000  0.5792880000000  0.4711110000000 1.0
C      1  0.5058540000000  0.5786630000000  0.4473810000000 1.0
C      1  0.5473510000000  0.5763120000000  0.5455680000000 1.0
C      1  0.5649370000000  0.5765310000000  0.4911640000000 1.0
C      1  0.5348930000000  0.5763080000000  0.4430000000000 1.0
C      1  0.4780200000000  0.5759910000000  0.4388570000000 1.0
C      1  0.4371320000000  0.5756110000000  0.4805610000000 1.0
C      1  0.4451340000000  0.5761690000000  0.5368210000000 1.0
C      1  0.4937940000000  0.5765050000000  0.5658860000000 1.0
C      1  0.5387540000000  0.4759590000000  0.4217240000000 1.0
C      1  0.4641800000000  0.4777520000000  0.4201000000000 1.0
C      1  0.4143000000000  0.4795670000000  0.4769590000000 1.0
C      1  0.4321720000000  0.4740860000000  0.5530860000000 1.0
C      1  0.4982680000000  0.4782460000000  0.5873180000000 1.0
C      1  0.5673420000000  0.4795890000000  0.5578030000000 1.0
C      1  0.5845570000000  0.4770180000000  0.4830340000000 1.0
C      1  0.5839790000000  0.4809000000000  0.4532870000000 1.0
C      1  0.5150530000000  0.4800640000000  0.4042410000000 1.0
C      1  0.4357450000000  0.4796620000000  0.4286510000000 1.0
C      1  0.4042310000000  0.4801330000000  0.5047760000000 1.0
C      1  0.4453320000000  0.4798930000000  0.5793090000000 1.0
C      1  0.5275030000000  0.4802110000000  0.5924860000000 1.0
C      1  0.5884300000000  0.4797290000000  0.5372350000000 1.0
C      1  0.5317890000000  0.5562980000000  0.5094980000000 1.0
C      1  0.5274670000000  0.5559040000000  0.4812350000000 1.0
C      1  0.5024660000000  0.5565650000000  0.4682610000000 1.0
C      1  0.4802410000000  0.5647910000000  0.4816600000000 1.0
C      1  0.4687820000000  0.5567530000000  0.5053160000000 1.0
C      1  0.4843780000000  0.5558470000000  0.5289810000000 1.0
C      1  0.5129230000000  0.5562230000000  0.5303700000000 1.0
C      1  0.4542740000000  0.4205590000000  0.4514000000000 1.0
C      1  0.4379520000000  0.4202120000000  0.5074360000000 1.0
C      1  0.4644950000000  0.4254110000000  0.5543200000000 1.0
C      1  0.5187530000000  0.4230270000000  0.5621470000000 1.0
C      1  0.5580590000000  0.4198140000000  0.5239550000000 1.0
C      1  0.5550110000000  0.4224780000000  0.4664320000000 1.0
C      1  0.5083840000000  0.4239320000000  0.4347170000000 1.0
C      1  0.5718640000000  0.5041980000000  0.4837380000000 1.0
C      1  0.5320430000000  0.5038090000000  0.4325590000000 1.0
C      1  0.4689920000000  0.5037620000000  0.4334230000000 1.0
C      1  0.4283660000000  0.5044610000000  0.4837850000000 1.0
C      1  0.4434270000000  0.5028600000000  0.5458950000000 1.0
C      1  0.4992120000000  0.5043230000000  0.5731430000000 1.0
C      1  0.5570970000000  0.5043000000000  0.5451280000000 1.0
C      1  0.4621720000000  0.4406640000000  0.4341800000000 1.0
C      1  0.4391950000000  0.4408240000000  0.4878160000000 1.0
C      1  0.4430550000000  0.4421540000000  0.5485810000000 1.0
C      1  0.5033580000000  0.4422170000000  0.5741620000000 1.0
C      1  0.5483020000000  0.4410300000000  0.5399200000000 1.0
C      1  0.5703710000000  0.4400960000000  0.4816290000000 1.0
C      1  0.5292490000000  0.4420960000000  0.4314220000000 1.0
C      1  0.5155710000000  0.5079840000000  0.3954140000000 1.0
C      1  0.4290240000000  0.5078810000000  0.4230350000000 1.0
C      1  0.3954190000000  0.5084550000000  0.5077930000000 1.0
C      1  0.4413420000000  0.5080360000000  0.5866940000000 1.0
C      1  0.5311690000000  0.5083360000000  0.6001030000000 1.0
C      1  0.5973520000000  0.5082020000000  0.5382570000000 1.0
C      1  0.5907280000000  0.5089990000000  0.4474550000000 1.0
C      1  0.5703960000000  0.5251080000000  0.4328550000000 1.0
C      1  0.4916170000000  0.5237160000000  0.4027940000000 1.0
C      1  0.4180320000000  0.5231820000000  0.4458990000000 1.0
C      1  0.4077270000000  0.5239880000000  0.5297970000000 1.0
C      1  0.4656680000000  0.5247720000000  0.5907040000000 1.0
C      1  0.5497340000000  0.5241490000000  0.5831320000000 1.0
C      1  0.5963090000000  0.5242910000000  0.5135060000000 1.0
C      1  0.5768380000000  0.5515240000000  0.4717290000000 1.0
C      1  0.5258260000000  0.5504940000000  0.4213760000000 1.0
C      1  0.4558190000000  0.5505140000000  0.4327670000000 1.0
C      1  0.4176880000000  0.5516450000000  0.4919130000000 1.0
C      1  0.4426400000000  0.5509460000000  0.5590260000000 1.0
C      1  0.5108630000000  0.5510920000000  0.5817580000000 1.0
C      1  0.5708350000000  0.5515490000000  0.5429600000000 1.0
C      1  0.4773090000000  0.4408780000000  0.5742600000000 1.0
C      1  0.5442990000000  0.4381040000000  0.5683010000000 1.0
C      1  0.5771670000000  0.4374030000000  0.5082340000000 1.0
C      1  0.5549040000000  0.4395240000000  0.4418200000000 1.0
C      1  0.4867590000000  0.4410820000000  0.4217920000000 1.0
C      1  0.4307160000000  0.4380850000000  0.4602260000000 1.0
C      1  0.4272510000000  0.4392000000000  0.5265350000000 1.0
C      1  0.4058390000000  0.5242520000000  0.4854110000000 1.0
C      1  0.4305200000000  0.5230520000000  0.5637790000000 1.0
C      1  0.5067440000000  0.5238480000000  0.5943950000000 1.0
C      1  0.5783510000000  0.5244060000000  0.5537490000000 1.0
C      1  0.5906130000000  0.5242170000000  0.4726240000000 1.0
C      1  0.5353900000000  0.5238750000000  0.4106920000000 1.0
C      1  0.4534450000000  0.5234290000000  0.4177950000000 1.0
C      1  0.5843390000000  0.5514250000000  0.5161270000000 1.0
C      1  0.5647900000000  0.5523110000000  0.4442670000000 1.0
C      1  0.4968650000000  0.5511170000000  0.4138990000000 1.0
C      1  0.4298460000000  0.5504030000000  0.4499080000000 1.0
C      1  0.4175450000000  0.5511780000000  0.5221700000000 1.0
C      1  0.4659290000000  0.5517650000000  0.5779290000000 1.0
C      1  0.5401090000000  0.5514690000000  0.5757660000000 1.0
C      1  0.4851270000000  0.4784840000000  0.4679160000000 1.0
C      1  0.4658710000000  0.4796600000000  0.4947630000000 1.0
C      1  0.4773200000000  0.4748480000000  0.5257440000000 1.0
C      1  0.5035660000000  0.4866270000000  0.5351090000000 1.0
C      1  0.5261050000000  0.4777320000000  0.5218110000000 1.0
C      1  0.5343830000000  0.4824960000000  0.4947950000000 1.0
C      1  0.5190490000000  0.4822630000000  0.4701230000000 1.0
C      1  0.5107350000000  0.4092300000000  0.5370040000000 1.0
C      1  0.5312610000000  0.4106090000000  0.5148020000000 1.0
C      1  0.5269270000000  0.4118760000000  0.4741280000000 1.0
C      1  0.5020150000000  0.4070870000000  0.4588140000000 1.0
C      1  0.4752150000000  0.4099460000000  0.4701340000000 1.0
C      1  0.4659310000000  0.4098750000000  0.5091670000000 1.0
C      1  0.4812990000000  0.4091230000000  0.5351890000000 1.0
C      1  0.4716080000000  0.5388960000000  0.5513560000000 1.0
C      1  0.5232540000000  0.5393140000000  0.5539140000000 1.0
C      1  0.5568310000000  0.5398360000000  0.5150360000000 1.0
C      1  0.5480230000000  0.5390470000000  0.4654490000000 1.0
C      1  0.5015890000000  0.5389320000000  0.4407800000000 1.0
C      1  0.4539370000000  0.5380090000000  0.4599660000000 1.0
C      1  0.4420410000000  0.5387770000000  0.5106120000000 1.0
C      1  0.5006480000000  0.5135940000000  0.5310330000000 1.0
C      1  0.5199400000000  0.5193070000000  0.5155100000000 1.0
C      1  0.5320720000000  0.5130220000000  0.4938950000000 1.0
C      1  0.5127230000000  0.5104070000000  0.4724680000000 1.0
C      1  0.4858760000000  0.5073000000000  0.4722040000000 1.0
C      1  0.4694450000000  0.5110550000000  0.4934010000000 1.0
C      1  0.4756330000000  0.5095710000000  0.5195270000000 1.0
C      1  0.5680970000000  0.5137200000000  0.5098910000000 1.0
C      1  0.5505310000000  0.5132700000000  0.4518760000000 1.0
C      1  0.4952690000000  0.5128660000000  0.4309270000000 1.0
C      1  0.4422270000000  0.5125330000000  0.4607530000000 1.0
C      1  0.4346430000000  0.5131180000000  0.5212120000000 1.0
C      1  0.4742500000000  0.5133300000000  0.5640260000000 1.0
C      1  0.5344660000000  0.5132890000000  0.5594140000000 1.0
END
