TITL C-2441163-1170-854 0.20563801387351 125000 -23684.8571748661 0 0 195 (C1) n - 1
REM
REM in /home/bkarasulu/work/CARBON/AIRSS/Generating-Clusters/ReaxFF-fromJPCA2015/Units_Real/with-SteepDescent/Higher-Symm
REM
REM
REM
REM
REM
REM ./C.cell (1df0a924f5614ab8850e4351716899ee)
REM
REM compiler GCC version 9.2.1 20190827 (Red Hat 9.2.1-1)
REM options -cpp -mtune=generic -march=x86-64 -g -O0 -fpre-include=/usr/include/finclude/math-vector-fortran.h
REM seed -794473138 -89635489 1171051651 -201043202 318723054 725870574 1023677715 1404450603 -927156930 -1523562583 -325862666 455169071 1077897843 885519644 149158291 761518173 214401247 -1907634981 1883725431 153598457 -1309201450 1021990711 -1398267301 -80002428 520559338 -723613033 982334774 -488395333 1898952224 -237713025 -1606045782 -997632352 -125196506
REM
CELL 1.54180   50.00000   50.00000   50.00000   90.00000   90.00000   90.00000
LATT -1
SFAC C  
C      1  0.5148220000000  0.4857120000000  0.6043490000000 1.0
C      1  0.4262260000000  0.4859360000000  0.5739220000000 1.0
C      1  0.3975030000000  0.4872070000000  0.4831160000000 1.0
C      1  0.4510800000000  0.4746310000000  0.4116070000000 1.0
C      1  0.5344670000000  0.4715880000000  0.4107160000000 1.0
C      1  0.6006420000000  0.4865070000000  0.4676720000000 1.0
C      1  0.5838520000000  0.4697260000000  0.5644440000000 1.0
C      1  0.4796530000000  0.5405070000000  0.4022520000000 1.0
C      1  0.5628270000000  0.5463590000000  0.4199730000000 1.0
C      1  0.5988640000000  0.5369200000000  0.4961370000000 1.0
C      1  0.5543040000000  0.5453890000000  0.5772350000000 1.0
C      1  0.4749790000000  0.5419190000000  0.5938470000000 1.0
C      1  0.4077350000000  0.5404750000000  0.5371020000000 1.0
C      1  0.4118820000000  0.5378850000000  0.4558580000000 1.0
C      1  0.4001920000000  0.4507990000000  0.5186360000000 1.0
C      1  0.4174230000000  0.4419030000000  0.4352410000000 1.0
C      1  0.4954510000000  0.4438180000000  0.4008690000000 1.0
C      1  0.5792680000000  0.4486340000000  0.4350290000000 1.0
C      1  0.5970730000000  0.4398010000000  0.5203320000000 1.0
C      1  0.5450620000000  0.4489280000000  0.5884210000000 1.0
C      1  0.4539950000000  0.4465850000000  0.5925800000000 1.0
C      1  0.5140000000000  0.5039000000000  0.4040270000000 1.0
C      1  0.5931010000000  0.5013800000000  0.4433290000000 1.0
C      1  0.5971480000000  0.5068290000000  0.5414520000000 1.0
C      1  0.5378170000000  0.5043840000000  0.6015850000000 1.0
C      1  0.4464260000000  0.5044700000000  0.5873640000000 1.0
C      1  0.3935820000000  0.5015320000000  0.5078460000000 1.0
C      1  0.4356180000000  0.4993870000000  0.4187610000000 1.0
C      1  0.5018230000000  0.6178500000000  0.5343460000000 1.0
C      1  0.4742440000000  0.6087550000000  0.5299460000000 1.0
C      1  0.4634380000000  0.6119650000000  0.5023130000000 1.0
C      1  0.4840200000000  0.6117170000000  0.4813800000000 1.0
C      1  0.5109870000000  0.6138630000000  0.4691620000000 1.0
C      1  0.5314890000000  0.6103990000000  0.4898740000000 1.0
C      1  0.5272560000000  0.6130850000000  0.5194180000000 1.0
C      1  0.4956890000000  0.5157760000000  0.5338880000000 1.0
C      1  0.4754180000000  0.5127880000000  0.5158810000000 1.0
C      1  0.4733510000000  0.5130790000000  0.4885050000000 1.0
C      1  0.4920660000000  0.5175360000000  0.4665740000000 1.0
C      1  0.5196840000000  0.5158960000000  0.4712340000000 1.0
C      1  0.5251140000000  0.5066410000000  0.4982760000000 1.0
C      1  0.5212480000000  0.5136510000000  0.5257030000000 1.0
C      1  0.4781170000000  0.4678590000000  0.4017870000000 1.0
C      1  0.5569700000000  0.4676770000000  0.4279420000000 1.0
C      1  0.5920890000000  0.4658190000000  0.5079660000000 1.0
C      1  0.5632910000000  0.4689520000000  0.5839930000000 1.0
C      1  0.4756610000000  0.4651650000000  0.5869790000000 1.0
C      1  0.4151490000000  0.4664020000000  0.5360820000000 1.0
C      1  0.4192090000000  0.4646040000000  0.4519360000000 1.0
C      1  0.5688030000000  0.5766180000000  0.4912380000000 1.0
C      1  0.5516680000000  0.5794700000000  0.5446320000000 1.0
C      1  0.4951880000000  0.5809100000000  0.5676310000000 1.0
C      1  0.4417070000000  0.5775620000000  0.5380180000000 1.0
C      1  0.4344560000000  0.5773560000000  0.4795850000000 1.0
C      1  0.4738840000000  0.5809000000000  0.4334920000000 1.0
C      1  0.5330670000000  0.5799910000000  0.4395520000000 1.0
C      1  0.5772440000000  0.5201570000000  0.5238470000000 1.0
C      1  0.5318710000000  0.5214940000000  0.5771580000000 1.0
C      1  0.4605260000000  0.5267310000000  0.5738610000000 1.0
C      1  0.4175710000000  0.5197320000000  0.5118310000000 1.0
C      1  0.4412220000000  0.5192850000000  0.4421000000000 1.0
C      1  0.5030360000000  0.5247960000000  0.4214440000000 1.0
C      1  0.5710770000000  0.5168260000000  0.4555790000000 1.0
C      1  0.4851370000000  0.4541300000000  0.5620590000000 1.0
C      1  0.4430070000000  0.4589340000000  0.5272190000000 1.0
C      1  0.4387630000000  0.4557570000000  0.4696430000000 1.0
C      1  0.4947980000000  0.4470980000000  0.4496630000000 1.0
C      1  0.5392470000000  0.4530680000000  0.4509340000000 1.0
C      1  0.5659950000000  0.4564610000000  0.4995260000000 1.0
C      1  0.5364110000000  0.4494750000000  0.5470960000000 1.0
C      1  0.5839410000000  0.5602610000000  0.5100790000000 1.0
C      1  0.5421260000000  0.5706690000000  0.5722940000000 1.0
C      1  0.4709990000000  0.5703320000000  0.5825590000000 1.0
C      1  0.4176540000000  0.5652970000000  0.5250280000000 1.0
C      1  0.4306360000000  0.5619120000000  0.4539450000000 1.0
C      1  0.4908690000000  0.5683150000000  0.4139820000000 1.0
C      1  0.5591960000000  0.5679170000000  0.4410230000000 1.0
C      1  0.5159590000000  0.5717290000000  0.5853470000000 1.0
C      1  0.4539800000000  0.5766300000000  0.5624200000000 1.0
C      1  0.4122930000000  0.5723680000000  0.4973150000000 1.0
C      1  0.4455530000000  0.5721100000000  0.4304630000000 1.0
C      1  0.5188160000000  0.5740210000000  0.4148590000000 1.0
C      1  0.5777130000000  0.5736880000000  0.4630870000000 1.0
C      1  0.5783470000000  0.5696600000000  0.5374270000000 1.0
C      1  0.5718610000000  0.4245060000000  0.5490220000000 1.0
C      1  0.5086420000000  0.4285430000000  0.5860170000000 1.0
C      1  0.4338410000000  0.4298850000000  0.5609170000000 1.0
C      1  0.4116680000000  0.4270710000000  0.4912950000000 1.0
C      1  0.4533070000000  0.4244990000000  0.4269140000000 1.0
C      1  0.5281670000000  0.4243020000000  0.4167800000000 1.0
C      1  0.5862830000000  0.4303160000000  0.4709810000000 1.0
C      1  0.4357040000000  0.4277190000000  0.4732870000000 1.0
C      1  0.4807870000000  0.4262630000000  0.4355310000000 1.0
C      1  0.5383790000000  0.4236610000000  0.4451960000000 1.0
C      1  0.5756220000000  0.4277310000000  0.5009290000000 1.0
C      1  0.5471220000000  0.4301860000000  0.5656680000000 1.0
C      1  0.4838510000000  0.4270800000000  0.5698020000000 1.0
C      1  0.4378800000000  0.4303870000000  0.5323890000000 1.0
C      1  0.5022280000000  0.4369390000000  0.4750310000000 1.0
C      1  0.5266040000000  0.4263080000000  0.4857380000000 1.0
C      1  0.5288250000000  0.4267010000000  0.5129410000000 1.0
C      1  0.5077690000000  0.4270770000000  0.5300660000000 1.0
C      1  0.4804400000000  0.4234220000000  0.5246970000000 1.0
C      1  0.4638130000000  0.4253180000000  0.5002820000000 1.0
C      1  0.4792970000000  0.4227470000000  0.4781750000000 1.0
C      1  0.5256170000000  0.4686500000000  0.4707480000000 1.0
C      1  0.5390990000000  0.4666930000000  0.4976950000000 1.0
C      1  0.5269440000000  0.4665260000000  0.5306830000000 1.0
C      1  0.4980340000000  0.4678280000000  0.5399270000000 1.0
C      1  0.4645450000000  0.4644600000000  0.5085770000000 1.0
C      1  0.4626560000000  0.4684940000000  0.4808450000000 1.0
C      1  0.4878600000000  0.4711810000000  0.4614730000000 1.0
C      1  0.5308690000000  0.4938320000000  0.4561680000000 1.0
C      1  0.5524460000000  0.4938810000000  0.4965550000000 1.0
C      1  0.5372020000000  0.4927610000000  0.5400780000000 1.0
C      1  0.4925910000000  0.4939130000000  0.5541340000000 1.0
C      1  0.4503860000000  0.5004540000000  0.5330480000000 1.0
C      1  0.4523090000000  0.4954150000000  0.4825380000000 1.0
C      1  0.4814210000000  0.4952170000000  0.4465870000000 1.0
C      1  0.5298440000000  0.5829330000000  0.5250530000000 1.0
C      1  0.4998020000000  0.5710070000000  0.5396700000000 1.0
C      1  0.4695010000000  0.5794870000000  0.5241780000000 1.0
C      1  0.4578530000000  0.5840930000000  0.4964490000000 1.0
C      1  0.4879840000000  0.5731270000000  0.4583240000000 1.0
C      1  0.5149700000000  0.5847580000000  0.4620690000000 1.0
C      1  0.5399060000000  0.5826720000000  0.4939690000000 1.0
C      1  0.5234670000000  0.4482550000000  0.4024110000000 1.0
C      1  0.5924600000000  0.4572160000000  0.4601920000000 1.0
C      1  0.5880410000000  0.4470830000000  0.5470830000000 1.0
C      1  0.5193420000000  0.4541100000000  0.5966380000000 1.0
C      1  0.4322370000000  0.4554650000000  0.5755080000000 1.0
C      1  0.3988510000000  0.4555620000000  0.4921540000000 1.0
C      1  0.4395400000000  0.4485940000000  0.4181970000000 1.0
C      1  0.5601520000000  0.4933190000000  0.4670030000000 1.0
C      1  0.5623200000000  0.4959260000000  0.5240090000000 1.0
C      1  0.5216500000000  0.4957010000000  0.5651130000000 1.0
C      1  0.4631400000000  0.4883900000000  0.5562700000000 1.0
C      1  0.4344980000000  0.4948950000000  0.5085000000000 1.0
C      1  0.4539810000000  0.4992720000000  0.4548950000000 1.0
C      1  0.5178760000000  0.4873940000000  0.4284930000000 1.0
C      1  0.5601100000000  0.5184430000000  0.4176100000000 1.0
C      1  0.6021970000000  0.5055890000000  0.4915160000000 1.0
C      1  0.5852040000000  0.4981850000000  0.5669390000000 1.0
C      1  0.4958040000000  0.5074260000000  0.6017630000000 1.0
C      1  0.4128670000000  0.5053780000000  0.5573450000000 1.0
C      1  0.4054510000000  0.5050110000000  0.4611150000000 1.0
C      1  0.4666630000000  0.5129070000000  0.4018740000000 1.0
C      1  0.4285200000000  0.4122240000000  0.5117310000000 1.0
C      1  0.4316500000000  0.4188640000000  0.4456230000000 1.0
C      1  0.4997470000000  0.4181800000000  0.4152720000000 1.0
C      1  0.5702760000000  0.4237130000000  0.4474810000000 1.0
C      1  0.5675720000000  0.4110070000000  0.5243340000000 1.0
C      1  0.5241790000000  0.4113370000000  0.5684440000000 1.0
C      1  0.4566710000000  0.4219370000000  0.5776710000000 1.0
C      1  0.5286720000000  0.5428190000000  0.4992960000000 1.0
C      1  0.5341300000000  0.5400250000000  0.5276350000000 1.0
C      1  0.4985840000000  0.5428080000000  0.5475450000000 1.0
C      1  0.4625850000000  0.5385590000000  0.5187380000000 1.0
C      1  0.4569420000000  0.5396020000000  0.4891920000000 1.0
C      1  0.4821520000000  0.5449030000000  0.4567060000000 1.0
C      1  0.5356950000000  0.5408350000000  0.4695940000000 1.0
C      1  0.4142810000000  0.4900690000000  0.4387730000000 1.0
C      1  0.4866130000000  0.4945180000000  0.3935280000000 1.0
C      1  0.5719460000000  0.4948600000000  0.4227610000000 1.0
C      1  0.6044280000000  0.4917160000000  0.5159970000000 1.0
C      1  0.5630070000000  0.4962860000000  0.5878110000000 1.0
C      1  0.4721680000000  0.4931660000000  0.5974910000000 1.0
C      1  0.4009080000000  0.4920220000000  0.5357690000000 1.0
C      1  0.5648060000000  0.5368780000000  0.4704950000000 1.0
C      1  0.5594170000000  0.5344750000000  0.5393660000000 1.0
C      1  0.5078740000000  0.5346220000000  0.5728400000000 1.0
C      1  0.4523450000000  0.5333200000000  0.5460270000000 1.0
C      1  0.4285120000000  0.5362250000000  0.4921670000000 1.0
C      1  0.4620510000000  0.5369360000000  0.4378130000000 1.0
C      1  0.5225170000000  0.5389010000000  0.4372080000000 1.0
C      1  0.4048860000000  0.5481900000000  0.4824270000000 1.0
C      1  0.4532970000000  0.5494060000000  0.4135810000000 1.0
C      1  0.5346790000000  0.5493610000000  0.4119210000000 1.0
C      1  0.5899720000000  0.5485260000000  0.4709680000000 1.0
C      1  0.5759060000000  0.5487350000000  0.5585310000000 1.0
C      1  0.5035240000000  0.5466370000000  0.5980780000000 1.0
C      1  0.4220750000000  0.5411650000000  0.5629590000000 1.0
C      1  0.4829300000000  0.3949640000000  0.5177120000000 1.0
C      1  0.4537740000000  0.3980060000000  0.5064510000000 1.0
C      1  0.4889930000000  0.3977330000000  0.4672730000000 1.0
C      1  0.5166670000000  0.3993720000000  0.4572860000000 1.0
C      1  0.5267810000000  0.3963590000000  0.4842710000000 1.0
C      1  0.5399100000000  0.4014220000000  0.5230050000000 1.0
C      1  0.5159450000000  0.4013590000000  0.5420240000000 1.0
C      1  0.4987850000000  0.3877980000000  0.4935760000000 1.0
C      1  0.4965230000000  0.5911890000000  0.4978630000000 1.0
C      1  0.4992940000000  0.5387920000000  0.4991230000000 1.0
C      1  0.4976370000000  0.5673460000000  0.4983370000000 1.0
C      1  0.5011700000000  0.4881840000000  0.4958580000000 1.0
C      1  0.4904230000000  0.4677920000000  0.5119930000000 1.0
END
