TITL C-2441161-5029-188 -8.69972336427278e-05 125000 -2529.30324337413 0 0 18 (C3) n - 1
REM
REM in /home/bkarasulu/work/CARBON/AIRSS/Generating-Clusters/ReaxFF-fromJPCA2015/Units_Real/with-SteepDescent/Higher-Symm
REM
REM
REM
REM
REM
REM ./C.cell (1df0a924f5614ab8850e4351716899ee)
REM
REM compiler GCC version 9.2.1 20190827 (Red Hat 9.2.1-1)
REM options -cpp -mtune=generic -march=x86-64 -g -O0 -fpre-include=/usr/include/finclude/math-vector-fortran.h
REM seed 1509744338 -133618849 -1338697294 -525697270 1541451279 1858226626 -1002143995 100975343 1258203773 1460214843 1337380259 1155977224 -80658642 2088511172 287352070 1609910565 -69036800 1132886488 1932605055 -1234816727 -1293982451 -389216963 -1428302213 -590013954 -1664610816 1511039004 -1734326421 -31270471 -2053243066 1386741759 -1365193126 2145298270 -1078923103
REM
CELL 1.54180   50.00000   50.00000   50.00000   90.00000   90.00000   90.00000
LATT -1
SFAC C  
C      1  0.5370840000000  0.5276500000000  0.4792570000000 1.0
C      1  0.4634940000000  0.5276500000000  0.4782560000000 1.0
C      1  0.4994220000000  0.5276510000000  0.5424880000000 1.0
C      1  0.5383720000000  0.4711600000000  0.4823080000000 1.0
C      1  0.4654930000000  0.4711600000000  0.4756150000000 1.0
C      1  0.4961350000000  0.4711610000000  0.5420770000000 1.0
C      1  0.4708390000000  0.4864760000000  0.5286780000000 1.0
C      1  0.5394160000000  0.4864750000000  0.5109150000000 1.0
C      1  0.4897450000000  0.4864750000000  0.4604070000000 1.0
C      1  0.4724930000000  0.5152100000000  0.5317700000000 1.0
C      1  0.5412670000000  0.5152100000000  0.5079360000000 1.0
C      1  0.4862390000000  0.5152090000000  0.4602940000000 1.0
C      1  0.4670560000000  0.4780470000000  0.5027270000000 1.0
C      1  0.5188330000000  0.4780470000000  0.5271660000000 1.0
C      1  0.5141110000000  0.4780460000000  0.4701060000000 1.0
C      1  0.4653660000000  0.5214580000000  0.5059780000000 1.0
C      1  0.5224960000000  0.5214580000000  0.5270050000000 1.0
C      1  0.5121390000000  0.5214580000000  0.4670170000000 1.0
END
