TITL C-2441166-8118-1132 0.0415370025051721 125000 -18483.5168218632 0 0 135 (C1) n - 1
REM
REM in /home/bkarasulu/work/CARBON/AIRSS/Generating-Clusters/ReaxFF-fromJPCA2015/Units_Real/with-SteepDescent/Higher-Symm
REM
REM
REM
REM
REM
REM ./C.cell (1df0a924f5614ab8850e4351716899ee)
REM
REM compiler GCC version 9.2.1 20190827 (Red Hat 9.2.1-1)
REM options -cpp -mtune=generic -march=x86-64 -g -O0 -fpre-include=/usr/include/finclude/math-vector-fortran.h
REM seed 2134487918 451947797 536835885 -404358196 -1995187065 2119654591 293224312 198357452 1683687345 -635504093 -1435739568 -1331344574 1583113569 850859589 266496785 -1592316675 -381461688 -1227994618 -1755281813 951006490 1046852035 -1543948107 805629848 373484258 1455206545 1337205763 454667983 1771828912 696704879 420322258 708345810 -1039864668 849363383
REM
CELL 1.54180   50.00000   50.00000   50.00000   90.00000   90.00000   90.00000
LATT -1
SFAC C  
C      1  0.5998100000000  0.4687070000000  0.4828120000000 1.0
C      1  0.5932180000000  0.4662460000000  0.5394920000000 1.0
C      1  0.5568780000000  0.4677510000000  0.5834140000000 1.0
C      1  0.5021260000000  0.4674250000000  0.5949780000000 1.0
C      1  0.4470700000000  0.4641910000000  0.5879660000000 1.0
C      1  0.4122200000000  0.4670800000000  0.5433150000000 1.0
C      1  0.4001830000000  0.4715090000000  0.4890640000000 1.0
C      1  0.4199690000000  0.4653470000000  0.4353520000000 1.0
C      1  0.4683340000000  0.4684910000000  0.4044370000000 1.0
C      1  0.5254070000000  0.4688110000000  0.4014950000000 1.0
C      1  0.5738890000000  0.4674900000000  0.4317030000000 1.0
C      1  0.4482590000000  0.4601180000000  0.4913740000000 1.0
C      1  0.4605920000000  0.4530470000000  0.4640730000000 1.0
C      1  0.4866020000000  0.4545730000000  0.4486410000000 1.0
C      1  0.5172260000000  0.4517500000000  0.4489000000000 1.0
C      1  0.5412770000000  0.4551000000000  0.4672430000000 1.0
C      1  0.5529130000000  0.4517550000000  0.4957010000000 1.0
C      1  0.5470870000000  0.4478150000000  0.5251250000000 1.0
C      1  0.5237210000000  0.4533100000000  0.5454310000000 1.0
C      1  0.4963840000000  0.4625300000000  0.5450630000000 1.0
C      1  0.4733690000000  0.4485120000000  0.5349870000000 1.0
C      1  0.4555960000000  0.4640390000000  0.5181930000000 1.0
C      1  0.5351430000000  0.5563250000000  0.5842600000000 1.0
C      1  0.4838760000000  0.5588800000000  0.5891800000000 1.0
C      1  0.4377160000000  0.5587000000000  0.5682440000000 1.0
C      1  0.4121860000000  0.5575890000000  0.5226130000000 1.0
C      1  0.4121880000000  0.5598550000000  0.4695010000000 1.0
C      1  0.4417510000000  0.5598150000000  0.4270210000000 1.0
C      1  0.4907100000000  0.5589110000000  0.4094110000000 1.0
C      1  0.5407910000000  0.5572060000000  0.4180900000000 1.0
C      1  0.5779990000000  0.5590400000000  0.4542550000000 1.0
C      1  0.5906130000000  0.5559480000000  0.5035120000000 1.0
C      1  0.5726360000000  0.5568380000000  0.5510090000000 1.0
C      1  0.5300920000000  0.4615340000000  0.5937910000000 1.0
C      1  0.4747100000000  0.4597770000000  0.5928550000000 1.0
C      1  0.4252650000000  0.4596220000000  0.5679100000000 1.0
C      1  0.4040110000000  0.4636380000000  0.5163150000000 1.0
C      1  0.4081780000000  0.4652090000000  0.4613050000000 1.0
C      1  0.4429790000000  0.4615790000000  0.4158960000000 1.0
C      1  0.4970600000000  0.4649230000000  0.3996130000000 1.0
C      1  0.5512820000000  0.4625190000000  0.4146560000000 1.0
C      1  0.5908370000000  0.4644380000000  0.4559070000000 1.0
C      1  0.5989430000000  0.4627370000000  0.5116670000000 1.0
C      1  0.5780210000000  0.4625650000000  0.5649000000000 1.0
C      1  0.4837110000000  0.4090010000000  0.5701980000000 1.0
C      1  0.4661070000000  0.4285170000000  0.5560890000000 1.0
C      1  0.4387780000000  0.4105480000000  0.5114460000000 1.0
C      1  0.4346280000000  0.4322870000000  0.4932240000000 1.0
C      1  0.4474720000000  0.4263740000000  0.4687860000000 1.0
C      1  0.4845270000000  0.4260990000000  0.4366630000000 1.0
C      1  0.5131730000000  0.4245440000000  0.4358090000000 1.0
C      1  0.5527870000000  0.4277420000000  0.4617690000000 1.0
C      1  0.5651490000000  0.4249030000000  0.4876940000000 1.0
C      1  0.5591820000000  0.4199330000000  0.5276590000000 1.0
C      1  0.5271000000000  0.4224230000000  0.5545720000000 1.0
C      1  0.5151650000000  0.5713960000000  0.4218660000000 1.0
C      1  0.5531540000000  0.5703460000000  0.4418500000000 1.0
C      1  0.5769480000000  0.5709740000000  0.4817190000000 1.0
C      1  0.5755170000000  0.5706440000000  0.5246360000000 1.0
C      1  0.5491780000000  0.5710400000000  0.5627550000000 1.0
C      1  0.5095350000000  0.5703380000000  0.5786720000000 1.0
C      1  0.4644140000000  0.5723240000000  0.5707620000000 1.0
C      1  0.4326320000000  0.5703290000000  0.5407050000000 1.0
C      1  0.4209430000000  0.5699230000000  0.4965530000000 1.0
C      1  0.4344990000000  0.5723720000000  0.4531060000000 1.0
C      1  0.4691860000000  0.5718550000000  0.4258580000000 1.0
C      1  0.4528450000000  0.5261710000000  0.4874540000000 1.0
C      1  0.4774220000000  0.5368680000000  0.4794030000000 1.0
C      1  0.4910890000000  0.5313830000000  0.4537930000000 1.0
C      1  0.5155950000000  0.5303060000000  0.4626360000000 1.0
C      1  0.5405340000000  0.5292300000000  0.4717130000000 1.0
C      1  0.5375680000000  0.5347640000000  0.4984650000000 1.0
C      1  0.5400690000000  0.5373330000000  0.5250650000000 1.0
C      1  0.5165130000000  0.5338910000000  0.5364300000000 1.0
C      1  0.4929640000000  0.5303420000000  0.5479820000000 1.0
C      1  0.4773400000000  0.5351190000000  0.5241100000000 1.0
C      1  0.4524840000000  0.5256140000000  0.5147520000000 1.0
C      1  0.5127900000000  0.3987980000000  0.4505150000000 1.0
C      1  0.5376080000000  0.4029130000000  0.4653380000000 1.0
C      1  0.5528130000000  0.3979770000000  0.4905790000000 1.0
C      1  0.5487490000000  0.3944010000000  0.5187440000000 1.0
C      1  0.5461690000000  0.4042770000000  0.5461880000000 1.0
C      1  0.5101510000000  0.4081210000000  0.5634870000000 1.0
C      1  0.4634880000000  0.4017810000000  0.5515560000000 1.0
C      1  0.4649670000000  0.4026950000000  0.5236590000000 1.0
C      1  0.4554600000000  0.3905020000000  0.4987610000000 1.0
C      1  0.4605510000000  0.4004660000000  0.4716270000000 1.0
C      1  0.4828520000000  0.4013920000000  0.4526840000000 1.0
C      1  0.4474560000000  0.5812530000000  0.4975370000000 1.0
C      1  0.4566350000000  0.5822950000000  0.4692630000000 1.0
C      1  0.4799350000000  0.5822240000000  0.4509980000000 1.0
C      1  0.5095020000000  0.5822120000000  0.4485360000000 1.0
C      1  0.5355100000000  0.5818950000000  0.4622080000000 1.0
C      1  0.5507180000000  0.5827280000000  0.4876100000000 1.0
C      1  0.5500840000000  0.5832030000000  0.5170210000000 1.0
C      1  0.5330820000000  0.5832430000000  0.5413410000000 1.0
C      1  0.5058270000000  0.5823090000000  0.5520440000000 1.0
C      1  0.4767200000000  0.5830350000000  0.5465520000000 1.0
C      1  0.4551420000000  0.5816160000000  0.5262960000000 1.0
C      1  0.4425550000000  0.5318760000000  0.4294710000000 1.0
C      1  0.4877690000000  0.5309630000000  0.4130280000000 1.0
C      1  0.5398640000000  0.5292830000000  0.4210980000000 1.0
C      1  0.5848160000000  0.5304590000000  0.4504410000000 1.0
C      1  0.5842530000000  0.5286700000000  0.5036640000000 1.0
C      1  0.5696160000000  0.5283220000000  0.5494670000000 1.0
C      1  0.5327140000000  0.5284730000000  0.5809390000000 1.0
C      1  0.4817500000000  0.5299770000000  0.5949550000000 1.0
C      1  0.4402140000000  0.5313120000000  0.5673510000000 1.0
C      1  0.4062800000000  0.5293660000000  0.5258560000000 1.0
C      1  0.4136460000000  0.5319290000000  0.4680540000000 1.0
C      1  0.5619740000000  0.5048360000000  0.5363850000000 1.0
C      1  0.5220310000000  0.5058460000000  0.5756740000000 1.0
C      1  0.4917260000000  0.5108060000000  0.5736000000000 1.0
C      1  0.4416660000000  0.5078570000000  0.5570220000000 1.0
C      1  0.4315800000000  0.5111840000000  0.5286710000000 1.0
C      1  0.4328950000000  0.5110780000000  0.4693290000000 1.0
C      1  0.4501150000000  0.5073750000000  0.4388360000000 1.0
C      1  0.4816910000000  0.5093210000000  0.4296320000000 1.0
C      1  0.5433350000000  0.5063100000000  0.4316190000000 1.0
C      1  0.5627950000000  0.5101770000000  0.4548250000000 1.0
C      1  0.5730540000000  0.5054810000000  0.5090280000000 1.0
C      1  0.4864120000000  0.4759030000000  0.4237960000000 1.0
C      1  0.5302690000000  0.4762200000000  0.4272810000000 1.0
C      1  0.5651310000000  0.4757980000000  0.4563380000000 1.0
C      1  0.5772090000000  0.4746170000000  0.4975670000000 1.0
C      1  0.5663250000000  0.4717450000000  0.5412570000000 1.0
C      1  0.5344220000000  0.4759240000000  0.5696760000000 1.0
C      1  0.4879800000000  0.4758920000000  0.5718700000000 1.0
C      1  0.4435380000000  0.4802530000000  0.5672020000000 1.0
C      1  0.4306760000000  0.4776080000000  0.5246000000000 1.0
C      1  0.4249550000000  0.4794720000000  0.4799310000000 1.0
C      1  0.4453360000000  0.4727250000000  0.4407540000000 1.0
C      1  0.5064760000000  0.4793880000000  0.4982310000000 1.0
C      1  0.4944510000000  0.5299960000000  0.5014240000000 1.0
C      1  0.5013870000000  0.5027020000000  0.4997990000000 1.0
END
