TITL C-2441155-8282-47 0.00728628342201353 125000 -13655.6929113244 0 0 92 (C1) n - 1
REM
REM in /home/bkarasulu/work/CARBON/AIRSS/Generating-Clusters/ReaxFF-fromJPCA2015/Units_Real/with-SteepDescent/Higher-Symm
REM
REM
REM
REM
REM
REM ./C.cell (1df0a924f5614ab8850e4351716899ee)
REM
REM compiler GCC version 9.2.1 20190827 (Red Hat 9.2.1-1)
REM options -cpp -mtune=generic -march=x86-64 -g -O0 -fpre-include=/usr/include/finclude/math-vector-fortran.h
REM seed -1979774087 1904746049 1619575864 2071463891 -809243322 -2079079562 1355456298 -1570168531 825957457 1435078180 1262958603 -551113887 1411231150 475605271 -2098992350 956377724 344200996 1526337281 -306435187 -352183257 -883732621 -312909276 -248057290 -804329420 -768026051 -975792077 -41902581 1876082537 1941665494 -278458320 1676548380 1973371708 -682140814
REM
CELL 1.54180   50.00000   50.00000   50.00000   90.00000   90.00000   90.00000
LATT -1
SFAC C  
C      1  0.5258530000000  0.5704700000000  0.5161050000000 1.0
C      1  0.5015020000000  0.5729250000000  0.4714490000000 1.0
C      1  0.4735930000000  0.5714340000000  0.5142640000000 1.0
C      1  0.4502210000000  0.5300810000000  0.5271430000000 1.0
C      1  0.5490080000000  0.5285120000000  0.5160670000000 1.0
C      1  0.4984080000000  0.5327810000000  0.4499260000000 1.0
C      1  0.5855720000000  0.4893970000000  0.5315940000000 1.0
C      1  0.4859580000000  0.4965820000000  0.4219450000000 1.0
C      1  0.4393090000000  0.4939850000000  0.5556850000000 1.0
C      1  0.4611830000000  0.4824010000000  0.4899900000000 1.0
C      1  0.5117690000000  0.4945630000000  0.5344560000000 1.0
C      1  0.5232850000000  0.4836170000000  0.4596230000000 1.0
C      1  0.4183510000000  0.4894600000000  0.5351860000000 1.0
C      1  0.5768200000000  0.4814390000000  0.5593340000000 1.0
C      1  0.5080320000000  0.4856680000000  0.4059190000000 1.0
C      1  0.4769890000000  0.4965500000000  0.4704690000000 1.0
C      1  0.4823880000000  0.4904380000000  0.5306320000000 1.0
C      1  0.5245300000000  0.4855220000000  0.4891490000000 1.0
C      1  0.4524940000000  0.5286920000000  0.4395840000000 1.0
C      1  0.4719160000000  0.5272660000000  0.5731200000000 1.0
C      1  0.5636620000000  0.5352240000000  0.4891950000000 1.0
C      1  0.4172320000000  0.5178940000000  0.5289490000000 1.0
C      1  0.5655240000000  0.5059520000000  0.5655580000000 1.0
C      1  0.5219420000000  0.5101300000000  0.4071250000000 1.0
C      1  0.4346970000000  0.4756650000000  0.4406230000000 1.0
C      1  0.4834390000000  0.4773540000000  0.5907780000000 1.0
C      1  0.5779110000000  0.4836370000000  0.4824390000000 1.0
C      1  0.4789180000000  0.5240520000000  0.4291240000000 1.0
C      1  0.4488690000000  0.5220690000000  0.5571960000000 1.0
C      1  0.5758750000000  0.5166210000000  0.5247400000000 1.0
C      1  0.4333190000000  0.5066130000000  0.4440020000000 1.0
C      1  0.4862220000000  0.5073960000000  0.5903300000000 1.0
C      1  0.5752930000000  0.5127340000000  0.4749860000000 1.0
C      1  0.5195440000000  0.4902010000000  0.5622570000000 1.0
C      1  0.5508840000000  0.4879480000000  0.4468690000000 1.0
C      1  0.4305950000000  0.4841620000000  0.4864530000000 1.0
C      1  0.4360710000000  0.4379570000000  0.4816660000000 1.0
C      1  0.5116790000000  0.4405290000000  0.5596080000000 1.0
C      1  0.5539990000000  0.4408210000000  0.4647590000000 1.0
C      1  0.5175780000000  0.4599250000000  0.4166810000000 1.0
C      1  0.4185740000000  0.4713740000000  0.5122730000000 1.0
C      1  0.5654760000000  0.4543700000000  0.5636070000000 1.0
C      1  0.5327930000000  0.4383060000000  0.4858000000000 1.0
C      1  0.4638000000000  0.4348250000000  0.4858780000000 1.0
C      1  0.4983910000000  0.4347780000000  0.5339950000000 1.0
C      1  0.4492240000000  0.5556920000000  0.5095760000000 1.0
C      1  0.5375630000000  0.5517560000000  0.5354790000000 1.0
C      1  0.5147550000000  0.5575370000000  0.4495030000000 1.0
C      1  0.5808000000000  0.4712200000000  0.5084430000000 1.0
C      1  0.4883640000000  0.4828210000000  0.4481550000000 1.0
C      1  0.4618980000000  0.4775370000000  0.5482020000000 1.0
C      1  0.5150020000000  0.5098020000000  0.5841170000000 1.0
C      1  0.5663720000000  0.5126400000000  0.4473030000000 1.0
C      1  0.4192520000000  0.5082850000000  0.4688750000000 1.0
C      1  0.4087450000000  0.5272810000000  0.5043730000000 1.0
C      1  0.5527400000000  0.5292730000000  0.5671580000000 1.0
C      1  0.5370970000000  0.5291380000000  0.4161050000000 1.0
C      1  0.4888410000000  0.5492000000000  0.5609820000000 1.0
C      1  0.5558400000000  0.5593650000000  0.4735110000000 1.0
C      1  0.4517010000000  0.5533440000000  0.4574010000000 1.0
C      1  0.5576770000000  0.5368230000000  0.4320120000000 1.0
C      1  0.4126370000000  0.5356050000000  0.4783990000000 1.0
C      1  0.5293710000000  0.5356510000000  0.5813450000000 1.0
C      1  0.4365870000000  0.5532390000000  0.4834590000000 1.0
C      1  0.5200490000000  0.5519910000000  0.5589110000000 1.0
C      1  0.5437680000000  0.5566210000000  0.4460530000000 1.0
C      1  0.4800940000000  0.4554150000000  0.4422150000000 1.0
C      1  0.4522370000000  0.4497990000000  0.5482900000000 1.0
C      1  0.5723530000000  0.4438510000000  0.5135880000000 1.0
C      1  0.5057660000000  0.4665290000000  0.5738160000000 1.0
C      1  0.5665240000000  0.4678400000000  0.4610610000000 1.0
C      1  0.4280840000000  0.4613740000000  0.4649190000000 1.0
C      1  0.4730080000000  0.4580760000000  0.4995420000000 1.0
C      1  0.4976590000000  0.4565400000000  0.5140390000000 1.0
C      1  0.5206070000000  0.4600260000000  0.4989400000000 1.0
C      1  0.4808630000000  0.5620670000000  0.5387360000000 1.0
C      1  0.5387750000000  0.5726680000000  0.4915050000000 1.0
C      1  0.4759640000000  0.5670150000000  0.4611590000000 1.0
C      1  0.5409630000000  0.4388290000000  0.5583500000000 1.0
C      1  0.5245930000000  0.4563520000000  0.4447010000000 1.0
C      1  0.4255290000000  0.4446850000000  0.5086350000000 1.0
C      1  0.4709880000000  0.4365490000000  0.4594440000000 1.0
C      1  0.4732660000000  0.4317200000000  0.5449390000000 1.0
C      1  0.5593870000000  0.4295520000000  0.4917350000000 1.0
C      1  0.4379030000000  0.4396360000000  0.5302120000000 1.0
C      1  0.5648460000000  0.4360370000000  0.5410760000000 1.0
C      1  0.5016770000000  0.4420430000000  0.4336350000000 1.0
C      1  0.4753410000000  0.5161820000000  0.5186680000000 1.0
C      1  0.5224080000000  0.5070460000000  0.5095280000000 1.0
C      1  0.4900540000000  0.5205820000000  0.4746210000000 1.0
C      1  0.5001090000000  0.5615990000000  0.5005190000000 1.0
C      1  0.4968110000000  0.5275110000000  0.5016820000000 1.0
END
