TITL C-2441166-8118-1272 0.0197023945859501 125000 -17704.286670453 0 0 122 (C1) n - 1
REM
REM in /home/bkarasulu/work/CARBON/AIRSS/Generating-Clusters/ReaxFF-fromJPCA2015/Units_Real/with-SteepDescent/Higher-Symm
REM
REM
REM
REM
REM
REM ./C.cell (1df0a924f5614ab8850e4351716899ee)
REM
REM compiler GCC version 9.2.1 20190827 (Red Hat 9.2.1-1)
REM options -cpp -mtune=generic -march=x86-64 -g -O0 -fpre-include=/usr/include/finclude/math-vector-fortran.h
REM seed -1300551236 -1987198547 -1098020787 -1418362425 -453279886 1245857613 -1082926762 1291368197 -925249910 355642515 2024138484 -775572924 671009923 963986976 922037294 1771715680 754528393 -840641353 1254050922 180788849 -1291958117 -155424472 -1020796944 1340056322 852348295 -306661713 1868456858 1281877490 301887195 1066062981 1171034408 -1331102794 -537016999
REM
CELL 1.54180   50.00000   50.00000   50.00000   90.00000   90.00000   90.00000
LATT -1
SFAC C  
C      1  0.5158490000000  0.5427320000000  0.4684930000000 1.0
C      1  0.5144700000000  0.5533780000000  0.4938000000000 1.0
C      1  0.5037450000000  0.5383280000000  0.5157210000000 1.0
C      1  0.5185110000000  0.5293010000000  0.5362150000000 1.0
C      1  0.5098160000000  0.5044070000000  0.5505570000000 1.0
C      1  0.5080600000000  0.4811910000000  0.5328300000000 1.0
C      1  0.5249070000000  0.4661610000000  0.5183640000000 1.0
C      1  0.5158960000000  0.4502500000000  0.4952790000000 1.0
C      1  0.5130640000000  0.4644780000000  0.4648770000000 1.0
C      1  0.5201060000000  0.4921950000000  0.4626640000000 1.0
C      1  0.5059870000000  0.5155260000000  0.4629100000000 1.0
C      1  0.5925210000000  0.4575400000000  0.5286090000000 1.0
C      1  0.6057070000000  0.4543290000000  0.5043850000000 1.0
C      1  0.5963890000000  0.4527100000000  0.4779490000000 1.0
C      1  0.5915780000000  0.4766970000000  0.4576710000000 1.0
C      1  0.5966000000000  0.5033130000000  0.4593570000000 1.0
C      1  0.5958580000000  0.5310370000000  0.4633090000000 1.0
C      1  0.6021910000000  0.5438030000000  0.4878060000000 1.0
C      1  0.5880670000000  0.5483790000000  0.5114830000000 1.0
C      1  0.5909280000000  0.5331920000000  0.5389860000000 1.0
C      1  0.6028230000000  0.5085720000000  0.5439200000000 1.0
C      1  0.5910480000000  0.4833350000000  0.5468980000000 1.0
C      1  0.5288550000000  0.4015730000000  0.5049980000000 1.0
C      1  0.5293320000000  0.4187320000000  0.4545710000000 1.0
C      1  0.5283740000000  0.4545330000000  0.4151110000000 1.0
C      1  0.5315560000000  0.5091040000000  0.4052040000000 1.0
C      1  0.5314700000000  0.5570870000000  0.4235190000000 1.0
C      1  0.5301370000000  0.5900530000000  0.4648710000000 1.0
C      1  0.5330570000000  0.5903220000000  0.5230080000000 1.0
C      1  0.5304780000000  0.5680100000000  0.5679590000000 1.0
C      1  0.5278560000000  0.5187060000000  0.5944820000000 1.0
C      1  0.5302310000000  0.4663820000000  0.5832350000000 1.0
C      1  0.5309070000000  0.4236700000000  0.5575390000000 1.0
C      1  0.4248960000000  0.4558310000000  0.5261410000000 1.0
C      1  0.4242600000000  0.4505130000000  0.4970340000000 1.0
C      1  0.4238090000000  0.4604690000000  0.4692340000000 1.0
C      1  0.4225630000000  0.4830000000000  0.4499410000000 1.0
C      1  0.4200960000000  0.5124270000000  0.4465260000000 1.0
C      1  0.4211860000000  0.5381420000000  0.4634530000000 1.0
C      1  0.4203710000000  0.5423360000000  0.4909940000000 1.0
C      1  0.4229410000000  0.5496350000000  0.5184070000000 1.0
C      1  0.4225750000000  0.5338810000000  0.5435880000000 1.0
C      1  0.4214340000000  0.5070370000000  0.5555920000000 1.0
C      1  0.4243020000000  0.4763040000000  0.5484770000000 1.0
C      1  0.4641170000000  0.5241480000000  0.5374100000000 1.0
C      1  0.4794420000000  0.5036410000000  0.5493950000000 1.0
C      1  0.4812360000000  0.4793100000000  0.5340020000000 1.0
C      1  0.4682990000000  0.4619130000000  0.5154910000000 1.0
C      1  0.4861630000000  0.4529340000000  0.4949160000000 1.0
C      1  0.4843500000000  0.4621250000000  0.4682940000000 1.0
C      1  0.4673290000000  0.4825830000000  0.4598150000000 1.0
C      1  0.4775200000000  0.5089350000000  0.4671800000000 1.0
C      1  0.4626590000000  0.5352310000000  0.4668290000000 1.0
C      1  0.4625240000000  0.5465310000000  0.4897750000000 1.0
C      1  0.4751220000000  0.5285700000000  0.5106580000000 1.0
C      1  0.5049310000000  0.5939770000000  0.4550270000000 1.0
C      1  0.5104110000000  0.6002970000000  0.5117470000000 1.0
C      1  0.5048270000000  0.5756730000000  0.5607640000000 1.0
C      1  0.5062070000000  0.5355950000000  0.5960970000000 1.0
C      1  0.5072280000000  0.4755740000000  0.5950400000000 1.0
C      1  0.5048910000000  0.4283870000000  0.5656540000000 1.0
C      1  0.5071860000000  0.3993410000000  0.5217660000000 1.0
C      1  0.5065810000000  0.4059720000000  0.4643620000000 1.0
C      1  0.5046790000000  0.4400300000000  0.4186720000000 1.0
C      1  0.5066040000000  0.4978560000000  0.3982840000000 1.0
C      1  0.5052880000000  0.5504660000000  0.4181510000000 1.0
C      1  0.4407740000000  0.5046520000000  0.5754690000000 1.0
C      1  0.4434360000000  0.4639410000000  0.5638120000000 1.0
C      1  0.4509830000000  0.4424670000000  0.5283090000000 1.0
C      1  0.4398620000000  0.4260110000000  0.4877400000000 1.0
C      1  0.4391500000000  0.4358700000000  0.4601610000000 1.0
C      1  0.4491080000000  0.4754390000000  0.4392950000000 1.0
C      1  0.4399160000000  0.5141940000000  0.4267660000000 1.0
C      1  0.4450910000000  0.5496390000000  0.4479690000000 1.0
C      1  0.4486190000000  0.5728710000000  0.4911810000000 1.0
C      1  0.4409570000000  0.5741100000000  0.5194550000000 1.0
C      1  0.4488120000000  0.5438910000000  0.5518370000000 1.0
C      1  0.4787450000000  0.4961790000000  0.4070540000000 1.0
C      1  0.4780020000000  0.5488610000000  0.4184210000000 1.0
C      1  0.4772190000000  0.5891190000000  0.4549780000000 1.0
C      1  0.4817780000000  0.5958810000000  0.5098930000000 1.0
C      1  0.4774820000000  0.5758520000000  0.5583510000000 1.0
C      1  0.4777420000000  0.5319820000000  0.5896820000000 1.0
C      1  0.4788950000000  0.4781500000000  0.5916880000000 1.0
C      1  0.4778430000000  0.4297940000000  0.5669560000000 1.0
C      1  0.4791830000000  0.4085080000000  0.5183300000000 1.0
C      1  0.4785190000000  0.4125340000000  0.4656050000000 1.0
C      1  0.4769100000000  0.4448130000000  0.4235400000000 1.0
C      1  0.5279790000000  0.5399270000000  0.5774460000000 1.0
C      1  0.5255560000000  0.4945690000000  0.5797200000000 1.0
C      1  0.5390730000000  0.4512490000000  0.5619980000000 1.0
C      1  0.5322310000000  0.4094140000000  0.5313170000000 1.0
C      1  0.5281900000000  0.4202490000000  0.4835000000000 1.0
C      1  0.5268320000000  0.4451050000000  0.4428650000000 1.0
C      1  0.5271580000000  0.4820240000000  0.4084990000000 1.0
C      1  0.5402740000000  0.5288250000000  0.4244370000000 1.0
C      1  0.5317270000000  0.5634750000000  0.4529220000000 1.0
C      1  0.5285040000000  0.5817680000000  0.4959920000000 1.0
C      1  0.5401880000000  0.5698610000000  0.5402460000000 1.0
C      1  0.5652100000000  0.5375600000000  0.4707190000000 1.0
C      1  0.5627630000000  0.5421460000000  0.4989300000000 1.0
C      1  0.5443650000000  0.5415540000000  0.5288780000000 1.0
C      1  0.5638600000000  0.5223730000000  0.5435870000000 1.0
C      1  0.5646040000000  0.4936740000000  0.5440690000000 1.0
C      1  0.5474420000000  0.4656280000000  0.5355210000000 1.0
C      1  0.5664760000000  0.4532810000000  0.5165140000000 1.0
C      1  0.5680160000000  0.4544730000000  0.4870680000000 1.0
C      1  0.5630090000000  0.4739080000000  0.4650240000000 1.0
C      1  0.5460890000000  0.4958000000000  0.4600050000000 1.0
C      1  0.5515570000000  0.5213770000000  0.4503190000000 1.0
C      1  0.4648550000000  0.5679100000000  0.4371090000000 1.0
C      1  0.4688570000000  0.5926400000000  0.4835300000000 1.0
C      1  0.4654940000000  0.5839610000000  0.5312080000000 1.0
C      1  0.4650710000000  0.5528560000000  0.5743750000000 1.0
C      1  0.4646910000000  0.5048770000000  0.5907500000000 1.0
C      1  0.4646180000000  0.4557810000000  0.5795180000000 1.0
C      1  0.4655600000000  0.4205220000000  0.5409710000000 1.0
C      1  0.4657120000000  0.4126470000000  0.4925740000000 1.0
C      1  0.4643850000000  0.4298710000000  0.4463710000000 1.0
C      1  0.4658390000000  0.4713140000000  0.4156860000000 1.0
C      1  0.4638930000000  0.5204950000000  0.4135440000000 1.0
C      1  0.4757200000000  0.5002040000000  0.4971820000000 1.0
END
