TITL C-2441160-1326-156 0.0896330147016652 125000 -17031.084707828 0 0 129 (C1) n - 1
REM
REM in /home/bkarasulu/work/CARBON/AIRSS/Generating-Clusters/ReaxFF-fromJPCA2015/Units_Real/with-SteepDescent/Higher-Symm
REM
REM
REM
REM
REM
REM ./C.cell (1df0a924f5614ab8850e4351716899ee)
REM
REM compiler GCC version 9.2.1 20190827 (Red Hat 9.2.1-1)
REM options -cpp -mtune=generic -march=x86-64 -g -O0 -fpre-include=/usr/include/finclude/math-vector-fortran.h
REM seed 735551681 -1109688203 -57752270 1220924132 -1248128663 -215203914 -2099874850 1228124657 -236023248 1836962730 -523596098 -1700898725 -1369037977 836719522 -1492801589 1841525689 -950795667 1691489802 1406570103 2026645187 1259487081 854575134 -81081436 1813208154 1906599431 1013120239 -1964725660 1359861115 -1078466271 992695424 -1793509804 -1311751199 -713890683
REM
CELL 1.54180   50.00000   50.00000   50.00000   90.00000   90.00000   90.00000
LATT -1
SFAC C  
C      1  0.5042960000000  0.5244300000000  0.5348230000000 1.0
C      1  0.4641000000000  0.5275910000000  0.5140240000000 1.0
C      1  0.4722480000000  0.5353880000000  0.4740780000000 1.0
C      1  0.5122030000000  0.5394040000000  0.4687200000000 1.0
C      1  0.5334250000000  0.5322830000000  0.5045730000000 1.0
C      1  0.4177560000000  0.4707690000000  0.4827590000000 1.0
C      1  0.4926510000000  0.4679140000000  0.4120220000000 1.0
C      1  0.5752250000000  0.4709380000000  0.4669300000000 1.0
C      1  0.5544690000000  0.4708890000000  0.5622890000000 1.0
C      1  0.4549100000000  0.4716920000000  0.5732230000000 1.0
C      1  0.4873090000000  0.5352960000000  0.5810320000000 1.0
C      1  0.4174110000000  0.5360220000000  0.5142310000000 1.0
C      1  0.4613810000000  0.5357130000000  0.4267730000000 1.0
C      1  0.5569630000000  0.5336850000000  0.4391960000000 1.0
C      1  0.5752220000000  0.5341290000000  0.5360820000000 1.0
C      1  0.4586160000000  0.5101640000000  0.4711870000000 1.0
C      1  0.5021460000000  0.5221030000000  0.4482370000000 1.0
C      1  0.5466450000000  0.5183180000000  0.4841780000000 1.0
C      1  0.5308640000000  0.5191540000000  0.5412040000000 1.0
C      1  0.4653020000000  0.5196340000000  0.5412030000000 1.0
C      1  0.5031770000000  0.4039700000000  0.4569820000000 1.0
C      1  0.5405010000000  0.4151620000000  0.4775760000000 1.0
C      1  0.5304570000000  0.4162030000000  0.5297850000000 1.0
C      1  0.4813090000000  0.4153460000000  0.5244780000000 1.0
C      1  0.4654130000000  0.4121900000000  0.4831060000000 1.0
C      1  0.4540680000000  0.5029190000000  0.5016130000000 1.0
C      1  0.4839550000000  0.4995070000000  0.4557280000000 1.0
C      1  0.5287640000000  0.4942540000000  0.4787540000000 1.0
C      1  0.5426830000000  0.4967420000000  0.5276440000000 1.0
C      1  0.4878280000000  0.5011980000000  0.5445980000000 1.0
C      1  0.5619230000000  0.5714460000000  0.5089530000000 1.0
C      1  0.5093550000000  0.5714530000000  0.5574510000000 1.0
C      1  0.4398490000000  0.5686380000000  0.5221690000000 1.0
C      1  0.4538930000000  0.5763830000000  0.4559980000000 1.0
C      1  0.5276140000000  0.5733410000000  0.4426610000000 1.0
C      1  0.5628040000000  0.5364640000000  0.4678330000000 1.0
C      1  0.5511310000000  0.5405570000000  0.5500540000000 1.0
C      1  0.4647300000000  0.5395430000000  0.5633810000000 1.0
C      1  0.4248520000000  0.5488460000000  0.4910010000000 1.0
C      1  0.4898450000000  0.5400580000000  0.4277630000000 1.0
C      1  0.4433200000000  0.5523240000000  0.4432000000000 1.0
C      1  0.5354110000000  0.5499230000000  0.4272630000000 1.0
C      1  0.5807530000000  0.5494380000000  0.5120150000000 1.0
C      1  0.5122680000000  0.5500470000000  0.5771350000000 1.0
C      1  0.4260290000000  0.5499670000000  0.5381050000000 1.0
C      1  0.4773040000000  0.4613820000000  0.4358220000000 1.0
C      1  0.5524990000000  0.4586220000000  0.4527540000000 1.0
C      1  0.5584990000000  0.4587700000000  0.5372540000000 1.0
C      1  0.4813710000000  0.4627250000000  0.5698290000000 1.0
C      1  0.4338860000000  0.4634580000000  0.5068520000000 1.0
C      1  0.4819430000000  0.4736940000000  0.5304470000000 1.0
C      1  0.4617020000000  0.4743220000000  0.5095870000000 1.0
C      1  0.4949990000000  0.4713320000000  0.4583730000000 1.0
C      1  0.5237610000000  0.4702900000000  0.4642440000000 1.0
C      1  0.5328800000000  0.4718890000000  0.5211590000000 1.0
C      1  0.5554120000000  0.4808470000000  0.4306630000000 1.0
C      1  0.5831560000000  0.4768490000000  0.5311820000000 1.0
C      1  0.4955580000000  0.4810380000000  0.5881560000000 1.0
C      1  0.4159510000000  0.4820140000000  0.5219680000000 1.0
C      1  0.4557270000000  0.4795900000000  0.4250640000000 1.0
C      1  0.5787230000000  0.4641930000000  0.4931390000000 1.0
C      1  0.5308680000000  0.4636840000000  0.5725220000000 1.0
C      1  0.4370420000000  0.4616720000000  0.5552150000000 1.0
C      1  0.4300020000000  0.4643650000000  0.4578700000000 1.0
C      1  0.5188260000000  0.4604690000000  0.4199610000000 1.0
C      1  0.5607340000000  0.4325900000000  0.4698350000000 1.0
C      1  0.5458030000000  0.4313900000000  0.5476740000000 1.0
C      1  0.4763120000000  0.4357250000000  0.5594430000000 1.0
C      1  0.4421410000000  0.4271520000000  0.4925090000000 1.0
C      1  0.4879020000000  0.4222930000000  0.4386270000000 1.0
C      1  0.4671450000000  0.5792890000000  0.4815760000000 1.0
C      1  0.5059280000000  0.5831480000000  0.4608900000000 1.0
C      1  0.5406100000000  0.5786670000000  0.4905520000000 1.0
C      1  0.5141860000000  0.5761750000000  0.5295980000000 1.0
C      1  0.4672470000000  0.5734310000000  0.5298810000000 1.0
C      1  0.5927290000000  0.5075440000000  0.4867160000000 1.0
C      1  0.5415680000000  0.5086850000000  0.5833530000000 1.0
C      1  0.4306770000000  0.5083780000000  0.5652010000000 1.0
C      1  0.4267140000000  0.5094300000000  0.4585570000000 1.0
C      1  0.5154540000000  0.5070310000000  0.4063570000000 1.0
C      1  0.5713640000000  0.5028180000000  0.5403670000000 1.0
C      1  0.4819000000000  0.5054490000000  0.5784590000000 1.0
C      1  0.4191840000000  0.5060480000000  0.5070990000000 1.0
C      1  0.4685070000000  0.5057500000000  0.4256390000000 1.0
C      1  0.5660510000000  0.5056100000000  0.4395620000000 1.0
C      1  0.4353160000000  0.5371770000000  0.5622100000000 1.0
C      1  0.4260570000000  0.5408950000000  0.4640990000000 1.0
C      1  0.5146020000000  0.5360480000000  0.4113820000000 1.0
C      1  0.5858190000000  0.5354380000000  0.4864450000000 1.0
C      1  0.5386210000000  0.5368440000000  0.5765660000000 1.0
C      1  0.4798790000000  0.5668560000000  0.4598400000000 1.0
C      1  0.5322800000000  0.5628070000000  0.4678040000000 1.0
C      1  0.5354940000000  0.5607780000000  0.5140700000000 1.0
C      1  0.4924840000000  0.5594450000000  0.5364680000000 1.0
C      1  0.4613910000000  0.5607750000000  0.5054490000000 1.0
C      1  0.4530300000000  0.4979290000000  0.5794880000000 1.0
C      1  0.4115030000000  0.4982590000000  0.4810650000000 1.0
C      1  0.4888520000000  0.4961230000000  0.4072480000000 1.0
C      1  0.5831740000000  0.4966970000000  0.4615410000000 1.0
C      1  0.5622880000000  0.4964510000000  0.5677950000000 1.0
C      1  0.4212660000000  0.4850090000000  0.5495230000000 1.0
C      1  0.4319290000000  0.4861120000000  0.4395900000000 1.0
C      1  0.5333790000000  0.4844850000000  0.4136830000000 1.0
C      1  0.5927630000000  0.4849350000000  0.5059090000000 1.0
C      1  0.5233560000000  0.4858080000000  0.5890890000000 1.0
C      1  0.4507780000000  0.4380700000000  0.5449460000000 1.0
C      1  0.4432920000000  0.4405600000000  0.4653060000000 1.0
C      1  0.5142720000000  0.4374490000000  0.4361010000000 1.0
C      1  0.5681000000000  0.4370850000000  0.4970350000000 1.0
C      1  0.5225890000000  0.4369700000000  0.5637100000000 1.0
C      1  0.5202660000000  0.4255570000000  0.4617930000000 1.0
C      1  0.5420140000000  0.4250280000000  0.5053210000000 1.0
C      1  0.4996700000000  0.4286540000000  0.5436090000000 1.0
C      1  0.4552270000000  0.4265370000000  0.5192940000000 1.0
C      1  0.4666390000000  0.4268860000000  0.4586760000000 1.0
C      1  0.5052570000000  0.3936340000000  0.4841260000000 1.0
C      1  0.4991420000000  0.6623200000000  0.5004060000000 1.0
C      1  0.4996760000000  0.6866000000000  0.4993480000000 1.0
C      1  0.5060420000000  0.5879730000000  0.4912100000000 1.0
C      1  0.5026120000000  0.6128680000000  0.4959120000000 1.0
C      1  0.5048490000000  0.4684790000000  0.5123350000000 1.0
C      1  0.5042560000000  0.4918670000000  0.4940320000000 1.0
C      1  0.5028800000000  0.3676340000000  0.4931930000000 1.0
C      1  0.4991640000000  0.3187510000000  0.5012150000000 1.0
C      1  0.4940990000000  0.5395660000000  0.4905280000000 1.0
C      1  0.5074060000000  0.5202260000000  0.5081630000000 1.0
C      1  0.4886580000000  0.4113300000000  0.4982870000000 1.0
C      1  0.5008630000000  0.3431070000000  0.4992390000000 1.0
C      1  0.4993830000000  0.6368580000000  0.5002910000000 1.0
END
