TITL C-2441160-1326-328 0.116822703806311 125000 -17914.3737432644 0 0 143 (C1) n - 1
REM
REM in /home/bkarasulu/work/CARBON/AIRSS/Generating-Clusters/ReaxFF-fromJPCA2015/Units_Real/with-SteepDescent/Higher-Symm
REM
REM
REM
REM
REM
REM ./C.cell (1df0a924f5614ab8850e4351716899ee)
REM
REM compiler GCC version 9.2.1 20190827 (Red Hat 9.2.1-1)
REM options -cpp -mtune=generic -march=x86-64 -g -O0 -fpre-include=/usr/include/finclude/math-vector-fortran.h
REM seed 1003493055 1877041837 -356621387 1672129293 -1188495261 1458202308 -1466234078 975067187 882984149 1720940666 155453259 1780219805 1202001332 -870612656 694226601 -1930712165 2073799409 1336065940 -1416334402 1512936671 -1983423015 -2125344018 -1575710503 -1970470810 865899037 -787308349 -142368678 -355900354 -2139642607 -253044840 877870997 -1744586431 -1396465468
REM
CELL 1.54180   50.00000   50.00000   50.00000   90.00000   90.00000   90.00000
LATT -1
SFAC C  
C      1  0.4881900000000  0.5241890000000  0.5923110000000 1.0
C      1  0.5153930000000  0.5230360000000  0.5983020000000 1.0
C      1  0.5849610000000  0.4463140000000  0.4996300000000 1.0
C      1  0.4134660000000  0.4513370000000  0.4989040000000 1.0
C      1  0.4826500000000  0.5094680000000  0.4349980000000 1.0
C      1  0.5125820000000  0.5097600000000  0.4313190000000 1.0
C      1  0.4583820000000  0.4392100000000  0.5618870000000 1.0
C      1  0.5416360000000  0.4378110000000  0.5621740000000 1.0
C      1  0.5115790000000  0.4970350000000  0.5762660000000 1.0
C      1  0.4872830000000  0.4965770000000  0.5823520000000 1.0
C      1  0.5523810000000  0.5743390000000  0.5225080000000 1.0
C      1  0.4507760000000  0.5648100000000  0.5208260000000 1.0
C      1  0.5610040000000  0.4900460000000  0.4300160000000 1.0
C      1  0.4400080000000  0.4876870000000  0.4289440000000 1.0
C      1  0.4916330000000  0.4638220000000  0.5171160000000 1.0
C      1  0.5166340000000  0.4495160000000  0.5087950000000 1.0
C      1  0.4607090000000  0.4849530000000  0.5459420000000 1.0
C      1  0.5401780000000  0.4853350000000  0.5462420000000 1.0
C      1  0.4127200000000  0.4947020000000  0.4827010000000 1.0
C      1  0.5884100000000  0.5066340000000  0.4877780000000 1.0
C      1  0.5868940000000  0.5435570000000  0.5060660000000 1.0
C      1  0.4114820000000  0.5424420000000  0.5065130000000 1.0
C      1  0.4760600000000  0.4716840000000  0.5874850000000 1.0
C      1  0.5226240000000  0.4720230000000  0.5848040000000 1.0
C      1  0.4879610000000  0.5964800000000  0.5300380000000 1.0
C      1  0.5111460000000  0.5977970000000  0.5301760000000 1.0
C      1  0.4879540000000  0.5716910000000  0.4859090000000 1.0
C      1  0.5155740000000  0.5721360000000  0.4863120000000 1.0
C      1  0.4492090000000  0.5252830000000  0.5242530000000 1.0
C      1  0.5536150000000  0.5196790000000  0.5254710000000 1.0
C      1  0.5156540000000  0.5366980000000  0.5153250000000 1.0
C      1  0.4874150000000  0.5366300000000  0.5155010000000 1.0
C      1  0.4887140000000  0.5495340000000  0.4515820000000 1.0
C      1  0.5160070000000  0.5480200000000  0.4512910000000 1.0
C      1  0.5163110000000  0.5669010000000  0.5627340000000 1.0
C      1  0.4851760000000  0.5660630000000  0.5618280000000 1.0
C      1  0.4371220000000  0.4353070000000  0.4942720000000 1.0
C      1  0.5610460000000  0.4321460000000  0.4908420000000 1.0
C      1  0.5326050000000  0.5292600000000  0.4711490000000 1.0
C      1  0.4674300000000  0.5187670000000  0.4587350000000 1.0
C      1  0.4180830000000  0.4776220000000  0.5487330000000 1.0
C      1  0.5794510000000  0.4764650000000  0.5494070000000 1.0
C      1  0.4687810000000  0.5792530000000  0.5407860000000 1.0
C      1  0.5317080000000  0.5830170000000  0.5416600000000 1.0
C      1  0.4774730000000  0.5456360000000  0.4894720000000 1.0
C      1  0.5280500000000  0.5476550000000  0.4927310000000 1.0
C      1  0.5609570000000  0.5182460000000  0.4312670000000 1.0
C      1  0.4361190000000  0.5165100000000  0.4320590000000 1.0
C      1  0.4492530000000  0.5752770000000  0.4543620000000 1.0
C      1  0.5521320000000  0.5789270000000  0.4542070000000 1.0
C      1  0.5739210000000  0.5561330000000  0.5295370000000 1.0
C      1  0.4239220000000  0.5562540000000  0.5290130000000 1.0
C      1  0.4626750000000  0.4761480000000  0.4123360000000 1.0
C      1  0.5405400000000  0.4743440000000  0.4126000000000 1.0
C      1  0.5132080000000  0.4837050000000  0.4424660000000 1.0
C      1  0.4860990000000  0.4825540000000  0.4463390000000 1.0
C      1  0.4367900000000  0.4400570000000  0.4463460000000 1.0
C      1  0.5591120000000  0.4495020000000  0.4410620000000 1.0
C      1  0.4179460000000  0.5282890000000  0.4531260000000 1.0
C      1  0.5812370000000  0.5296170000000  0.4531500000000 1.0
C      1  0.4876380000000  0.4827420000000  0.3990120000000 1.0
C      1  0.5147770000000  0.4807170000000  0.4003450000000 1.0
C      1  0.5963330000000  0.5175830000000  0.5136800000000 1.0
C      1  0.4011010000000  0.5180360000000  0.5189010000000 1.0
C      1  0.5134490000000  0.4261160000000  0.5269060000000 1.0
C      1  0.4846110000000  0.4258030000000  0.5237990000000 1.0
C      1  0.4721870000000  0.4105060000000  0.4785870000000 1.0
C      1  0.5269700000000  0.4092460000000  0.4830960000000 1.0
C      1  0.4013140000000  0.5100300000000  0.4659500000000 1.0
C      1  0.6039600000000  0.5139080000000  0.4593370000000 1.0
C      1  0.4530050000000  0.5612600000000  0.4286970000000 1.0
C      1  0.5478490000000  0.5631410000000  0.4310700000000 1.0
C      1  0.4669890000000  0.5879670000000  0.4748140000000 1.0
C      1  0.5338610000000  0.5906510000000  0.4745290000000 1.0
C      1  0.5145500000000  0.4852250000000  0.4823470000000 1.0
C      1  0.4894490000000  0.4729690000000  0.4893820000000 1.0
C      1  0.5228890000000  0.5532850000000  0.4221010000000 1.0
C      1  0.4806650000000  0.5535390000000  0.4247390000000 1.0
C      1  0.5510020000000  0.4775220000000  0.5210090000000 1.0
C      1  0.4493390000000  0.4801330000000  0.5188520000000 1.0
C      1  0.4247030000000  0.5389650000000  0.5533070000000 1.0
C      1  0.5757000000000  0.5377290000000  0.5527820000000 1.0
C      1  0.5150700000000  0.4086500000000  0.4553730000000 1.0
C      1  0.4865910000000  0.4078160000000  0.4506070000000 1.0
C      1  0.5531800000000  0.5014500000000  0.5703070000000 1.0
C      1  0.4489730000000  0.5012890000000  0.5692150000000 1.0
C      1  0.5264320000000  0.4590920000000  0.4338390000000 1.0
C      1  0.4784720000000  0.4586880000000  0.4300810000000 1.0
C      1  0.5559950000000  0.4301780000000  0.4624390000000 1.0
C      1  0.4444550000000  0.4226460000000  0.4693670000000 1.0
C      1  0.4796480000000  0.4363070000000  0.4475250000000 1.0
C      1  0.5238820000000  0.4367320000000  0.4545290000000 1.0
C      1  0.5148080000000  0.4984660000000  0.5455110000000 1.0
C      1  0.4876530000000  0.4891760000000  0.5336680000000 1.0
C      1  0.5538390000000  0.5314190000000  0.5714790000000 1.0
C      1  0.4460410000000  0.5306710000000  0.5711110000000 1.0
C      1  0.5368680000000  0.4174730000000  0.5389540000000 1.0
C      1  0.4632860000000  0.4191340000000  0.5378200000000 1.0
C      1  0.5583010000000  0.4351980000000  0.5388320000000 1.0
C      1  0.4424000000000  0.4388020000000  0.5366560000000 1.0
C      1  0.4190090000000  0.4535980000000  0.5279550000000 1.0
C      1  0.5787100000000  0.4540450000000  0.5297280000000 1.0
C      1  0.4532650000000  0.4594010000000  0.4991620000000 1.0
C      1  0.5434770000000  0.4573490000000  0.5009110000000 1.0
C      1  0.5354080000000  0.5260280000000  0.4193520000000 1.0
C      1  0.4559260000000  0.5337350000000  0.4187890000000 1.0
C      1  0.4215300000000  0.5434840000000  0.4787290000000 1.0
C      1  0.5786440000000  0.5456130000000  0.4788850000000 1.0
C      1  0.5507780000000  0.4784170000000  0.5888570000000 1.0
C      1  0.4479490000000  0.4799420000000  0.5895280000000 1.0
C      1  0.4475900000000  0.5801670000000  0.4953860000000 1.0
C      1  0.5534020000000  0.5847360000000  0.4948630000000 1.0
C      1  0.5708780000000  0.5727310000000  0.4757210000000 1.0
C      1  0.4309740000000  0.5693550000000  0.4751750000000 1.0
C      1  0.5284020000000  0.5252950000000  0.5367610000000 1.0
C      1  0.4743080000000  0.5220950000000  0.5360490000000 1.0
C      1  0.4132750000000  0.4688790000000  0.4748900000000 1.0
C      1  0.5876070000000  0.4665230000000  0.4780040000000 1.0
C      1  0.5655110000000  0.4617350000000  0.5701200000000 1.0
C      1  0.4347740000000  0.4627830000000  0.5702060000000 1.0
C      1  0.5283600000000  0.5405200000000  0.5616550000000 1.0
C      1  0.4746430000000  0.5376840000000  0.5656850000000 1.0
C      1  0.4228190000000  0.5131320000000  0.5387910000000 1.0
C      1  0.5790630000000  0.5108430000000  0.5382500000000 1.0
C      1  0.4852230000000  0.5214500000000  0.4795230000000 1.0
C      1  0.5108250000000  0.5112510000000  0.4791310000000 1.0
C      1  0.5140580000000  0.4020920000000  0.5083320000000 1.0
C      1  0.4846890000000  0.4035000000000  0.5063830000000 1.0
C      1  0.5976700000000  0.4837040000000  0.4953600000000 1.0
C      1  0.3978590000000  0.4955840000000  0.5019920000000 1.0
C      1  0.4854400000000  0.4513200000000  0.5690810000000 1.0
C      1  0.5141310000000  0.4514850000000  0.5671220000000 1.0
C      1  0.5417170000000  0.4764790000000  0.4763710000000 1.0
C      1  0.4625900000000  0.4744490000000  0.4764280000000 1.0
C      1  0.5125620000000  0.4379600000000  0.4814910000000 1.0
C      1  0.4846050000000  0.4387420000000  0.4757440000000 1.0
C      1  0.5490850000000  0.5018930000000  0.5063830000000 1.0
C      1  0.4511800000000  0.5052230000000  0.5042250000000 1.0
C      1  0.4269640000000  0.4679130000000  0.4474300000000 1.0
C      1  0.5740860000000  0.4719280000000  0.4502970000000 1.0
C      1  0.4502670000000  0.5011670000000  0.4753090000000 1.0
C      1  0.5554850000000  0.5028830000000  0.4779530000000 1.0
C      1  0.5012810000000  0.5569400000000  0.5299850000000 1.0
END
