TITL C-2441156-4686-870 0.0305659207027198 125000 -15380.8567536012 0 0 113 (C1) n - 1
REM
REM in /home/bkarasulu/work/CARBON/AIRSS/Generating-Clusters/ReaxFF-fromJPCA2015/Units_Real/with-SteepDescent/Higher-Symm
REM
REM
REM
REM
REM
REM ./C.cell (1df0a924f5614ab8850e4351716899ee)
REM
REM compiler GCC version 9.2.1 20190827 (Red Hat 9.2.1-1)
REM options -cpp -mtune=generic -march=x86-64 -g -O0 -fpre-include=/usr/include/finclude/math-vector-fortran.h
REM seed 1412459554 623684500 -445660767 -1432904282 -1083157976 -1953140477 -739707001 -1971370552 1710474795 1791440331 1621381801 -901849793 -1368926327 -1836630192 -298246990 970757068 1645958011 1640881600 -1911755221 655420256 -2084352926 628910613 1608506456 -2045352264 -1597498 -991494627 -529160654 -31953402 -1493564880 -823990001 -657628700 -279727039 -483851854
REM
CELL 1.54180   50.00000   50.00000   50.00000   90.00000   90.00000   90.00000
LATT -1
SFAC C  
C      1  0.5018880000000  0.5158930000000  0.5926070000000 1.0
C      1  0.5773390000000  0.5205190000000  0.4531080000000 1.0
C      1  0.4163070000000  0.5135000000000  0.4516690000000 1.0
C      1  0.4562640000000  0.4356510000000  0.4581660000000 1.0
C      1  0.4833620000000  0.4331530000000  0.5604730000000 1.0
C      1  0.5614190000000  0.4347210000000  0.4832050000000 1.0
C      1  0.5071130000000  0.4184680000000  0.5505880000000 1.0
C      1  0.5393960000000  0.4192020000000  0.4689060000000 1.0
C      1  0.4536650000000  0.4193920000000  0.4827570000000 1.0
C      1  0.4594560000000  0.5189310000000  0.4886240000000 1.0
C      1  0.5101290000000  0.5185970000000  0.5469750000000 1.0
C      1  0.5340750000000  0.5200460000000  0.4702650000000 1.0
C      1  0.4772180000000  0.5584770000000  0.5549610000000 1.0
C      1  0.5666950000000  0.5517010000000  0.4961790000000 1.0
C      1  0.4644840000000  0.5627850000000  0.4492760000000 1.0
C      1  0.5260210000000  0.5029900000000  0.5856980000000 1.0
C      1  0.5602660000000  0.5049820000000  0.4368300000000 1.0
C      1  0.4149760000000  0.5071260000000  0.4798630000000 1.0
C      1  0.5791110000000  0.4897190000000  0.5204220000000 1.0
C      1  0.4752820000000  0.4817510000000  0.4151870000000 1.0
C      1  0.4396070000000  0.4814630000000  0.5664160000000 1.0
C      1  0.5181480000000  0.4533520000000  0.5736670000000 1.0
C      1  0.5566250000000  0.4541560000000  0.4469860000000 1.0
C      1  0.4246130000000  0.4535840000000  0.4811630000000 1.0
C      1  0.5009210000000  0.4482540000000  0.4673220000000 1.0
C      1  0.4697990000000  0.4487780000000  0.5175680000000 1.0
C      1  0.5302570000000  0.4461970000000  0.5187500000000 1.0
C      1  0.4673330000000  0.4805970000000  0.5805750000000 1.0
C      1  0.5830620000000  0.4840420000000  0.4872260000000 1.0
C      1  0.4497800000000  0.4809380000000  0.4318800000000 1.0
C      1  0.5523950000000  0.4831920000000  0.4906910000000 1.0
C      1  0.4677090000000  0.4855240000000  0.4574880000000 1.0
C      1  0.4805090000000  0.4821980000000  0.5517180000000 1.0
C      1  0.5439410000000  0.4944760000000  0.4611540000000 1.0
C      1  0.4449790000000  0.4949890000000  0.4817960000000 1.0
C      1  0.5117460000000  0.4936850000000  0.5600030000000 1.0
C      1  0.5150010000000  0.4195390000000  0.5229410000000 1.0
C      1  0.5118410000000  0.4203620000000  0.4767020000000 1.0
C      1  0.4739240000000  0.4211940000000  0.5028300000000 1.0
C      1  0.4815690000000  0.5096160000000  0.4083120000000 1.0
C      1  0.4299160000000  0.5075430000000  0.5605330000000 1.0
C      1  0.5881270000000  0.5173310000000  0.5299500000000 1.0
C      1  0.5076300000000  0.5628650000000  0.5255170000000 1.0
C      1  0.5214250000000  0.5634400000000  0.4819640000000 1.0
C      1  0.4751020000000  0.5635260000000  0.4925060000000 1.0
C      1  0.5098280000000  0.5171860000000  0.5012540000000 1.0
C      1  0.4888540000000  0.5206960000000  0.4802650000000 1.0
C      1  0.4918210000000  0.5208040000000  0.5244800000000 1.0
C      1  0.5548660000000  0.5055990000000  0.5745540000000 1.0
C      1  0.5363590000000  0.5070940000000  0.4165260000000 1.0
C      1  0.4142680000000  0.5222180000000  0.5072130000000 1.0
C      1  0.5358230000000  0.4739980000000  0.4455330000000 1.0
C      1  0.4315770000000  0.4749670000000  0.4993310000000 1.0
C      1  0.5268890000000  0.4726180000000  0.5531120000000 1.0
C      1  0.5513130000000  0.5259900000000  0.4919270000000 1.0
C      1  0.4645360000000  0.5326620000000  0.4441960000000 1.0
C      1  0.4671910000000  0.5302000000000  0.5531230000000 1.0
C      1  0.4880320000000  0.4532540000000  0.5845750000000 1.0
C      1  0.5760850000000  0.4569420000000  0.4696110000000 1.0
C      1  0.4327140000000  0.4550540000000  0.4503780000000 1.0
C      1  0.5372530000000  0.5538950000000  0.5538310000000 1.0
C      1  0.5290600000000  0.5590460000000  0.4403160000000 1.0
C      1  0.4268190000000  0.5485660000000  0.5056870000000 1.0
C      1  0.4423150000000  0.4445560000000  0.5259680000000 1.0
C      1  0.5526910000000  0.4440220000000  0.5395220000000 1.0
C      1  0.5083500000000  0.4455700000000  0.4383940000000 1.0
C      1  0.5885630000000  0.5322370000000  0.5026230000000 1.0
C      1  0.4563340000000  0.5233920000000  0.4180440000000 1.0
C      1  0.4516600000000  0.5213890000000  0.5757140000000 1.0
C      1  0.4745500000000  0.4569840000000  0.4620590000000 1.0
C      1  0.4796160000000  0.4546690000000  0.5424140000000 1.0
C      1  0.5457340000000  0.4548000000000  0.4969570000000 1.0
C      1  0.4839710000000  0.4773820000000  0.5087020000000 1.0
C      1  0.5121170000000  0.4740640000000  0.5163580000000 1.0
C      1  0.5039290000000  0.4730810000000  0.4889390000000 1.0
C      1  0.4500280000000  0.5655740000000  0.4739960000000 1.0
C      1  0.5070080000000  0.5653680000000  0.5563110000000 1.0
C      1  0.5451740000000  0.5646100000000  0.4643940000000 1.0
C      1  0.5483900000000  0.5394660000000  0.4529810000000 1.0
C      1  0.4403030000000  0.5393960000000  0.4811070000000 1.0
C      1  0.5163730000000  0.5380890000000  0.5668840000000 1.0
C      1  0.4914860000000  0.5752050000000  0.4478250000000 1.0
C      1  0.4642150000000  0.5776750000000  0.5361780000000 1.0
C      1  0.5513900000000  0.5675970000000  0.5172400000000 1.0
C      1  0.5214770000000  0.5421530000000  0.5113350000000 1.0
C      1  0.4980570000000  0.5477860000000  0.4748830000000 1.0
C      1  0.4740380000000  0.5446550000000  0.5149940000000 1.0
C      1  0.5342180000000  0.4327200000000  0.4436930000000 1.0
C      1  0.4338210000000  0.4325520000000  0.5004610000000 1.0
C      1  0.5321830000000  0.4322250000000  0.5587000000000 1.0
C      1  0.5702610000000  0.4670100000000  0.5401850000000 1.0
C      1  0.4994960000000  0.4657970000000  0.4194850000000 1.0
C      1  0.4304330000000  0.4634430000000  0.5443060000000 1.0
C      1  0.5722400000000  0.5184480000000  0.5549830000000 1.0
C      1  0.5096540000000  0.5151480000000  0.4117960000000 1.0
C      1  0.4163540000000  0.5084910000000  0.5332380000000 1.0
C      1  0.4770400000000  0.5878360000000  0.5115100000000 1.0
C      1  0.5257790000000  0.5838180000000  0.5166320000000 1.0
C      1  0.5054150000000  0.5866860000000  0.4721030000000 1.0
C      1  0.5884480000000  0.5130750000000  0.4792650000000 1.0
C      1  0.4347210000000  0.5066660000000  0.4285960000000 1.0
C      1  0.4742980000000  0.5077640000000  0.5910870000000 1.0
C      1  0.5527320000000  0.5051010000000  0.5124500000000 1.0
C      1  0.4835060000000  0.5121740000000  0.4536630000000 1.0
C      1  0.4707060000000  0.5055130000000  0.5355400000000 1.0
C      1  0.4176050000000  0.4810230000000  0.5250050000000 1.0
C      1  0.5549190000000  0.4794630000000  0.5611480000000 1.0
C      1  0.5264790000000  0.4791120000000  0.4186150000000 1.0
C      1  0.4483270000000  0.5545080000000  0.5256850000000 1.0
C      1  0.5452540000000  0.5408350000000  0.5291600000000 1.0
C      1  0.5028880000000  0.5472030000000  0.4453810000000 1.0
C      1  0.5029010000000  0.5954560000000  0.5000870000000 1.0
C      1  0.5001700000000  0.4117890000000  0.5005810000000 1.0
END
