TITL C-2441159-1093-26 0.0825983184170064 125000 -13463.4718579488 0 0 111 (C1) n - 1
REM
REM in /home/bkarasulu/work/CARBON/AIRSS/Generating-Clusters/ReaxFF-fromJPCA2015/Units_Real/with-SteepDescent/Higher-Symm
REM
REM
REM
REM
REM
REM ./C.cell (1df0a924f5614ab8850e4351716899ee)
REM
REM compiler GCC version 9.2.1 20190827 (Red Hat 9.2.1-1)
REM options -cpp -mtune=generic -march=x86-64 -g -O0 -fpre-include=/usr/include/finclude/math-vector-fortran.h
REM seed 1647331942 -1866279709 324885644 1410460093 190270971 204810098 1798210567 165272001 -1915803408 -90396883 -424347698 1105239647 -166758764 -584201140 798661401 -182665540 1507541780 -1664649477 689531916 -962237167 -1250513280 1312020965 1250448130 807028960 -1095695644 -1661568964 -445121667 -146434069 1629856185 -1638026572 -349160016 -1481774373 -635291843
REM
CELL 1.54180   50.00000   50.00000   50.00000   90.00000   90.00000   90.00000
LATT -1
SFAC C  
C      1  0.4458910000000  0.4773850000000  0.5683640000000 1.0
C      1  0.4460890000000  0.4327180000000  0.5258270000000 1.0
C      1  0.4454790000000  0.4369740000000  0.4627020000000 1.0
C      1  0.4481860000000  0.4912850000000  0.4307220000000 1.0
C      1  0.4463520000000  0.5504950000000  0.4501540000000 1.0
C      1  0.4465950000000  0.5690060000000  0.5056130000000 1.0
C      1  0.4441980000000  0.5388850000000  0.5572260000000 1.0
C      1  0.4875910000000  0.4338350000000  0.4756020000000 1.0
C      1  0.4916130000000  0.4748840000000  0.4211190000000 1.0
C      1  0.4871450000000  0.5329530000000  0.4454070000000 1.0
C      1  0.4930950000000  0.5698800000000  0.4941800000000 1.0
C      1  0.4899900000000  0.5486150000000  0.5516330000000 1.0
C      1  0.4894830000000  0.4885760000000  0.5744800000000 1.0
C      1  0.4889510000000  0.4383390000000  0.5343640000000 1.0
C      1  0.5145990000000  0.4012690000000  0.5045420000000 1.0
C      1  0.5293450000000  0.4341400000000  0.4335030000000 1.0
C      1  0.5376080000000  0.5079360000000  0.4006290000000 1.0
C      1  0.5177070000000  0.5868390000000  0.4489360000000 1.0
C      1  0.5302820000000  0.5905780000000  0.5327240000000 1.0
C      1  0.5341540000000  0.5233790000000  0.5879380000000 1.0
C      1  0.5295600000000  0.4508970000000  0.5863050000000 1.0
C      1  0.4892420000000  0.5356200000000  0.5768330000000 1.0
C      1  0.4898600000000  0.4603320000000  0.5813320000000 1.0
C      1  0.4904410000000  0.4097610000000  0.5208800000000 1.0
C      1  0.4905170000000  0.4313370000000  0.4461670000000 1.0
C      1  0.4894840000000  0.5002440000000  0.4124440000000 1.0
C      1  0.4908700000000  0.5765770000000  0.4428090000000 1.0
C      1  0.4918830000000  0.5846890000000  0.5193960000000 1.0
C      1  0.5459050000000  0.4650550000000  0.4962600000000 1.0
C      1  0.5555310000000  0.4886190000000  0.4571700000000 1.0
C      1  0.5429020000000  0.5149490000000  0.4600000000000 1.0
C      1  0.5578580000000  0.5480010000000  0.4981920000000 1.0
C      1  0.5496560000000  0.5368770000000  0.5235150000000 1.0
C      1  0.5474860000000  0.4930720000000  0.5433080000000 1.0
C      1  0.5520190000000  0.4659130000000  0.5249680000000 1.0
C      1  0.4716000000000  0.4615440000000  0.4865560000000 1.0
C      1  0.4630750000000  0.4967910000000  0.4750320000000 1.0
C      1  0.4702990000000  0.5242020000000  0.4732660000000 1.0
C      1  0.4692360000000  0.5330440000000  0.5032590000000 1.0
C      1  0.4718650000000  0.5198220000000  0.5304490000000 1.0
C      1  0.4718210000000  0.4902950000000  0.5366490000000 1.0
C      1  0.4707360000000  0.4646230000000  0.5163630000000 1.0
C      1  0.5227920000000  0.5253350000000  0.5189800000000 1.0
C      1  0.5188490000000  0.5028080000000  0.5380780000000 1.0
C      1  0.5062860000000  0.4841460000000  0.5185580000000 1.0
C      1  0.5172010000000  0.4699460000000  0.4947010000000 1.0
C      1  0.5058830000000  0.4892080000000  0.4753360000000 1.0
C      1  0.5167040000000  0.5158930000000  0.4693700000000 1.0
C      1  0.5059370000000  0.5318490000000  0.4932840000000 1.0
C      1  0.5555010000000  0.5792560000000  0.5334770000000 1.0
C      1  0.5558520000000  0.5350720000000  0.5737450000000 1.0
C      1  0.5507220000000  0.4549700000000  0.5677840000000 1.0
C      1  0.5612200000000  0.4300620000000  0.5067580000000 1.0
C      1  0.5553930000000  0.4415870000000  0.4467920000000 1.0
C      1  0.5585160000000  0.4996740000000  0.4179860000000 1.0
C      1  0.5522000000000  0.5646290000000  0.4563150000000 1.0
C      1  0.4413300000000  0.4609860000000  0.5180110000000 1.0
C      1  0.4441630000000  0.4620600000000  0.4766190000000 1.0
C      1  0.4392760000000  0.4964100000000  0.4576800000000 1.0
C      1  0.4414720000000  0.5296870000000  0.4700570000000 1.0
C      1  0.4407980000000  0.5396600000000  0.5032970000000 1.0
C      1  0.4424140000000  0.5213370000000  0.5337300000000 1.0
C      1  0.4425640000000  0.4861760000000  0.5400110000000 1.0
C      1  0.4624140000000  0.4191650000000  0.4804800000000 1.0
C      1  0.4648290000000  0.4666550000000  0.4267720000000 1.0
C      1  0.4640790000000  0.5399290000000  0.4288590000000 1.0
C      1  0.4657650000000  0.5778180000000  0.4849590000000 1.0
C      1  0.4626710000000  0.5611510000000  0.5518840000000 1.0
C      1  0.4630040000000  0.4980130000000  0.5809560000000 1.0
C      1  0.4635510000000  0.4346570000000  0.5497170000000 1.0
C      1  0.5133840000000  0.5216230000000  0.5691520000000 1.0
C      1  0.5113010000000  0.4549260000000  0.5652470000000 1.0
C      1  0.5149140000000  0.4263620000000  0.5072530000000 1.0
C      1  0.5125210000000  0.4463620000000  0.4465420000000 1.0
C      1  0.5147550000000  0.5112970000000  0.4169190000000 1.0
C      1  0.5103190000000  0.5644670000000  0.4581740000000 1.0
C      1  0.5143360000000  0.5715150000000  0.5268480000000 1.0
C      1  0.5802030000000  0.5244940000000  0.5235380000000 1.0
C      1  0.5777960000000  0.4979790000000  0.5326650000000 1.0
C      1  0.5811180000000  0.4728040000000  0.5193180000000 1.0
C      1  0.5760350000000  0.4649510000000  0.4916500000000 1.0
C      1  0.5824410000000  0.4833950000000  0.4692800000000 1.0
C      1  0.5828770000000  0.5111860000000  0.4797690000000 1.0
C      1  0.5846290000000  0.5353960000000  0.4968120000000 1.0
C      1  0.5449810000000  0.5516890000000  0.5488470000000 1.0
C      1  0.5456480000000  0.4838310000000  0.5713590000000 1.0
C      1  0.5453820000000  0.4420290000000  0.5401640000000 1.0
C      1  0.5479860000000  0.4343880000000  0.4817930000000 1.0
C      1  0.5473600000000  0.4734590000000  0.4341860000000 1.0
C      1  0.5420870000000  0.5389950000000  0.4433180000000 1.0
C      1  0.5478590000000  0.5710610000000  0.4851550000000 1.0
C      1  0.4629120000000  0.4411060000000  0.4395750000000 1.0
C      1  0.4634900000000  0.5123830000000  0.4174280000000 1.0
C      1  0.4642410000000  0.5730730000000  0.4558760000000 1.0
C      1  0.4632120000000  0.5778600000000  0.5277040000000 1.0
C      1  0.4612900000000  0.5278750000000  0.5786230000000 1.0
C      1  0.4620220000000  0.4534480000000  0.5714760000000 1.0
C      1  0.4619070000000  0.4150830000000  0.5087470000000 1.0
C      1  0.5196150000000  0.4637830000000  0.4260150000000 1.0
C      1  0.5138310000000  0.5335500000000  0.4334540000000 1.0
C      1  0.5183470000000  0.5799950000000  0.4807990000000 1.0
C      1  0.5166830000000  0.5608200000000  0.5521970000000 1.0
C      1  0.5209080000000  0.4972230000000  0.5836180000000 1.0
C      1  0.5163070000000  0.4397450000000  0.5441990000000 1.0
C      1  0.5181010000000  0.4198350000000  0.4825290000000 1.0
C      1  0.4448720000000  0.4952650000000  0.4984190000000 1.0
C      1  0.4955110000000  0.5022120000000  0.4993280000000 1.0
C      1  0.3954030000000  0.5018350000000  0.5029670000000 1.0
C      1  0.4193840000000  0.4986430000000  0.5007560000000 1.0
C      1  0.5601930000000  0.5043860000000  0.4943350000000 1.0
C      1  0.5370080000000  0.5043220000000  0.5021270000000 1.0
END
