TITL C-2441156-4686-1055 0.0579622665124528 125000 -22388.9177449436 0 0 155 (C1) n - 1
REM
REM in /home/bkarasulu/work/CARBON/AIRSS/Generating-Clusters/ReaxFF-fromJPCA2015/Units_Real/with-SteepDescent/Higher-Symm
REM
REM
REM
REM
REM
REM ./C.cell (1df0a924f5614ab8850e4351716899ee)
REM
REM compiler GCC version 9.2.1 20190827 (Red Hat 9.2.1-1)
REM options -cpp -mtune=generic -march=x86-64 -g -O0 -fpre-include=/usr/include/finclude/math-vector-fortran.h
REM seed 1811469091 -1527763124 -122049397 1707961723 824208337 51697320 -1122107700 421523255 -1841964345 -2087343561 670526382 1579690016 -145562012 1197736087 798272995 509781759 867859160 -749871752 93428706 39267362 2126946678 1389200911 -189239574 1710170363 -1047092639 479818630 1384243009 -1776307155 -90074506 -323996319 -2028739192 -1153484857 -1064355005
REM
CELL 1.54180   50.00000   50.00000   50.00000   90.00000   90.00000   90.00000
LATT -1
SFAC C  
C      1  0.4486190000000  0.5729580000000  0.4522560000000 1.0
C      1  0.4121090000000  0.5155340000000  0.5476580000000 1.0
C      1  0.4286380000000  0.4496090000000  0.4535890000000 1.0
C      1  0.4850920000000  0.4121760000000  0.5475650000000 1.0
C      1  0.5514590000000  0.4266640000000  0.4519950000000 1.0
C      1  0.5877920000000  0.4838200000000  0.5481820000000 1.0
C      1  0.5724780000000  0.5499640000000  0.4534690000000 1.0
C      1  0.5155000000000  0.5874070000000  0.5470010000000 1.0
C      1  0.4863650000000  0.4844890000000  0.6032570000000 1.0
C      1  0.5007380000000  0.4791880000000  0.3966940000000 1.0
C      1  0.5156810000000  0.4864980000000  0.6035860000000 1.0
C      1  0.5203480000000  0.5012180000000  0.3963660000000 1.0
C      1  0.5136970000000  0.5158790000000  0.6032550000000 1.0
C      1  0.4983680000000  0.5208120000000  0.3968780000000 1.0
C      1  0.4843510000000  0.5138680000000  0.6031460000000 1.0
C      1  0.4792340000000  0.4988980000000  0.3973660000000 1.0
C      1  0.5315830000000  0.5334200000000  0.5892260000000 1.0
C      1  0.4990310000000  0.5461320000000  0.4108280000000 1.0
C      1  0.4667350000000  0.5318140000000  0.5893680000000 1.0
C      1  0.4551780000000  0.4997780000000  0.4114980000000 1.0
C      1  0.4686240000000  0.4665840000000  0.5894490000000 1.0
C      1  0.5008320000000  0.4540670000000  0.4109660000000 1.0
C      1  0.5331090000000  0.4683230000000  0.5898010000000 1.0
C      1  0.5453960000000  0.5004460000000  0.4105060000000 1.0
C      1  0.4906240000000  0.4652420000000  0.5273030000000 1.0
C      1  0.5157740000000  0.4715780000000  0.4736280000000 1.0
C      1  0.5362360000000  0.4895330000000  0.5267730000000 1.0
C      1  0.5285290000000  0.5156780000000  0.4767790000000 1.0
C      1  0.5089660000000  0.5367870000000  0.5255590000000 1.0
C      1  0.4848340000000  0.5288210000000  0.4746290000000 1.0
C      1  0.4630800000000  0.5091970000000  0.5275880000000 1.0
C      1  0.4722220000000  0.4845510000000  0.4767320000000 1.0
C      1  0.5628550000000  0.5775190000000  0.4926290000000 1.0
C      1  0.4884320000000  0.5988560000000  0.5063650000000 1.0
C      1  0.4220340000000  0.5630910000000  0.4922860000000 1.0
C      1  0.3996220000000  0.4885810000000  0.5072400000000 1.0
C      1  0.4384050000000  0.4224360000000  0.4934130000000 1.0
C      1  0.5110920000000  0.4012430000000  0.5073140000000 1.0
C      1  0.5783720000000  0.4367190000000  0.4918230000000 1.0
C      1  0.6009640000000  0.5105180000000  0.5079170000000 1.0
C      1  0.4052670000000  0.5228980000000  0.4589000000000 1.0
C      1  0.4177620000000  0.4491150000000  0.5407120000000 1.0
C      1  0.4785300000000  0.4077530000000  0.4595910000000 1.0
C      1  0.5510110000000  0.4188700000000  0.5405320000000 1.0
C      1  0.5941790000000  0.4775360000000  0.4583880000000 1.0
C      1  0.5824190000000  0.5501140000000  0.5411860000000 1.0
C      1  0.5221410000000  0.5934170000000  0.4593810000000 1.0
C      1  0.4499390000000  0.5808350000000  0.5406250000000 1.0
C      1  0.4765540000000  0.5608430000000  0.4177290000000 1.0
C      1  0.4409560000000  0.5260530000000  0.5816050000000 1.0
C      1  0.4387880000000  0.4781900000000  0.4193680000000 1.0
C      1  0.4740140000000  0.4405860000000  0.5819570000000 1.0
C      1  0.5231200000000  0.4391270000000  0.4179000000000 1.0
C      1  0.5585940000000  0.4736720000000  0.5813660000000 1.0
C      1  0.5596680000000  0.5227160000000  0.4192590000000 1.0
C      1  0.5262970000000  0.5592860000000  0.5814860000000 1.0
C      1  0.4998720000000  0.5665610000000  0.5837700000000 1.0
C      1  0.4527990000000  0.5466330000000  0.4156160000000 1.0
C      1  0.4337430000000  0.4993690000000  0.5841610000000 1.0
C      1  0.4528020000000  0.4532750000000  0.4169070000000 1.0
C      1  0.5006790000000  0.4335940000000  0.5841460000000 1.0
C      1  0.5471480000000  0.4526490000000  0.4151270000000 1.0
C      1  0.5660680000000  0.5000620000000  0.5841190000000 1.0
C      1  0.5461530000000  0.5464960000000  0.4180390000000 1.0
C      1  0.4168630000000  0.5465570000000  0.5151890000000 1.0
C      1  0.4085970000000  0.4759380000000  0.4832240000000 1.0
C      1  0.4551250000000  0.4172020000000  0.5160050000000 1.0
C      1  0.5267700000000  0.4104800000000  0.4848160000000 1.0
C      1  0.5825660000000  0.4524010000000  0.5155000000000 1.0
C      1  0.5921120000000  0.5236840000000  0.4844880000000 1.0
C      1  0.5474300000000  0.5829790000000  0.5156580000000 1.0
C      1  0.4731280000000  0.5901260000000  0.4839530000000 1.0
C      1  0.4561050000000  0.4125530000000  0.4749340000000 1.0
C      1  0.5320630000000  0.4050720000000  0.5251560000000 1.0
C      1  0.5904940000000  0.4554400000000  0.4752520000000 1.0
C      1  0.5954070000000  0.5315870000000  0.5248460000000 1.0
C      1  0.5450160000000  0.5890640000000  0.4748560000000 1.0
C      1  0.4689510000000  0.5934610000000  0.5248560000000 1.0
C      1  0.4090970000000  0.5455900000000  0.4749580000000 1.0
C      1  0.4050140000000  0.4669950000000  0.5234190000000 1.0
C      1  0.4383400000000  0.5513890000000  0.5341030000000 1.0
C      1  0.4201130000000  0.4957210000000  0.4660990000000 1.0
C      1  0.4474780000000  0.4368750000000  0.5359980000000 1.0
C      1  0.5075170000000  0.4217760000000  0.4659110000000 1.0
C      1  0.5606830000000  0.4480520000000  0.5335130000000 1.0
C      1  0.5807380000000  0.5051720000000  0.4656540000000 1.0
C      1  0.5529930000000  0.5625660000000  0.5355510000000 1.0
C      1  0.4925620000000  0.5799790000000  0.4644960000000 1.0
C      1  0.5362050000000  0.5721430000000  0.5583570000000 1.0
C      1  0.4743360000000  0.5766530000000  0.4409410000000 1.0
C      1  0.4283680000000  0.5357900000000  0.5581290000000 1.0
C      1  0.4236420000000  0.4760590000000  0.4444590000000 1.0
C      1  0.4638320000000  0.4273960000000  0.5590210000000 1.0
C      1  0.5254740000000  0.4238440000000  0.4414630000000 1.0
C      1  0.5703660000000  0.4637710000000  0.5573470000000 1.0
C      1  0.5756110000000  0.5238690000000  0.4430950000000 1.0
C      1  0.5787650000000  0.4680620000000  0.4362090000000 1.0
C      1  0.5782880000000  0.5334010000000  0.5637750000000 1.0
C      1  0.5317980000000  0.5792560000000  0.4366860000000 1.0
C      1  0.4660150000000  0.5783640000000  0.5640530000000 1.0
C      1  0.4211240000000  0.5315980000000  0.4368670000000 1.0
C      1  0.4218500000000  0.4664050000000  0.5627890000000 1.0
C      1  0.4692060000000  0.4205000000000  0.4359210000000 1.0
C      1  0.5342220000000  0.4223780000000  0.5634970000000 1.0
C      1  0.4978280000000  0.5544250000000  0.4806510000000 1.0
C      1  0.4619450000000  0.5366410000000  0.5185500000000 1.0
C      1  0.4478840000000  0.5068510000000  0.4821470000000 1.0
C      1  0.4625390000000  0.4609260000000  0.5202570000000 1.0
C      1  0.5027520000000  0.4472710000000  0.4811680000000 1.0
C      1  0.5339410000000  0.4609390000000  0.5168240000000 1.0
C      1  0.5531240000000  0.4929080000000  0.4820240000000 1.0
C      1  0.5382450000000  0.5377880000000  0.5209430000000 1.0
C      1  0.4931650000000  0.5885720000000  0.5658000000000 1.0
C      1  0.4320800000000  0.5578120000000  0.4330760000000 1.0
C      1  0.4114530000000  0.4930700000000  0.5662900000000 1.0
C      1  0.4429810000000  0.4327570000000  0.4345720000000 1.0
C      1  0.5077290000000  0.4115200000000  0.5664540000000 1.0
C      1  0.5678980000000  0.4417360000000  0.4326610000000 1.0
C      1  0.5885190000000  0.5064440000000  0.5665900000000 1.0
C      1  0.5579730000000  0.5670920000000  0.4343790000000 1.0
C      1  0.4809350000000  0.5482330000000  0.5701340000000 1.0
C      1  0.4547420000000  0.5210390000000  0.4303340000000 1.0
C      1  0.4525530000000  0.4810890000000  0.5703990000000 1.0
C      1  0.4791880000000  0.4525390000000  0.4304670000000 1.0
C      1  0.5188020000000  0.4525670000000  0.5705560000000 1.0
C      1  0.5460660000000  0.4785120000000  0.4295420000000 1.0
C      1  0.5478950000000  0.5188070000000  0.5703130000000 1.0
C      1  0.5208940000000  0.5477730000000  0.4303070000000 1.0
C      1  0.4813280000000  0.4767450000000  0.4498010000000 1.0
C      1  0.5044890000000  0.4718190000000  0.5517810000000 1.0
C      1  0.5217040000000  0.4806670000000  0.4470570000000 1.0
C      1  0.5294500000000  0.5034700000000  0.5507360000000 1.0
C      1  0.5190500000000  0.5233720000000  0.4500350000000 1.0
C      1  0.4938790000000  0.5295700000000  0.5491880000000 1.0
C      1  0.4790210000000  0.5197720000000  0.4476000000000 1.0
C      1  0.4704940000000  0.4966370000000  0.5521420000000 1.0
C      1  0.4595790000000  0.5352920000000  0.4893150000000 1.0
C      1  0.4406580000000  0.5027330000000  0.5099390000000 1.0
C      1  0.4568500000000  0.4647330000000  0.4936510000000 1.0
C      1  0.5045200000000  0.4458160000000  0.5098320000000 1.0
C      1  0.5407360000000  0.4647950000000  0.4879350000000 1.0
C      1  0.5593840000000  0.4946150000000  0.5100060000000 1.0
C      1  0.5443390000000  0.5346590000000  0.4942190000000 1.0
C      1  0.5042700000000  0.5588340000000  0.5064810000000 1.0
C      1  0.5490870000000  0.4307060000000  0.4812980000000 1.0
C      1  0.5867330000000  0.4828070000000  0.5185640000000 1.0
C      1  0.5715200000000  0.5472490000000  0.4834010000000 1.0
C      1  0.5165270000000  0.5854060000000  0.5167870000000 1.0
C      1  0.4512130000000  0.5690900000000  0.4814870000000 1.0
C      1  0.4139550000000  0.5158450000000  0.5181530000000 1.0
C      1  0.4299340000000  0.4521640000000  0.4832690000000 1.0
C      1  0.4854110000000  0.4159520000000  0.5183700000000 1.0
C      1  0.4993750000000  0.5006310000000  0.5594000000000 1.0
C      1  0.4998140000000  0.4996800000000  0.4393400000000 1.0
C      1  0.5002300000000  0.5004930000000  0.4884580000000 1.0
END
