TITL C-2441160-1326-364 0.2105010128334 125000 -15811.5569453713 0 0 148 (C1) n - 1
REM
REM in /home/bkarasulu/work/CARBON/AIRSS/Generating-Clusters/ReaxFF-fromJPCA2015/Units_Real/with-SteepDescent/Higher-Symm
REM
REM
REM
REM
REM
REM ./C.cell (1df0a924f5614ab8850e4351716899ee)
REM
REM compiler GCC version 9.2.1 20190827 (Red Hat 9.2.1-1)
REM options -cpp -mtune=generic -march=x86-64 -g -O0 -fpre-include=/usr/include/finclude/math-vector-fortran.h
REM seed -1062159765 1332784260 -1852206963 -1252852963 1921594195 -1260998593 -1932732713 -1669397181 -1257650666 -524081667 -160388342 1518850913 -1312892941 1549379978 -533543980 1908563450 1588264436 -1306260477 -117227937 -17865126 -197155151 -1420250473 -1473475483 233233246 -119739002 -1525103938 500209573 1230967864 753771362 -1525076650 391887033 -1321474137 -438431531
REM
CELL 1.54180   50.00000   50.00000   50.00000   90.00000   90.00000   90.00000
LATT -1
SFAC C  
C      1  0.5313790000000  0.5430270000000  0.5187580000000 1.0
C      1  0.5293900000000  0.4550960000000  0.4760290000000 1.0
C      1  0.4652180000000  0.4563010000000  0.5218360000000 1.0
C      1  0.4762850000000  0.5460800000000  0.4749570000000 1.0
C      1  0.5349620000000  0.5252660000000  0.5406330000000 1.0
C      1  0.5332520000000  0.4788200000000  0.4607110000000 1.0
C      1  0.4647450000000  0.5202640000000  0.4605470000000 1.0
C      1  0.4624010000000  0.4752850000000  0.5425700000000 1.0
C      1  0.4467470000000  0.5005290000000  0.4216420000000 1.0
C      1  0.4461500000000  0.4985440000000  0.5793020000000 1.0
C      1  0.5543700000000  0.4991390000000  0.4214360000000 1.0
C      1  0.5549840000000  0.5013720000000  0.5805670000000 1.0
C      1  0.4459310000000  0.4208620000000  0.5006380000000 1.0
C      1  0.4463140000000  0.5783820000000  0.4987450000000 1.0
C      1  0.5538970000000  0.4212370000000  0.4986090000000 1.0
C      1  0.5531300000000  0.5791200000000  0.5012190000000 1.0
C      1  0.4235680000000  0.5512750000000  0.4701330000000 1.0
C      1  0.4294340000000  0.4497290000000  0.5278950000000 1.0
C      1  0.5766410000000  0.4485500000000  0.4698240000000 1.0
C      1  0.5745740000000  0.5512200000000  0.5298730000000 1.0
C      1  0.4287780000000  0.4720940000000  0.5503490000000 1.0
C      1  0.4328070000000  0.5279110000000  0.4526910000000 1.0
C      1  0.5666170000000  0.4720100000000  0.4526400000000 1.0
C      1  0.5669070000000  0.5281280000000  0.5487820000000 1.0
C      1  0.4357930000000  0.4305810000000  0.5495050000000 1.0
C      1  0.4353760000000  0.5688900000000  0.4504690000000 1.0
C      1  0.5641740000000  0.5694410000000  0.5495390000000 1.0
C      1  0.5644190000000  0.4308880000000  0.4504170000000 1.0
C      1  0.4363500000000  0.5483940000000  0.4315130000000 1.0
C      1  0.4353770000000  0.4501090000000  0.5698080000000 1.0
C      1  0.5641270000000  0.5497980000000  0.5693560000000 1.0
C      1  0.5630890000000  0.4512720000000  0.4314980000000 1.0
C      1  0.4533220000000  0.5377860000000  0.5666290000000 1.0
C      1  0.4515890000000  0.4587740000000  0.4371960000000 1.0
C      1  0.5472320000000  0.4589770000000  0.5652220000000 1.0
C      1  0.5480700000000  0.5406550000000  0.4348930000000 1.0
C      1  0.4518520000000  0.5653900000000  0.5379620000000 1.0
C      1  0.4524290000000  0.4359100000000  0.4594430000000 1.0
C      1  0.5489700000000  0.5636410000000  0.4587750000000 1.0
C      1  0.5487770000000  0.4370490000000  0.5404280000000 1.0
C      1  0.4910110000000  0.4761360000000  0.4563340000000 1.0
C      1  0.4904230000000  0.5223140000000  0.5427690000000 1.0
C      1  0.5100780000000  0.5185930000000  0.4575990000000 1.0
C      1  0.5083140000000  0.4772860000000  0.5402430000000 1.0
C      1  0.4882980000000  0.4552760000000  0.4757230000000 1.0
C      1  0.4868940000000  0.5427870000000  0.5203110000000 1.0
C      1  0.5127700000000  0.4576140000000  0.5167040000000 1.0
C      1  0.5090110000000  0.5450960000000  0.4715590000000 1.0
C      1  0.5844690000000  0.4646280000000  0.5116120000000 1.0
C      1  0.5842490000000  0.5351580000000  0.4884330000000 1.0
C      1  0.4157200000000  0.5345900000000  0.5128150000000 1.0
C      1  0.4157030000000  0.4605890000000  0.4787140000000 1.0
C      1  0.5840860000000  0.5207000000000  0.4607250000000 1.0
C      1  0.5831270000000  0.4798140000000  0.5396070000000 1.0
C      1  0.4163360000000  0.5229840000000  0.5400350000000 1.0
C      1  0.4149030000000  0.4885480000000  0.4642060000000 1.0
C      1  0.4858920000000  0.5165700000000  0.4120720000000 1.0
C      1  0.4856060000000  0.4832130000000  0.5881450000000 1.0
C      1  0.5141980000000  0.4840260000000  0.4115630000000 1.0
C      1  0.5154150000000  0.5165920000000  0.5885880000000 1.0
C      1  0.4858100000000  0.4127060000000  0.5164440000000 1.0
C      1  0.4857300000000  0.5887090000000  0.4837980000000 1.0
C      1  0.5143400000000  0.4114190000000  0.4839980000000 1.0
C      1  0.5140510000000  0.5885490000000  0.5167180000000 1.0
C      1  0.5080040000000  0.4283590000000  0.4462120000000 1.0
C      1  0.5076400000000  0.5711330000000  0.5536900000000 1.0
C      1  0.4922290000000  0.5726650000000  0.4450500000000 1.0
C      1  0.4923640000000  0.4288410000000  0.5537390000000 1.0
C      1  0.5072550000000  0.4463660000000  0.4289390000000 1.0
C      1  0.5078120000000  0.5545380000000  0.5720020000000 1.0
C      1  0.4918400000000  0.4458180000000  0.5718300000000 1.0
C      1  0.4923250000000  0.5537270000000  0.4285180000000 1.0
C      1  0.4239210000000  0.5011880000000  0.4394000000000 1.0
C      1  0.4251010000000  0.4999240000000  0.5594220000000 1.0
C      1  0.5757120000000  0.4978490000000  0.4399270000000 1.0
C      1  0.5751310000000  0.5011980000000  0.5604230000000 1.0
C      1  0.4244700000000  0.4400550000000  0.5008670000000 1.0
C      1  0.4240080000000  0.5593610000000  0.4977670000000 1.0
C      1  0.5768260000000  0.4396050000000  0.4974210000000 1.0
C      1  0.5754140000000  0.5598580000000  0.5023640000000 1.0
C      1  0.4750370000000  0.5743190000000  0.5060360000000 1.0
C      1  0.4750800000000  0.4260030000000  0.4939680000000 1.0
C      1  0.5252190000000  0.4259050000000  0.5062290000000 1.0
C      1  0.5239070000000  0.5739490000000  0.4940400000000 1.0
C      1  0.4754790000000  0.5057270000000  0.5748180000000 1.0
C      1  0.4766460000000  0.4941970000000  0.4260950000000 1.0
C      1  0.5242640000000  0.5064050000000  0.4260440000000 1.0
C      1  0.5262400000000  0.4933770000000  0.5769050000000 1.0
C      1  0.4874420000000  0.4738330000000  0.4070440000000 1.0
C      1  0.4881940000000  0.5253660000000  0.5927820000000 1.0
C      1  0.5125470000000  0.5261910000000  0.4068040000000 1.0
C      1  0.5121480000000  0.4736210000000  0.5931140000000 1.0
C      1  0.4877840000000  0.4073380000000  0.4740810000000 1.0
C      1  0.4872820000000  0.5932430000000  0.5261170000000 1.0
C      1  0.5123870000000  0.4071020000000  0.5260720000000 1.0
C      1  0.5122880000000  0.5930680000000  0.4733030000000 1.0
C      1  0.5418380000000  0.5257550000000  0.5944300000000 1.0
C      1  0.5407750000000  0.4757620000000  0.4071830000000 1.0
C      1  0.4587080000000  0.4749880000000  0.5940300000000 1.0
C      1  0.4587990000000  0.5239270000000  0.4069870000000 1.0
C      1  0.5411120000000  0.5935590000000  0.5243930000000 1.0
C      1  0.5410660000000  0.4069850000000  0.4757570000000 1.0
C      1  0.4588780000000  0.5929570000000  0.4758780000000 1.0
C      1  0.4590550000000  0.4067500000000  0.5242350000000 1.0
C      1  0.5386360000000  0.4769650000000  0.5435470000000 1.0
C      1  0.5408370000000  0.5214900000000  0.4583660000000 1.0
C      1  0.4605680000000  0.5222610000000  0.5423110000000 1.0
C      1  0.4616340000000  0.4777860000000  0.4583540000000 1.0
C      1  0.5366300000000  0.5431510000000  0.4761710000000 1.0
C      1  0.5408960000000  0.4587890000000  0.5213070000000 1.0
C      1  0.4595580000000  0.5421440000000  0.5220680000000 1.0
C      1  0.4608690000000  0.4584690000000  0.4777550000000 1.0
C      1  0.4799420000000  0.4207100000000  0.4501730000000 1.0
C      1  0.4780360000000  0.5775490000000  0.5482740000000 1.0
C      1  0.5206150000000  0.5793180000000  0.4498870000000 1.0
C      1  0.5206280000000  0.4220090000000  0.5488390000000 1.0
C      1  0.4792710000000  0.4507730000000  0.4217250000000 1.0
C      1  0.4790290000000  0.5489650000000  0.5792680000000 1.0
C      1  0.5196960000000  0.4496890000000  0.5796150000000 1.0
C      1  0.5206390000000  0.5496340000000  0.4210290000000 1.0
C      1  0.5140580000000  0.4758830000000  0.4956800000000 1.0
C      1  0.5164810000000  0.5169880000000  0.5021560000000 1.0
C      1  0.4895890000000  0.5255740000000  0.4987670000000 1.0
C      1  0.4836200000000  0.4836820000000  0.5008440000000 1.0
C      1  0.5194410000000  0.4986280000000  0.4814760000000 1.0
C      1  0.5202870000000  0.5060300000000  0.5246580000000 1.0
C      1  0.4837570000000  0.4920820000000  0.5287900000000 1.0
C      1  0.4761120000000  0.5050030000000  0.4858890000000 1.0
C      1  0.4626460000000  0.4193290000000  0.5505530000000 1.0
C      1  0.4624690000000  0.5802160000000  0.4496520000000 1.0
C      1  0.5367460000000  0.5802480000000  0.5502980000000 1.0
C      1  0.5373050000000  0.4194620000000  0.4493680000000 1.0
C      1  0.4628140000000  0.5503540000000  0.4198080000000 1.0
C      1  0.4620280000000  0.4489250000000  0.5811240000000 1.0
C      1  0.5375170000000  0.5512680000000  0.5808550000000 1.0
C      1  0.5367650000000  0.4493350000000  0.4195550000000 1.0
C      1  0.4396100000000  0.4785340000000  0.4980120000000 1.0
C      1  0.4388590000000  0.5212730000000  0.4993750000000 1.0
C      1  0.5633650000000  0.5185060000000  0.5005160000000 1.0
C      1  0.5600940000000  0.4773170000000  0.5014240000000 1.0
C      1  0.4378100000000  0.4990970000000  0.4789860000000 1.0
C      1  0.4408110000000  0.4990180000000  0.5186410000000 1.0
C      1  0.5617390000000  0.4981470000000  0.5206280000000 1.0
C      1  0.5590320000000  0.5047980000000  0.4753410000000 1.0
C      1  0.4298740000000  0.5477020000000  0.5501180000000 1.0
C      1  0.5721190000000  0.4532490000000  0.5493450000000 1.0
C      1  0.5723230000000  0.5468180000000  0.4502780000000 1.0
C      1  0.4271540000000  0.4503290000000  0.4534990000000 1.0
END
