TITL C-2441161-5029-783 0.0745373605109572 125000 -15362.7600976265 0 0 118 (C1) n - 1
REM
REM in /home/bkarasulu/work/CARBON/AIRSS/Generating-Clusters/ReaxFF-fromJPCA2015/Units_Real/with-SteepDescent/Higher-Symm
REM
REM
REM
REM
REM
REM ./C.cell (1df0a924f5614ab8850e4351716899ee)
REM
REM compiler GCC version 9.2.1 20190827 (Red Hat 9.2.1-1)
REM options -cpp -mtune=generic -march=x86-64 -g -O0 -fpre-include=/usr/include/finclude/math-vector-fortran.h
REM seed -333869576 -785730432 598452164 1686135788 1296850067 -774031843 2021254969 -711881749 1942628737 -464877337 -595320757 526985429 -1483702164 -271967200 -369940994 1273364561 667066448 625312931 -2020081922 1978880269 -1932925311 -1741202705 -67717835 602274218 -1647432450 -1275398502 389563295 1788191789 434977846 -36360404 1307372719 243562427 984191677
REM
CELL 1.54180   50.00000   50.00000   50.00000   90.00000   90.00000   90.00000
LATT -1
SFAC C  
C      1  0.4274280000000  0.5473150000000  0.4941050000000 1.0
C      1  0.4787350000000  0.5393960000000  0.4363900000000 1.0
C      1  0.4376160000000  0.4380500000000  0.5059240000000 1.0
C      1  0.4142780000000  0.4526400000000  0.5118690000000 1.0
C      1  0.5055940000000  0.5477670000000  0.5213860000000 1.0
C      1  0.5905670000000  0.4721940000000  0.4989230000000 1.0
C      1  0.5207500000000  0.5471820000000  0.4768730000000 1.0
C      1  0.4922480000000  0.4322740000000  0.5169570000000 1.0
C      1  0.4525310000000  0.5744620000000  0.5247200000000 1.0
C      1  0.4199050000000  0.5090140000000  0.4715730000000 1.0
C      1  0.5398210000000  0.5156480000000  0.5437770000000 1.0
C      1  0.5527050000000  0.5391190000000  0.4559540000000 1.0
C      1  0.4062100000000  0.4784120000000  0.5202200000000 1.0
C      1  0.5679410000000  0.5493950000000  0.5409900000000 1.0
C      1  0.4842770000000  0.4597240000000  0.5177580000000 1.0
C      1  0.5635450000000  0.5061580000000  0.4365540000000 1.0
C      1  0.5268030000000  0.5803110000000  0.5373170000000 1.0
C      1  0.4992580000000  0.4922050000000  0.5846440000000 1.0
C      1  0.4827940000000  0.5865140000000  0.4758460000000 1.0
C      1  0.4662160000000  0.5485940000000  0.5685090000000 1.0
C      1  0.4988150000000  0.5710550000000  0.5415720000000 1.0
C      1  0.5347110000000  0.5287700000000  0.4947710000000 1.0
C      1  0.5583310000000  0.5339960000000  0.4280670000000 1.0
C      1  0.5380510000000  0.4647550000000  0.5757750000000 1.0
C      1  0.4289890000000  0.5292530000000  0.4478550000000 1.0
C      1  0.4110950000000  0.5354280000000  0.5140840000000 1.0
C      1  0.4771810000000  0.4375900000000  0.4385140000000 1.0
C      1  0.4981050000000  0.4178720000000  0.4412960000000 1.0
C      1  0.4162350000000  0.4858760000000  0.5464900000000 1.0
C      1  0.5778110000000  0.4472100000000  0.4916700000000 1.0
C      1  0.5732450000000  0.4813840000000  0.5204130000000 1.0
C      1  0.5011100000000  0.5800860000000  0.4568620000000 1.0
C      1  0.4333690000000  0.5096350000000  0.5408380000000 1.0
C      1  0.4892430000000  0.5438300000000  0.4972430000000 1.0
C      1  0.4958490000000  0.5898090000000  0.5019530000000 1.0
C      1  0.4471720000000  0.4602180000000  0.4884090000000 1.0
C      1  0.5125720000000  0.4722240000000  0.4512600000000 1.0
C      1  0.4498640000000  0.5497900000000  0.4512620000000 1.0
C      1  0.5179920000000  0.4825280000000  0.4796910000000 1.0
C      1  0.4495150000000  0.5228180000000  0.4949790000000 1.0
C      1  0.5252120000000  0.5843620000000  0.5086660000000 1.0
C      1  0.5369940000000  0.4320130000000  0.4908360000000 1.0
C      1  0.4762690000000  0.4652010000000  0.4885160000000 1.0
C      1  0.4934340000000  0.4934240000000  0.4910540000000 1.0
C      1  0.4223770000000  0.4664450000000  0.4488660000000 1.0
C      1  0.4914360000000  0.4126310000000  0.4819060000000 1.0
C      1  0.5086660000000  0.4485010000000  0.4621500000000 1.0
C      1  0.5254030000000  0.5353840000000  0.4514120000000 1.0
C      1  0.4555030000000  0.4228180000000  0.5252110000000 1.0
C      1  0.4705220000000  0.4313700000000  0.5493930000000 1.0
C      1  0.4858040000000  0.5153530000000  0.4536950000000 1.0
C      1  0.4432390000000  0.4544700000000  0.4603650000000 1.0
C      1  0.5463100000000  0.5761300000000  0.4897340000000 1.0
C      1  0.4507190000000  0.4999100000000  0.5841970000000 1.0
C      1  0.4688340000000  0.4827610000000  0.5534790000000 1.0
C      1  0.5522810000000  0.4452160000000  0.4474060000000 1.0
C      1  0.5289050000000  0.4612440000000  0.4986490000000 1.0
C      1  0.5271640000000  0.4911110000000  0.5834070000000 1.0
C      1  0.5431600000000  0.4894320000000  0.4227070000000 1.0
C      1  0.5298760000000  0.5327870000000  0.5225240000000 1.0
C      1  0.4565860000000  0.5698760000000  0.4715150000000 1.0
C      1  0.4374000000000  0.5050360000000  0.5127030000000 1.0
C      1  0.4870920000000  0.4864930000000  0.4397970000000 1.0
C      1  0.5149210000000  0.4178250000000  0.5243330000000 1.0
C      1  0.5630210000000  0.4280430000000  0.5059930000000 1.0
C      1  0.4342550000000  0.4624230000000  0.5464760000000 1.0
C      1  0.4457660000000  0.5056140000000  0.4401030000000 1.0
C      1  0.5171360000000  0.4105930000000  0.4965640000000 1.0
C      1  0.5272640000000  0.5755180000000  0.4682390000000 1.0
C      1  0.4685240000000  0.4646890000000  0.4284690000000 1.0
C      1  0.4888450000000  0.5187690000000  0.4792590000000 1.0
C      1  0.5793300000000  0.5302190000000  0.4838520000000 1.0
C      1  0.5212730000000  0.5194030000000  0.5648270000000 1.0
C      1  0.4891890000000  0.4435210000000  0.5673850000000 1.0
C      1  0.5597690000000  0.4581230000000  0.5586190000000 1.0
C      1  0.5076680000000  0.4745580000000  0.5315360000000 1.0
C      1  0.5182000000000  0.4436070000000  0.5684430000000 1.0
C      1  0.4853450000000  0.5247270000000  0.4102560000000 1.0
C      1  0.4103380000000  0.5066450000000  0.5010650000000 1.0
C      1  0.4471670000000  0.5006420000000  0.4695490000000 1.0
C      1  0.5293750000000  0.4296920000000  0.4566240000000 1.0
C      1  0.5667330000000  0.5212140000000  0.5550580000000 1.0
C      1  0.4812390000000  0.5133360000000  0.5332930000000 1.0
C      1  0.4409630000000  0.4775010000000  0.4288260000000 1.0
C      1  0.5704310000000  0.4569640000000  0.4664320000000 1.0
C      1  0.4931890000000  0.5591770000000  0.5697590000000 1.0
C      1  0.4414860000000  0.5719980000000  0.4968780000000 1.0
C      1  0.4871960000000  0.5635400000000  0.4425950000000 1.0
C      1  0.5852810000000  0.4816190000000  0.4714240000000 1.0
C      1  0.4848480000000  0.4409660000000  0.4714460000000 1.0
C      1  0.5355130000000  0.4633900000000  0.4327720000000 1.0
C      1  0.5776210000000  0.5075980000000  0.4625150000000 1.0
C      1  0.5205520000000  0.5495270000000  0.5704340000000 1.0
C      1  0.5195130000000  0.5007730000000  0.4087250000000 1.0
C      1  0.5134770000000  0.5294500000000  0.4042610000000 1.0
C      1  0.5668570000000  0.4335450000000  0.5333880000000 1.0
C      1  0.4697220000000  0.5211210000000  0.5816480000000 1.0
C      1  0.4904670000000  0.4958280000000  0.4123140000000 1.0
C      1  0.5813610000000  0.5292370000000  0.5143920000000 1.0
C      1  0.4692160000000  0.5318140000000  0.5141220000000 1.0
C      1  0.4245110000000  0.5376260000000  0.5401330000000 1.0
C      1  0.4469980000000  0.5556430000000  0.5469500000000 1.0
C      1  0.5465680000000  0.4823350000000  0.5066390000000 1.0
C      1  0.6057970000000  0.5204540000000  0.5134770000000 1.0
C      1  0.4467640000000  0.4746430000000  0.5729670000000 1.0
C      1  0.4785210000000  0.5865000000000  0.5242050000000 1.0
C      1  0.4918720000000  0.5162600000000  0.5612230000000 1.0
C      1  0.5769290000000  0.4984510000000  0.5424280000000 1.0
C      1  0.4590110000000  0.4682020000000  0.5318140000000 1.0
C      1  0.5410350000000  0.5616600000000  0.5532340000000 1.0
C      1  0.5635680000000  0.5536950000000  0.4786080000000 1.0
C      1  0.4998180000000  0.4982500000000  0.5181250000000 1.0
C      1  0.5503570000000  0.4506970000000  0.5374030000000 1.0
C      1  0.4751760000000  0.4111350000000  0.5064670000000 1.0
C      1  0.5246560000000  0.4398580000000  0.5406310000000 1.0
C      1  0.4942820000000  0.4746850000000  0.5606160000000 1.0
C      1  0.5388270000000  0.5017880000000  0.4874880000000 1.0
C      1  0.5305980000000  0.5424340000000  0.4242340000000 1.0
END
