TITL C-2441166-8118-1442 0.0110658533672612 125000 -11960.6215084777 0 0 83 (C1) n - 1
REM
REM in /home/bkarasulu/work/CARBON/AIRSS/Generating-Clusters/ReaxFF-fromJPCA2015/Units_Real/with-SteepDescent/Higher-Symm
REM
REM
REM
REM
REM
REM ./C.cell (1df0a924f5614ab8850e4351716899ee)
REM
REM compiler GCC version 9.2.1 20190827 (Red Hat 9.2.1-1)
REM options -cpp -mtune=generic -march=x86-64 -g -O0 -fpre-include=/usr/include/finclude/math-vector-fortran.h
REM seed 569006475 464332974 54863926 -1497792691 -209651436 736030473 2104739444 2092696037 -1395738203 -441320982 -970143689 1541193759 -1136709175 -1319648732 -1737501768 -668236541 14820219 -753764337 1823950206 1985179093 -1010707651 -345624697 1209031212 1051508451 -681467858 539474261 -2065905198 -850936987 1309120828 -1616625653 -871745584 909442411 743592959
REM
CELL 1.54180   50.00000   50.00000   50.00000   90.00000   90.00000   90.00000
LATT -1
SFAC C  
C      1  0.5209120000000  0.4106820000000  0.5002040000000 1.0
C      1  0.4789610000000  0.4122570000000  0.4988690000000 1.0
C      1  0.4800700000000  0.5877290000000  0.5011980000000 1.0
C      1  0.5221760000000  0.5879210000000  0.4992700000000 1.0
C      1  0.5002250000000  0.4118880000000  0.5206980000000 1.0
C      1  0.5001210000000  0.4121410000000  0.4786230000000 1.0
C      1  0.5012780000000  0.5871700000000  0.4790110000000 1.0
C      1  0.5009780000000  0.5860920000000  0.5211700000000 1.0
C      1  0.4943350000000  0.5686490000000  0.5445000000000 1.0
C      1  0.5052150000000  0.5678980000000  0.4572150000000 1.0
C      1  0.5035180000000  0.4310870000000  0.5422270000000 1.0
C      1  0.4951670000000  0.4299900000000  0.4552760000000 1.0
C      1  0.5468410000000  0.5730490000000  0.4930540000000 1.0
C      1  0.4573450000000  0.5694140000000  0.5047970000000 1.0
C      1  0.5454070000000  0.4266370000000  0.5061190000000 1.0
C      1  0.4576430000000  0.4319000000000  0.4957020000000 1.0
C      1  0.5279150000000  0.4455000000000  0.5489750000000 1.0
C      1  0.4710520000000  0.4448050000000  0.4490640000000 1.0
C      1  0.4698050000000  0.5535340000000  0.5498270000000 1.0
C      1  0.5301460000000  0.5539360000000  0.4504170000000 1.0
C      1  0.5493130000000  0.4430810000000  0.5297020000000 1.0
C      1  0.4511820000000  0.4456630000000  0.4707710000000 1.0
C      1  0.5515530000000  0.5539500000000  0.4710170000000 1.0
C      1  0.4497090000000  0.5534380000000  0.5279700000000 1.0
C      1  0.5113810000000  0.5474380000000  0.5545180000000 1.0
C      1  0.4811700000000  0.5504970000000  0.4551970000000 1.0
C      1  0.4822310000000  0.4504860000000  0.5410750000000 1.0
C      1  0.5124430000000  0.4529200000000  0.4494180000000 1.0
C      1  0.5474250000000  0.5533510000000  0.5144550000000 1.0
C      1  0.4597370000000  0.5498360000000  0.4825190000000 1.0
C      1  0.5505630000000  0.4459450000000  0.4847000000000 1.0
C      1  0.4560770000000  0.4490350000000  0.5201800000000 1.0
C      1  0.4945380000000  0.4737000000000  0.5321920000000 1.0
C      1  0.5027070000000  0.4786010000000  0.4616700000000 1.0
C      1  0.5057640000000  0.5212830000000  0.5381270000000 1.0
C      1  0.4906440000000  0.5229370000000  0.4495550000000 1.0
C      1  0.5366640000000  0.4697730000000  0.4939990000000 1.0
C      1  0.4493720000000  0.4762500000000  0.5113390000000 1.0
C      1  0.5290810000000  0.5329230000000  0.5016070000000 1.0
C      1  0.4636750000000  0.5220860000000  0.4925330000000 1.0
C      1  0.4615430000000  0.5019840000000  0.5186950000000 1.0
C      1  0.5459230000000  0.4903960000000  0.4756680000000 1.0
C      1  0.5449830000000  0.5118800000000  0.5129940000000 1.0
C      1  0.4398960000000  0.5138850000000  0.4779630000000 1.0
C      1  0.5262720000000  0.4955390000000  0.4581680000000 1.0
C      1  0.4829990000000  0.4985470000000  0.5400450000000 1.0
C      1  0.5326730000000  0.5075400000000  0.5383390000000 1.0
C      1  0.4802160000000  0.4969620000000  0.4575050000000 1.0
C      1  0.4745400000000  0.4683920000000  0.4283180000000 1.0
C      1  0.5263910000000  0.4691240000000  0.5678210000000 1.0
C      1  0.5296350000000  0.5320540000000  0.4306320000000 1.0
C      1  0.4719630000000  0.5307510000000  0.5699200000000 1.0
C      1  0.4317300000000  0.4681120000000  0.4736690000000 1.0
C      1  0.5725470000000  0.4647850000000  0.5273000000000 1.0
C      1  0.4307990000000  0.5304910000000  0.5240080000000 1.0
C      1  0.5692110000000  0.5307060000000  0.4754210000000 1.0
C      1  0.4364820000000  0.5510260000000  0.4580250000000 1.0
C      1  0.5587860000000  0.5535490000000  0.5416700000000 1.0
C      1  0.5637150000000  0.4449650000000  0.4565870000000 1.0
C      1  0.4365380000000  0.4455220000000  0.5474610000000 1.0
C      1  0.4534930000000  0.5539290000000  0.4363170000000 1.0
C      1  0.5398510000000  0.5511650000000  0.5547650000000 1.0
C      1  0.4579270000000  0.4506630000000  0.5644060000000 1.0
C      1  0.5406940000000  0.4497390000000  0.4389060000000 1.0
C      1  0.4599950000000  0.5066400000000  0.5600770000000 1.0
C      1  0.5439520000000  0.5084030000000  0.4383420000000 1.0
C      1  0.5442540000000  0.4922280000000  0.5617810000000 1.0
C      1  0.4582680000000  0.4907970000000  0.4383360000000 1.0
C      1  0.5651610000000  0.5068770000000  0.4596950000000 1.0
C      1  0.4391400000000  0.5083720000000  0.5400620000000 1.0
C      1  0.5669050000000  0.4846730000000  0.5465330000000 1.0
C      1  0.4372310000000  0.4918190000000  0.4586420000000 1.0
C      1  0.5786900000000  0.4862960000000  0.5089710000000 1.0
C      1  0.4248030000000  0.4817760000000  0.4989410000000 1.0
C      1  0.4234130000000  0.5115660000000  0.5016940000000 1.0
C      1  0.5722810000000  0.5126750000000  0.5004980000000 1.0
C      1  0.5063660000000  0.4870930000000  0.5794500000000 1.0
C      1  0.4961420000000  0.4867100000000  0.4201400000000 1.0
C      1  0.5052110000000  0.5153760000000  0.4248980000000 1.0
C      1  0.4938810000000  0.5142720000000  0.5824820000000 1.0
C      1  0.5009010000000  0.5262570000000  0.5066460000000 1.0
C      1  0.5083240000000  0.4738620000000  0.5064380000000 1.0
C      1  0.5048890000000  0.4999370000000  0.4959230000000 1.0
END
