TITL C-2441159-1093-388 0.048473436723161 125000 -13060.4446500186 0 0 101 (C1) n - 1
REM
REM in /home/bkarasulu/work/CARBON/AIRSS/Generating-Clusters/ReaxFF-fromJPCA2015/Units_Real/with-SteepDescent/Higher-Symm
REM
REM
REM
REM
REM
REM ./C.cell (1df0a924f5614ab8850e4351716899ee)
REM
REM compiler GCC version 9.2.1 20190827 (Red Hat 9.2.1-1)
REM options -cpp -mtune=generic -march=x86-64 -g -O0 -fpre-include=/usr/include/finclude/math-vector-fortran.h
REM seed -215168307 1836978238 350425613 -95198930 -153850181 -492524789 2008640399 826135463 862309274 583748959 1602580684 -1424041278 -1504242590 -922170302 -28449259 486350412 -2047652474 -24355692 153914791 81626096 457540909 -1211017479 548791517 -799190431 -348898838 1309331107 845679589 798571816 254339563 -78184816 -845987219 -326932057 504280860
REM
CELL 1.54180   50.00000   50.00000   50.00000   90.00000   90.00000   90.00000
LATT -1
SFAC C  
C      1  0.5052840000000  0.4198330000000  0.5123220000000 1.0
C      1  0.5052840000000  0.4866270000000  0.4194120000000 1.0
C      1  0.5081870000000  0.5835020000000  0.4826350000000 1.0
C      1  0.5061410000000  0.5124700000000  0.5831810000000 1.0
C      1  0.5067060000000  0.4182180000000  0.4845090000000 1.0
C      1  0.5078710000000  0.4832140000000  0.5826990000000 1.0
C      1  0.5059310000000  0.5831410000000  0.5114600000000 1.0
C      1  0.5059580000000  0.5140030000000  0.4179520000000 1.0
C      1  0.5337590000000  0.5501440000000  0.5661070000000 1.0
C      1  0.5239100000000  0.4314400000000  0.5505340000000 1.0
C      1  0.5244900000000  0.4489420000000  0.4299290000000 1.0
C      1  0.5300440000000  0.5670810000000  0.4519680000000 1.0
C      1  0.5254240000000  0.5509200000000  0.4308410000000 1.0
C      1  0.5339150000000  0.4330410000000  0.4495520000000 1.0
C      1  0.5305410000000  0.4521720000000  0.5664890000000 1.0
C      1  0.5250740000000  0.5708010000000  0.5512210000000 1.0
C      1  0.4486980000000  0.4260020000000  0.5169160000000 1.0
C      1  0.4494490000000  0.4830950000000  0.4259670000000 1.0
C      1  0.4479210000000  0.5737800000000  0.4840140000000 1.0
C      1  0.4471510000000  0.5157480000000  0.5739820000000 1.0
C      1  0.4476990000000  0.4263520000000  0.4842050000000 1.0
C      1  0.4471520000000  0.4844820000000  0.5737690000000 1.0
C      1  0.4494890000000  0.5734940000000  0.5167990000000 1.0
C      1  0.4491250000000  0.5164740000000  0.4257180000000 1.0
C      1  0.5513680000000  0.5687290000000  0.4704540000000 1.0
C      1  0.5520030000000  0.5292740000000  0.5685210000000 1.0
C      1  0.5467180000000  0.4318970000000  0.5320850000000 1.0
C      1  0.5473710000000  0.4676450000000  0.4312630000000 1.0
C      1  0.5478130000000  0.5691210000000  0.5322080000000 1.0
C      1  0.5479530000000  0.5320600000000  0.4315280000000 1.0
C      1  0.5533900000000  0.4298290000000  0.4696920000000 1.0
C      1  0.5521500000000  0.4701310000000  0.5689760000000 1.0
C      1  0.4895450000000  0.4493140000000  0.4288210000000 1.0
C      1  0.4820720000000  0.5688290000000  0.4508800000000 1.0
C      1  0.4836250000000  0.5470670000000  0.5682730000000 1.0
C      1  0.4891170000000  0.4289390000000  0.5504640000000 1.0
C      1  0.4811740000000  0.4529220000000  0.5670820000000 1.0
C      1  0.4902540000000  0.5692790000000  0.5478560000000 1.0
C      1  0.4890890000000  0.5498270000000  0.4285710000000 1.0
C      1  0.4806940000000  0.4320820000000  0.4520330000000 1.0
C      1  0.4434760000000  0.4536180000000  0.5263230000000 1.0
C      1  0.4442760000000  0.4737570000000  0.4534690000000 1.0
C      1  0.4448050000000  0.5467430000000  0.4735560000000 1.0
C      1  0.4452310000000  0.5257540000000  0.5466670000000 1.0
C      1  0.4448440000000  0.4538290000000  0.4744470000000 1.0
C      1  0.4442680000000  0.4742780000000  0.5462650000000 1.0
C      1  0.4436300000000  0.5463250000000  0.5266170000000 1.0
C      1  0.4446690000000  0.5261490000000  0.4531850000000 1.0
C      1  0.4967780000000  0.5232720000000  0.5569970000000 1.0
C      1  0.4911990000000  0.4414980000000  0.5243560000000 1.0
C      1  0.4914790000000  0.4753030000000  0.4416300000000 1.0
C      1  0.4945470000000  0.5582390000000  0.4749180000000 1.0
C      1  0.4949300000000  0.5243570000000  0.4429490000000 1.0
C      1  0.4935810000000  0.4429310000000  0.4756450000000 1.0
C      1  0.4956000000000  0.4761380000000  0.5566100000000 1.0
C      1  0.4956820000000  0.5574610000000  0.5210130000000 1.0
C      1  0.5556410000000  0.5205750000000  0.5397390000000 1.0
C      1  0.5578560000000  0.4575990000000  0.5210500000000 1.0
C      1  0.5574680000000  0.4787060000000  0.4577710000000 1.0
C      1  0.5568250000000  0.5409170000000  0.4803800000000 1.0
C      1  0.5560120000000  0.5212120000000  0.4579560000000 1.0
C      1  0.5584830000000  0.4579700000000  0.4788790000000 1.0
C      1  0.5570840000000  0.4798430000000  0.5410950000000 1.0
C      1  0.5531290000000  0.5423650000000  0.5201510000000 1.0
C      1  0.5301330000000  0.4882520000000  0.4615680000000 1.0
C      1  0.5273440000000  0.5425090000000  0.4866450000000 1.0
C      1  0.5264950000000  0.5140450000000  0.5400340000000 1.0
C      1  0.5312420000000  0.4607550000000  0.5101640000000 1.0
C      1  0.5281110000000  0.4866360000000  0.5405880000000 1.0
C      1  0.5226930000000  0.5431500000000  0.5137100000000 1.0
C      1  0.5267450000000  0.5138610000000  0.4593830000000 1.0
C      1  0.5287070000000  0.4566460000000  0.4845890000000 1.0
C      1  0.5354200000000  0.5149270000000  0.5882530000000 1.0
C      1  0.5341010000000  0.4124640000000  0.5147790000000 1.0
C      1  0.5340610000000  0.4853700000000  0.4122820000000 1.0
C      1  0.5371870000000  0.5894230000000  0.4855220000000 1.0
C      1  0.5348990000000  0.5153100000000  0.4118760000000 1.0
C      1  0.5355960000000  0.4120940000000  0.4849780000000 1.0
C      1  0.5372460000000  0.4850660000000  0.5898670000000 1.0
C      1  0.5346480000000  0.5886320000000  0.5150100000000 1.0
C      1  0.4714320000000  0.5156740000000  0.4624640000000 1.0
C      1  0.4666820000000  0.5311880000000  0.5127650000000 1.0
C      1  0.4712520000000  0.4848830000000  0.5369690000000 1.0
C      1  0.4716050000000  0.4634530000000  0.4851250000000 1.0
C      1  0.4714910000000  0.5140200000000  0.5368990000000 1.0
C      1  0.4717640000000  0.5368680000000  0.4837000000000 1.0
C      1  0.4712710000000  0.4847250000000  0.4624690000000 1.0
C      1  0.4707470000000  0.4624690000000  0.5154900000000 1.0
C      1  0.4651470000000  0.5357030000000  0.4126400000000 1.0
C      1  0.4663160000000  0.5867290000000  0.5354510000000 1.0
C      1  0.4622560000000  0.4632720000000  0.5884510000000 1.0
C      1  0.4614750000000  0.4108700000000  0.4630670000000 1.0
C      1  0.4629840000000  0.5371460000000  0.5877950000000 1.0
C      1  0.4618430000000  0.5886410000000  0.4626460000000 1.0
C      1  0.4652160000000  0.4641500000000  0.4116060000000 1.0
C      1  0.4647450000000  0.4117390000000  0.5358240000000 1.0
C      1  0.5134680000000  0.4797500000000  0.4809550000000 1.0
C      1  0.5117300000000  0.4821760000000  0.5146370000000 1.0
C      1  0.5138870000000  0.5189660000000  0.4838880000000 1.0
C      1  0.5096050000000  0.5133310000000  0.5124110000000 1.0
C      1  0.4486790000000  0.5044390000000  0.5013120000000 1.0
END
