TITL C-2441159-1093-311 0.0152622365652493 125000 -21774.0400384639 0 0 146 (C1) n - 1
REM
REM in /home/bkarasulu/work/CARBON/AIRSS/Generating-Clusters/ReaxFF-fromJPCA2015/Units_Real/with-SteepDescent/Higher-Symm
REM
REM
REM
REM
REM
REM ./C.cell (1df0a924f5614ab8850e4351716899ee)
REM
REM compiler GCC version 9.2.1 20190827 (Red Hat 9.2.1-1)
REM options -cpp -mtune=generic -march=x86-64 -g -O0 -fpre-include=/usr/include/finclude/math-vector-fortran.h
REM seed 1906675697 175090114 -1032371188 -1214610401 -1709211270 1384371284 552222014 -995117634 -2126775056 -387419583 -1058633484 -621201056 -726795138 -1085447959 -961798492 1066977739 1215802950 -1514459670 1916131397 212585751 2122296341 1157718248 1051747040 -288232519 491154401 514898251 -2071531907 315830120 299758133 -339664653 -1454113987 -2118674860 -814254481
REM
CELL 1.54180   50.00000   50.00000   50.00000   90.00000   90.00000   90.00000
LATT -1
SFAC C  
C      1  0.5454640000000  0.5797590000000  0.4310890000000 1.0
C      1  0.5920800000000  0.4891350000000  0.4393790000000 1.0
C      1  0.5119440000000  0.4112270000000  0.4360840000000 1.0
C      1  0.4172170000000  0.4611210000000  0.4329980000000 1.0
C      1  0.4389710000000  0.5680510000000  0.4314700000000 1.0
C      1  0.4538220000000  0.5889590000000  0.4769850000000 1.0
C      1  0.5735910000000  0.5734900000000  0.4757800000000 1.0
C      1  0.5895530000000  0.4485270000000  0.4731510000000 1.0
C      1  0.4809890000000  0.4018260000000  0.4764420000000 1.0
C      1  0.3989750000000  0.4829560000000  0.4779220000000 1.0
C      1  0.5524990000000  0.4653880000000  0.4493350000000 1.0
C      1  0.4828320000000  0.4442700000000  0.4515870000000 1.0
C      1  0.4366880000000  0.4972750000000  0.4516740000000 1.0
C      1  0.4781310000000  0.5535920000000  0.4521000000000 1.0
C      1  0.5425050000000  0.5449940000000  0.4631300000000 1.0
C      1  0.4114200000000  0.4839680000000  0.4513920000000 1.0
C      1  0.4597670000000  0.5757340000000  0.4510340000000 1.0
C      1  0.5616120000000  0.5657680000000  0.4507340000000 1.0
C      1  0.5815910000000  0.4631940000000  0.4490110000000 1.0
C      1  0.4865300000000  0.4157130000000  0.4503910000000 1.0
C      1  0.5093910000000  0.4312880000000  0.4906830000000 1.0
C      1  0.4379230000000  0.4733070000000  0.4920120000000 1.0
C      1  0.4549620000000  0.5508990000000  0.4931380000000 1.0
C      1  0.5313470000000  0.5649480000000  0.4852030000000 1.0
C      1  0.5734220000000  0.4841450000000  0.4852350000000 1.0
C      1  0.5720230000000  0.4440140000000  0.5241300000000 1.0
C      1  0.4721510000000  0.4136240000000  0.5239900000000 1.0
C      1  0.3977460000000  0.4992010000000  0.5242260000000 1.0
C      1  0.4675810000000  0.5972490000000  0.5236050000000 1.0
C      1  0.5814670000000  0.5545340000000  0.5211750000000 1.0
C      1  0.5401000000000  0.4166520000000  0.4433090000000 1.0
C      1  0.4291260000000  0.4340300000000  0.4396370000000 1.0
C      1  0.4161010000000  0.5495270000000  0.4378440000000 1.0
C      1  0.5200200000000  0.5955310000000  0.4366560000000 1.0
C      1  0.5930800000000  0.5175630000000  0.4484180000000 1.0
C      1  0.5584650000000  0.5342970000000  0.5635780000000 1.0
C      1  0.5515590000000  0.4550320000000  0.5675480000000 1.0
C      1  0.4741900000000  0.4380290000000  0.5670810000000 1.0
C      1  0.4343270000000  0.5056810000000  0.5664830000000 1.0
C      1  0.4848360000000  0.5643000000000  0.5669320000000 1.0
C      1  0.5947250000000  0.4623390000000  0.5255770000000 1.0
C      1  0.4994860000000  0.4011010000000  0.5250160000000 1.0
C      1  0.4029320000000  0.4715190000000  0.5279600000000 1.0
C      1  0.4429990000000  0.5838290000000  0.5274530000000 1.0
C      1  0.5624620000000  0.5753990000000  0.5244440000000 1.0
C      1  0.4955460000000  0.5229930000000  0.4898850000000 1.0
C      1  0.5223440000000  0.5119950000000  0.4835650000000 1.0
C      1  0.5215910000000  0.4847480000000  0.4855890000000 1.0
C      1  0.4934580000000  0.4763220000000  0.4891790000000 1.0
C      1  0.4787710000000  0.4975570000000  0.4748450000000 1.0
C      1  0.5116000000000  0.4775170000000  0.5941580000000 1.0
C      1  0.4831440000000  0.4827960000000  0.5939820000000 1.0
C      1  0.4794760000000  0.5115170000000  0.5943050000000 1.0
C      1  0.5056480000000  0.5235750000000  0.5937900000000 1.0
C      1  0.5260960000000  0.5028630000000  0.5933830000000 1.0
C      1  0.5493230000000  0.5239020000000  0.4839080000000 1.0
C      1  0.5474320000000  0.4744800000000  0.4763480000000 1.0
C      1  0.4930180000000  0.4498980000000  0.4770720000000 1.0
C      1  0.4494810000000  0.4925670000000  0.4753340000000 1.0
C      1  0.4801260000000  0.5461950000000  0.4793190000000 1.0
C      1  0.5105680000000  0.4425030000000  0.5166170000000 1.0
C      1  0.4482470000000  0.4764330000000  0.5178860000000 1.0
C      1  0.4612500000000  0.5438690000000  0.5202140000000 1.0
C      1  0.5256410000000  0.5529120000000  0.5105390000000 1.0
C      1  0.5594930000000  0.4928080000000  0.5254680000000 1.0
C      1  0.4316760000000  0.4255520000000  0.4646380000000 1.0
C      1  0.4090370000000  0.5420980000000  0.4626760000000 1.0
C      1  0.5112540000000  0.6000700000000  0.4616700000000 1.0
C      1  0.5928880000000  0.5283800000000  0.4757980000000 1.0
C      1  0.5549880000000  0.4137430000000  0.4681270000000 1.0
C      1  0.5406950000000  0.4136500000000  0.5412210000000 1.0
C      1  0.4309100000000  0.4356360000000  0.5389090000000 1.0
C      1  0.4193390000000  0.5468740000000  0.5342190000000 1.0
C      1  0.5192420000000  0.5907030000000  0.5337250000000 1.0
C      1  0.5858880000000  0.5050720000000  0.5353290000000 1.0
C      1  0.5738920000000  0.5090480000000  0.4279530000000 1.0
C      1  0.5255770000000  0.4341950000000  0.4242390000000 1.0
C      1  0.4416790000000  0.4560110000000  0.4193780000000 1.0
C      1  0.4399050000000  0.5432780000000  0.4174050000000 1.0
C      1  0.5209640000000  0.5696960000000  0.4191960000000 1.0
C      1  0.5209930000000  0.4560850000000  0.5745630000000 1.0
C      1  0.4667500000000  0.4675300000000  0.5730340000000 1.0
C      1  0.4579170000000  0.5222140000000  0.5747600000000 1.0
C      1  0.5089250000000  0.5468440000000  0.5733230000000 1.0
C      1  0.5492400000000  0.5049670000000  0.5736300000000 1.0
C      1  0.5037900000000  0.5246550000000  0.5483590000000 1.0
C      1  0.5244730000000  0.5048210000000  0.5501300000000 1.0
C      1  0.5129330000000  0.4778220000000  0.5487580000000 1.0
C      1  0.4839700000000  0.4815060000000  0.5475040000000 1.0
C      1  0.4788100000000  0.5103140000000  0.5493480000000 1.0
C      1  0.5521040000000  0.4666340000000  0.5208340000000 1.0
C      1  0.4831470000000  0.4415060000000  0.5234370000000 1.0
C      1  0.4399080000000  0.5028490000000  0.5235030000000 1.0
C      1  0.4839170000000  0.5589580000000  0.5250850000000 1.0
C      1  0.5447500000000  0.5327240000000  0.5112130000000 1.0
C      1  0.5445860000000  0.5054050000000  0.4268880000000 1.0
C      1  0.5163340000000  0.4617030000000  0.4223630000000 1.0
C      1  0.4645660000000  0.4719970000000  0.4182470000000 1.0
C      1  0.4613460000000  0.5253440000000  0.4170290000000 1.0
C      1  0.5120270000000  0.5423720000000  0.4219450000000 1.0
C      1  0.5592550000000  0.4341930000000  0.5487290000000 1.0
C      1  0.4563340000000  0.4239360000000  0.5487510000000 1.0
C      1  0.4182340000000  0.5153610000000  0.5410690000000 1.0
C      1  0.4895930000000  0.5831140000000  0.5417960000000 1.0
C      1  0.5783510000000  0.5358720000000  0.5431020000000 1.0
C      1  0.4732280000000  0.6005420000000  0.4952760000000 1.0
C      1  0.5873480000000  0.5530620000000  0.4901350000000 1.0
C      1  0.5745900000000  0.4269450000000  0.4862370000000 1.0
C      1  0.4603830000000  0.4072810000000  0.4951270000000 1.0
C      1  0.3953320000000  0.5050560000000  0.4956350000000 1.0
C      1  0.5376390000000  0.4777550000000  0.4291850000000 1.0
C      1  0.4890270000000  0.4682060000000  0.4325660000000 1.0
C      1  0.4582110000000  0.4986650000000  0.4301950000000 1.0
C      1  0.4843430000000  0.5304110000000  0.4328100000000 1.0
C      1  0.5308600000000  0.5283090000000  0.4378750000000 1.0
C      1  0.4766740000000  0.4696290000000  0.5200240000000 1.0
C      1  0.4632390000000  0.5171710000000  0.5269270000000 1.0
C      1  0.5023510000000  0.5382340000000  0.5204740000000 1.0
C      1  0.5399960000000  0.5108140000000  0.5272130000000 1.0
C      1  0.5242120000000  0.4645070000000  0.5260960000000 1.0
C      1  0.5517280000000  0.5841070000000  0.4968690000000 1.0
C      1  0.5951560000000  0.4671460000000  0.4948870000000 1.0
C      1  0.5043790000000  0.4029340000000  0.4956170000000 1.0
C      1  0.4105700000000  0.4621420000000  0.4987080000000 1.0
C      1  0.4360330000000  0.5739330000000  0.4978800000000 1.0
C      1  0.5379030000000  0.4052070000000  0.5163230000000 1.0
C      1  0.4206050000000  0.4356190000000  0.5119290000000 1.0
C      1  0.4137480000000  0.5535140000000  0.5071910000000 1.0
C      1  0.5245570000000  0.5994390000000  0.5071870000000 1.0
C      1  0.6010360000000  0.5005040000000  0.5151630000000 1.0
C      1  0.4382280000000  0.5638780000000  0.5484250000000 1.0
C      1  0.5418110000000  0.5761610000000  0.5455500000000 1.0
C      1  0.5897450000000  0.4803770000000  0.5488700000000 1.0
C      1  0.5132660000000  0.4124530000000  0.5484640000000 1.0
C      1  0.4202970000000  0.4612640000000  0.5493520000000 1.0
C      1  0.5024260000000  0.4330110000000  0.5668580000000 1.0
C      1  0.4376210000000  0.4777420000000  0.5670540000000 1.0
C      1  0.4592120000000  0.5529820000000  0.5673100000000 1.0
C      1  0.5382180000000  0.5545710000000  0.5648770000000 1.0
C      1  0.5657970000000  0.4796530000000  0.5668110000000 1.0
C      1  0.4018830000000  0.5345900000000  0.4880730000000 1.0
C      1  0.5027140000000  0.6044490000000  0.4875220000000 1.0
C      1  0.5841120000000  0.5081530000000  0.4936230000000 1.0
C      1  0.5487330000000  0.4179870000000  0.4952180000000 1.0
C      1  0.4333240000000  0.4177310000000  0.4916950000000 1.0
C      1  0.4843420000000  0.5000420000000  0.4453990000000 1.0
END
