TITL C-2441168-9922-879 0.0944387811308817 125000 -21719.0714300536 0 0 162 (C1) n - 1
REM
REM in /home/bkarasulu/work/CARBON/AIRSS/Generating-Clusters/ReaxFF-fromJPCA2015/Units_Real/with-SteepDescent/Higher-Symm
REM
REM
REM
REM
REM
REM ./C.cell (1df0a924f5614ab8850e4351716899ee)
REM
REM compiler GCC version 9.2.1 20190827 (Red Hat 9.2.1-1)
REM options -cpp -mtune=generic -march=x86-64 -g -O0 -fpre-include=/usr/include/finclude/math-vector-fortran.h
REM seed 1574897796 1895379673 -1409196525 1981961955 -213788126 1936656689 1802230490 -515543654 -1685518921 -1441632423 -28579514 2104979054 1444842791 -673741850 1863714541 -1764647291 -1945463604 1766820979 -786353417 -108992540 1080799048 934451167 -462808953 1162644098 1144515395 -865138601 1812762401 675424047 1633682985 1760541502 -1954560513 -453514243 1296109820
REM
CELL 1.54180   50.00000   50.00000   50.00000   90.00000   90.00000   90.00000
LATT -1
SFAC C  
C      1  0.5523100000000  0.4229690000000  0.5318320000000 1.0
C      1  0.4027970000000  0.4505560000000  0.5091990000000 1.0
C      1  0.5172910000000  0.5558540000000  0.5201550000000 1.0
C      1  0.5637650000000  0.5079480000000  0.5198890000000 1.0
C      1  0.5388290000000  0.4841500000000  0.5964840000000 1.0
C      1  0.6027510000000  0.5215060000000  0.4829310000000 1.0
C      1  0.5087080000000  0.4222730000000  0.4430730000000 1.0
C      1  0.5346470000000  0.5818190000000  0.5177730000000 1.0
C      1  0.4678010000000  0.5576760000000  0.4112620000000 1.0
C      1  0.5471580000000  0.5245330000000  0.4268400000000 1.0
C      1  0.4202350000000  0.5226010000000  0.5123510000000 1.0
C      1  0.5951110000000  0.4759580000000  0.5393540000000 1.0
C      1  0.4825740000000  0.4765440000000  0.4475260000000 1.0
C      1  0.4515680000000  0.4838410000000  0.5675240000000 1.0
C      1  0.5805600000000  0.4511690000000  0.5381740000000 1.0
C      1  0.5206780000000  0.4890070000000  0.5565340000000 1.0
C      1  0.5406240000000  0.4686830000000  0.5490780000000 1.0
C      1  0.4174980000000  0.5484780000000  0.5446310000000 1.0
C      1  0.4914490000000  0.5200440000000  0.4410110000000 1.0
C      1  0.5617470000000  0.5952080000000  0.4772370000000 1.0
C      1  0.6043850000000  0.4919900000000  0.4851010000000 1.0
C      1  0.4810320000000  0.5085530000000  0.3987500000000 1.0
C      1  0.5281630000000  0.4145520000000  0.4639090000000 1.0
C      1  0.5100300000000  0.5515010000000  0.4127770000000 1.0
C      1  0.5610470000000  0.4394700000000  0.4654020000000 1.0
C      1  0.5060580000000  0.4014370000000  0.5305760000000 1.0
C      1  0.4408500000000  0.4378960000000  0.5480970000000 1.0
C      1  0.4251140000000  0.5684320000000  0.5263740000000 1.0
C      1  0.5430640000000  0.4207580000000  0.5596900000000 1.0
C      1  0.4643180000000  0.4305910000000  0.4605830000000 1.0
C      1  0.5621480000000  0.5081410000000  0.4839070000000 1.0
C      1  0.5026490000000  0.4942790000000  0.4352710000000 1.0
C      1  0.5337630000000  0.5516840000000  0.4289600000000 1.0
C      1  0.5169360000000  0.4833670000000  0.4791920000000 1.0
C      1  0.4134200000000  0.4404680000000  0.4837650000000 1.0
C      1  0.5298000000000  0.5043420000000  0.4470070000000 1.0
C      1  0.4976830000000  0.4368200000000  0.5645470000000 1.0
C      1  0.5763990000000  0.5190300000000  0.4386060000000 1.0
C      1  0.5553340000000  0.4628350000000  0.5897080000000 1.0
C      1  0.4619880000000  0.4565170000000  0.4037460000000 1.0
C      1  0.5022570000000  0.4489230000000  0.5002480000000 1.0
C      1  0.4642930000000  0.5493280000000  0.5729760000000 1.0
C      1  0.5348640000000  0.5945130000000  0.4880600000000 1.0
C      1  0.4614000000000  0.4390190000000  0.4873450000000 1.0
C      1  0.5379550000000  0.5640340000000  0.5653160000000 1.0
C      1  0.5442460000000  0.4882140000000  0.4666330000000 1.0
C      1  0.4459560000000  0.5316140000000  0.5202940000000 1.0
C      1  0.5699450000000  0.4862330000000  0.4149410000000 1.0
C      1  0.5001330000000  0.4912500000000  0.5360780000000 1.0
C      1  0.5989940000000  0.5381640000000  0.5068600000000 1.0
C      1  0.4653060000000  0.5957510000000  0.4902600000000 1.0
C      1  0.5290960000000  0.4564110000000  0.5067280000000 1.0
C      1  0.5149760000000  0.4944270000000  0.6046190000000 1.0
C      1  0.4900120000000  0.4863790000000  0.5939020000000 1.0
C      1  0.4609110000000  0.5288980000000  0.4070150000000 1.0
C      1  0.4361070000000  0.5257580000000  0.4231070000000 1.0
C      1  0.4668930000000  0.5473080000000  0.5069040000000 1.0
C      1  0.5570170000000  0.4473260000000  0.5644240000000 1.0
C      1  0.5794380000000  0.5332180000000  0.5553440000000 1.0
C      1  0.4442250000000  0.4850740000000  0.4759750000000 1.0
C      1  0.5137870000000  0.4508550000000  0.4367830000000 1.0
C      1  0.4617960000000  0.4920120000000  0.4363770000000 1.0
C      1  0.5790810000000  0.5273230000000  0.4666440000000 1.0
C      1  0.4491050000000  0.4544760000000  0.5716580000000 1.0
C      1  0.4296080000000  0.5644530000000  0.4702850000000 1.0
C      1  0.4048360000000  0.5162030000000  0.4694430000000 1.0
C      1  0.4065390000000  0.4619050000000  0.5481830000000 1.0
C      1  0.5825010000000  0.5626680000000  0.5060640000000 1.0
C      1  0.4728880000000  0.5308120000000  0.5940530000000 1.0
C      1  0.4203780000000  0.5248080000000  0.5570860000000 1.0
C      1  0.5421830000000  0.5290710000000  0.4881770000000 1.0
C      1  0.4701830000000  0.5399730000000  0.4518720000000 1.0
C      1  0.5872240000000  0.5238770000000  0.5290680000000 1.0
C      1  0.4172920000000  0.5625020000000  0.4970940000000 1.0
C      1  0.5028550000000  0.4596260000000  0.4061510000000 1.0
C      1  0.4720980000000  0.4754790000000  0.5418140000000 1.0
C      1  0.4833380000000  0.5233070000000  0.5095610000000 1.0
C      1  0.4340270000000  0.5101350000000  0.4689210000000 1.0
C      1  0.5428590000000  0.4834630000000  0.4065200000000 1.0
C      1  0.5983920000000  0.4760680000000  0.5096870000000 1.0
C      1  0.5412540000000  0.5202330000000  0.5342580000000 1.0
C      1  0.5154020000000  0.4132710000000  0.5556750000000 1.0
C      1  0.4416700000000  0.4545720000000  0.4236930000000 1.0
C      1  0.4683090000000  0.5748250000000  0.5593220000000 1.0
C      1  0.4045970000000  0.4803180000000  0.5038370000000 1.0
C      1  0.5367640000000  0.4477950000000  0.5296610000000 1.0
C      1  0.5063840000000  0.5233910000000  0.3997650000000 1.0
C      1  0.4364050000000  0.4951090000000  0.4300610000000 1.0
C      1  0.4940950000000  0.5814260000000  0.4511250000000 1.0
C      1  0.5257030000000  0.5198270000000  0.5105610000000 1.0
C      1  0.4576110000000  0.4746020000000  0.5172260000000 1.0
C      1  0.4250620000000  0.4379840000000  0.5228580000000 1.0
C      1  0.4911410000000  0.5708070000000  0.4231540000000 1.0
C      1  0.4910980000000  0.5186120000000  0.5353530000000 1.0
C      1  0.5647570000000  0.4912820000000  0.5891290000000 1.0
C      1  0.5183810000000  0.3927520000000  0.4799250000000 1.0
C      1  0.4522830000000  0.5624010000000  0.4360810000000 1.0
C      1  0.5488980000000  0.5545500000000  0.4759580000000 1.0
C      1  0.5250040000000  0.5557040000000  0.5900860000000 1.0
C      1  0.4512340000000  0.5804440000000  0.4710990000000 1.0
C      1  0.4812610000000  0.4788110000000  0.3984750000000 1.0
C      1  0.4365760000000  0.4302230000000  0.4976790000000 1.0
C      1  0.4843380000000  0.4397790000000  0.4121280000000 1.0
C      1  0.5065350000000  0.5410270000000  0.4792140000000 1.0
C      1  0.5246770000000  0.3944220000000  0.5082280000000 1.0
C      1  0.4614940000000  0.6025070000000  0.5205710000000 1.0
C      1  0.5478240000000  0.4108410000000  0.5059600000000 1.0
C      1  0.5131590000000  0.5229780000000  0.4607300000000 1.0
C      1  0.5126070000000  0.5953340000000  0.5374940000000 1.0
C      1  0.5858760000000  0.4914320000000  0.4379330000000 1.0
C      1  0.4468060000000  0.5211410000000  0.5450600000000 1.0
C      1  0.5938250000000  0.4759370000000  0.4640540000000 1.0
C      1  0.4570040000000  0.5262420000000  0.4744230000000 1.0
C      1  0.5748820000000  0.5669470000000  0.4778680000000 1.0
C      1  0.5147670000000  0.5558150000000  0.5497420000000 1.0
C      1  0.4734210000000  0.4838040000000  0.4764920000000 1.0
C      1  0.5307520000000  0.5152420000000  0.5607240000000 1.0
C      1  0.5353530000000  0.5287710000000  0.5867950000000 1.0
C      1  0.4720650000000  0.5277530000000  0.5538990000000 1.0
C      1  0.5178170000000  0.4903360000000  0.5073750000000 1.0
C      1  0.4728320000000  0.4419010000000  0.5827760000000 1.0
C      1  0.4191140000000  0.4873570000000  0.5515820000000 1.0
C      1  0.4046660000000  0.5374320000000  0.4921320000000 1.0
C      1  0.5626050000000  0.5708200000000  0.5258630000000 1.0
C      1  0.3925710000000  0.4913360000000  0.4749700000000 1.0
C      1  0.4975620000000  0.5791640000000  0.5562060000000 1.0
C      1  0.4076930000000  0.5005150000000  0.5268150000000 1.0
C      1  0.4207870000000  0.4697280000000  0.4351060000000 1.0
C      1  0.5798840000000  0.4540130000000  0.5080220000000 1.0
C      1  0.4911310000000  0.6071250000000  0.5220350000000 1.0
C      1  0.4353250000000  0.4798550000000  0.5015560000000 1.0
C      1  0.5637220000000  0.5586820000000  0.5519620000000 1.0
C      1  0.5070860000000  0.4575300000000  0.4727410000000 1.0
C      1  0.5540920000000  0.4639100000000  0.4514280000000 1.0
C      1  0.5717870000000  0.5071450000000  0.5661220000000 1.0
C      1  0.5322320000000  0.5112640000000  0.4036900000000 1.0
C      1  0.4777750000000  0.4061780000000  0.5223160000000 1.0
C      1  0.4913220000000  0.5632960000000  0.5099970000000 1.0
C      1  0.4904590000000  0.4570270000000  0.6001390000000 1.0
C      1  0.5837010000000  0.4524360000000  0.4778600000000 1.0
C      1  0.4753200000000  0.4624120000000  0.4982580000000 1.0
C      1  0.4877570000000  0.4500270000000  0.5384740000000 1.0
C      1  0.4416840000000  0.4359170000000  0.4440940000000 1.0
C      1  0.4840890000000  0.4104630000000  0.4552290000000 1.0
C      1  0.4794150000000  0.4024030000000  0.4950860000000 1.0
C      1  0.4993640000000  0.5414090000000  0.6015570000000 1.0
C      1  0.4909970000000  0.3905390000000  0.4736640000000 1.0
C      1  0.4496790000000  0.5820670000000  0.5372480000000 1.0
C      1  0.5195680000000  0.5896280000000  0.4625150000000 1.0
C      1  0.4932240000000  0.5893360000000  0.4981430000000 1.0
C      1  0.4667860000000  0.4303270000000  0.5366170000000 1.0
C      1  0.4281930000000  0.5477380000000  0.4401160000000 1.0
C      1  0.4674660000000  0.5014680000000  0.5858960000000 1.0
C      1  0.4881340000000  0.5580100000000  0.4675320000000 1.0
C      1  0.4188340000000  0.4490190000000  0.4562020000000 1.0
C      1  0.5180860000000  0.5203190000000  0.6082100000000 1.0
C      1  0.5420060000000  0.4304610000000  0.4848810000000 1.0
C      1  0.5393380000000  0.4616870000000  0.4270710000000 1.0
C      1  0.4798090000000  0.5116530000000  0.4844820000000 1.0
C      1  0.5167270000000  0.4487690000000  0.5899310000000 1.0
C      1  0.5352940000000  0.5668480000000  0.4533680000000 1.0
C      1  0.5675140000000  0.4892020000000  0.5431400000000 1.0
END
