TITL C-2441154-10-514 0.236144023068434 125000 -23155.4080072366 0 0 193 (C1) n - 1
REM
REM in /home/bkarasulu/work/CARBON/AIRSS/Generating-Clusters/ReaxFF-fromJPCA2015/Units_Real/with-SteepDescent/Higher-Symm
REM
REM
REM
REM
REM
REM ./C.cell (1df0a924f5614ab8850e4351716899ee)
REM
REM compiler GCC version 9.2.1 20190827 (Red Hat 9.2.1-1)
REM options -cpp -mtune=generic -march=x86-64 -g -O0 -fpre-include=/usr/include/finclude/math-vector-fortran.h
REM seed 984550911 435417070 -1692392290 -608055004 926998772 448607971 2112160668 839179351 409716739 1759265423 274725944 -1061675978 -512023818 -779734451 -50398499 -57813468 305057675 -117837622 -1881508222 1184929130 846062868 1393214103 -1839742655 411878955 1386191567 1643955012 1048967394 -2022980530 -2012058058 -1633473643 869300715 -666384696 -1588292253
REM
CELL 1.54180   50.00000   50.00000   50.00000   90.00000   90.00000   90.00000
LATT -1
SFAC C  
C      1  0.5131390000000  0.5665090000000  0.5755320000000 1.0
C      1  0.5493090000000  0.5453690000000  0.4228040000000 1.0
C      1  0.5677050000000  0.5083120000000  0.5755490000000 1.0
C      1  0.5582260000000  0.4680740000000  0.4235660000000 1.0
C      1  0.5280340000000  0.4384900000000  0.5749850000000 1.0
C      1  0.4868850000000  0.4362320000000  0.4247150000000 1.0
C      1  0.4507830000000  0.4545480000000  0.5771930000000 1.0
C      1  0.4319490000000  0.4918800000000  0.4238490000000 1.0
C      1  0.4424990000000  0.5343810000000  0.5752440000000 1.0
C      1  0.4719870000000  0.5615530000000  0.4227230000000 1.0
C      1  0.3911040000000  0.4850110000000  0.5086480000000 1.0
C      1  0.4037520000000  0.5511630000000  0.4914290000000 1.0
C      1  0.4521770000000  0.5989500000000  0.5084490000000 1.0
C      1  0.5162470000000  0.6060870000000  0.4921870000000 1.0
C      1  0.5764140000000  0.5749630000000  0.5058290000000 1.0
C      1  0.6085420000000  0.5156890000000  0.4909390000000 1.0
C      1  0.5950510000000  0.4496740000000  0.5067350000000 1.0
C      1  0.5466600000000  0.4036530000000  0.4922740000000 1.0
C      1  0.4810450000000  0.3935980000000  0.5082010000000 1.0
C      1  0.4204370000000  0.4234590000000  0.4909880000000 1.0
C      1  0.5335060000000  0.4935190000000  0.5490010000000 1.0
C      1  0.5239250000000  0.4704320000000  0.4607460000000 1.0
C      1  0.5005260000000  0.4671850000000  0.5481700000000 1.0
C      1  0.4854220000000  0.4743010000000  0.4643690000000 1.0
C      1  0.4655390000000  0.4835140000000  0.5465990000000 1.0
C      1  0.4656750000000  0.5067890000000  0.4538560000000 1.0
C      1  0.4697980000000  0.5176570000000  0.5310080000000 1.0
C      1  0.4992190000000  0.5423920000000  0.4588000000000 1.0
C      1  0.5091000000000  0.5275370000000  0.5347770000000 1.0
C      1  0.5357610000000  0.5093730000000  0.4510940000000 1.0
C      1  0.4211920000000  0.4353420000000  0.4625020000000 1.0
C      1  0.3987020000000  0.4940240000000  0.5370720000000 1.0
C      1  0.4159490000000  0.5542280000000  0.4631050000000 1.0
C      1  0.4623970000000  0.5949790000000  0.5366720000000 1.0
C      1  0.5232220000000  0.5951350000000  0.4627170000000 1.0
C      1  0.5772610000000  0.5648140000000  0.5353990000000 1.0
C      1  0.6007190000000  0.5067030000000  0.4623410000000 1.0
C      1  0.5853000000000  0.4464130000000  0.5353020000000 1.0
C      1  0.5363880000000  0.4091440000000  0.4637680000000 1.0
C      1  0.4746920000000  0.4030610000000  0.5369690000000 1.0
C      1  0.5994070000000  0.4784680000000  0.4587550000000 1.0
C      1  0.5677290000000  0.4245720000000  0.5409530000000 1.0
C      1  0.5100870000000  0.4011440000000  0.4575750000000 1.0
C      1  0.4479360000000  0.4118970000000  0.5413980000000 1.0
C      1  0.4058730000000  0.4591830000000  0.4581560000000 1.0
C      1  0.4003930000000  0.5221440000000  0.5424890000000 1.0
C      1  0.4326440000000  0.5769510000000  0.4585890000000 1.0
C      1  0.4902400000000  0.6024940000000  0.5402830000000 1.0
C      1  0.5509740000000  0.5875590000000  0.4610800000000 1.0
C      1  0.5930110000000  0.5420150000000  0.5412750000000 1.0
C      1  0.5391880000000  0.4665560000000  0.5910230000000 1.0
C      1  0.5121050000000  0.4451660000000  0.4073260000000 1.0
C      1  0.4773130000000  0.4512340000000  0.5915010000000 1.0
C      1  0.4496710000000  0.4720940000000  0.4075480000000 1.0
C      1  0.4476410000000  0.5051660000000  0.5906280000000 1.0
C      1  0.4610900000000  0.5356630000000  0.4086020000000 1.0
C      1  0.4877390000000  0.5573300000000  0.5917330000000 1.0
C      1  0.5223470000000  0.5491290000000  0.4079990000000 1.0
C      1  0.5495690000000  0.5291500000000  0.5915060000000 1.0
C      1  0.5523350000000  0.4952290000000  0.4090020000000 1.0
C      1  0.4585910000000  0.4370810000000  0.5074980000000 1.0
C      1  0.4308100000000  0.4742940000000  0.4925560000000 1.0
C      1  0.4290910000000  0.5183680000000  0.5076520000000 1.0
C      1  0.4537320000000  0.5564440000000  0.4937590000000 1.0
C      1  0.4950130000000  0.5676780000000  0.5076330000000 1.0
C      1  0.5357880000000  0.5592610000000  0.4942740000000 1.0
C      1  0.5684300000000  0.5283360000000  0.5081770000000 1.0
C      1  0.5715790000000  0.4836790000000  0.4951120000000 1.0
C      1  0.5461280000000  0.4441630000000  0.5092040000000 1.0
C      1  0.5030590000000  0.4265840000000  0.4908920000000 1.0
C      1  0.5191740000000  0.5153010000000  0.5777060000000 1.0
C      1  0.5203750000000  0.5054470000000  0.4312990000000 1.0
C      1  0.5234130000000  0.4881990000000  0.5717740000000 1.0
C      1  0.5105750000000  0.4803450000000  0.4253510000000 1.0
C      1  0.4979430000000  0.4784570000000  0.5719020000000 1.0
C      1  0.4827190000000  0.4861930000000  0.4227660000000 1.0
C      1  0.4775610000000  0.4968820000000  0.5668050000000 1.0
C      1  0.4794210000000  0.5096630000000  0.4342040000000 1.0
C      1  0.4912450000000  0.5217200000000  0.5731970000000 1.0
C      1  0.5012420000000  0.5247670000000  0.4330510000000 1.0
C      1  0.4359150000000  0.5356780000000  0.5285760000000 1.0
C      1  0.4681650000000  0.5652420000000  0.4715680000000 1.0
C      1  0.5122360000000  0.5682200000000  0.5289050000000 1.0
C      1  0.5494330000000  0.5489860000000  0.4737950000000 1.0
C      1  0.5690520000000  0.5104920000000  0.5286200000000 1.0
C      1  0.5640030000000  0.4675800000000  0.4750200000000 1.0
C      1  0.5259970000000  0.4358710000000  0.5269620000000 1.0
C      1  0.4853020000000  0.4319110000000  0.4703260000000 1.0
C      1  0.4488130000000  0.4509910000000  0.5288090000000 1.0
C      1  0.4300240000000  0.4914590000000  0.4712940000000 1.0
C      1  0.6048420000000  0.4733910000000  0.4920450000000 1.0
C      1  0.5654380000000  0.4208040000000  0.5065910000000 1.0
C      1  0.5063540000000  0.3961450000000  0.4929260000000 1.0
C      1  0.4425180000000  0.4098320000000  0.5067740000000 1.0
C      1  0.4012450000000  0.4612490000000  0.4927580000000 1.0
C      1  0.3976540000000  0.5264250000000  0.5072310000000 1.0
C      1  0.4326540000000  0.5820740000000  0.4930040000000 1.0
C      1  0.4934370000000  0.6095510000000  0.5096610000000 1.0
C      1  0.5583840000000  0.5920220000000  0.4913190000000 1.0
C      1  0.5980000000000  0.5392610000000  0.5062820000000 1.0
C      1  0.5430170000000  0.5520390000000  0.5758930000000 1.0
C      1  0.5636180000000  0.5180340000000  0.4234310000000 1.0
C      1  0.5623880000000  0.4770930000000  0.5755130000000 1.0
C      1  0.5372040000000  0.4442220000000  0.4219680000000 1.0
C      1  0.4951530000000  0.4334910000000  0.5772090000000 1.0
C      1  0.4563630000000  0.4496700000000  0.4242430000000 1.0
C      1  0.4366990000000  0.4825000000000  0.5749440000000 1.0
C      1  0.4386730000000  0.5247040000000  0.4237050000000 1.0
C      1  0.4642170000000  0.5578260000000  0.5752030000000 1.0
C      1  0.5039810000000  0.5675490000000  0.4212100000000 1.0
C      1  0.4909310000000  0.5268580000000  0.6033070000000 1.0
C      1  0.5105230000000  0.5237320000000  0.3950160000000 1.0
C      1  0.5220630000000  0.5119280000000  0.6072090000000 1.0
C      1  0.5270970000000  0.4981040000000  0.3934680000000 1.0
C      1  0.5185750000000  0.4828410000000  0.6086690000000 1.0
C      1  0.5087650000000  0.4737480000000  0.3949970000000 1.0
C      1  0.4889650000000  0.4768400000000  0.6063070000000 1.0
C      1  0.4757450000000  0.4884680000000  0.3943100000000 1.0
C      1  0.4724360000000  0.5035120000000  0.6067570000000 1.0
C      1  0.4802780000000  0.5183630000000  0.3936540000000 1.0
C      1  0.4758840000000  0.5907140000000  0.4599140000000 1.0
C      1  0.5324410000000  0.5882810000000  0.5387250000000 1.0
C      1  0.5808010000000  0.5518170000000  0.4585710000000 1.0
C      1  0.5934240000000  0.4968860000000  0.5384150000000 1.0
C      1  0.5751860000000  0.4368110000000  0.4530370000000 1.0
C      1  0.5242300000000  0.4088050000000  0.5398980000000 1.0
C      1  0.4666430000000  0.4115940000000  0.4597940000000 1.0
C      1  0.4214650000000  0.4477240000000  0.5392430000000 1.0
C      1  0.4062070000000  0.5045330000000  0.4606020000000 1.0
C      1  0.4247320000000  0.5599880000000  0.5399400000000 1.0
C      1  0.5379320000000  0.6003280000000  0.5093500000000 1.0
C      1  0.5894290000000  0.5591350000000  0.4869160000000 1.0
C      1  0.6087340000000  0.4959000000000  0.5105560000000 1.0
C      1  0.5803550000000  0.4374690000000  0.4846830000000 1.0
C      1  0.5284410000000  0.3964970000000  0.5118950000000 1.0
C      1  0.4623220000000  0.3982280000000  0.4884330000000 1.0
C      1  0.4093290000000  0.4395640000000  0.5107530000000 1.0
C      1  0.3910280000000  0.5047640000000  0.4889460000000 1.0
C      1  0.4142690000000  0.5680320000000  0.5109950000000 1.0
C      1  0.4732200000000  0.6048470000000  0.4906370000000 1.0
C      1  0.5052460000000  0.5518190000000  0.5503960000000 1.0
C      1  0.5380530000000  0.5377380000000  0.4517980000000 1.0
C      1  0.5524010000000  0.5109150000000  0.5492340000000 1.0
C      1  0.5501390000000  0.4791460000000  0.4532880000000 1.0
C      1  0.5229560000000  0.4515330000000  0.5486530000000 1.0
C      1  0.4902400000000  0.4497850000000  0.4511800000000 1.0
C      1  0.4668040000000  0.4570000000000  0.5488590000000 1.0
C      1  0.4460480000000  0.4892870000000  0.4506630000000 1.0
C      1  0.4508560000000  0.5257380000000  0.5477370000000 1.0
C      1  0.4731210000000  0.5498590000000  0.4507550000000 1.0
C      1  0.5183990000000  0.5187590000000  0.4914600000000 1.0
C      1  0.5265240000000  0.5287240000000  0.5160510000000 1.0
C      1  0.5377160000000  0.5017760000000  0.4883040000000 1.0
C      1  0.5311910000000  0.4852290000000  0.5098210000000 1.0
C      1  0.5143310000000  0.4680780000000  0.5004880000000 1.0
C      1  0.4888760000000  0.4659740000000  0.5076880000000 1.0
C      1  0.4715020000000  0.4737930000000  0.4875660000000 1.0
C      1  0.4644450000000  0.4930970000000  0.5207090000000 1.0
C      1  0.4686790000000  0.5174280000000  0.4788710000000 1.0
C      1  0.4851140000000  0.5312080000000  0.5187720000000 1.0
C      1  0.4483280000000  0.4392930000000  0.4518890000000 1.0
C      1  0.4228010000000  0.4807370000000  0.5478740000000 1.0
C      1  0.4266290000000  0.5301360000000  0.4502240000000 1.0
C      1  0.4575530000000  0.5680810000000  0.5470170000000 1.0
C      1  0.5041220000000  0.5845780000000  0.4450370000000 1.0
C      1  0.5509030000000  0.5617390000000  0.5482630000000 1.0
C      1  0.5771840000000  0.5205090000000  0.4511300000000 1.0
C      1  0.5731620000000  0.4708040000000  0.5483980000000 1.0
C      1  0.5472570000000  0.4298940000000  0.4456840000000 1.0
C      1  0.4941620000000  0.4192110000000  0.5513900000000 1.0
C      1  0.5632860000000  0.5690600000000  0.4419500000000 1.0
C      1  0.5925380000000  0.5194630000000  0.5587700000000 1.0
C      1  0.5842300000000  0.4616640000000  0.4404530000000 1.0
C      1  0.5460060000000  0.4195800000000  0.5587380000000 1.0
C      1  0.4892050000000  0.4078850000000  0.4395030000000 1.0
C      1  0.4361200000000  0.4303960000000  0.5597090000000 1.0
C      1  0.4072780000000  0.4815310000000  0.4408030000000 1.0
C      1  0.4143600000000  0.5395180000000  0.5604060000000 1.0
C      1  0.4538390000000  0.5828260000000  0.4399160000000 1.0
C      1  0.5108090000000  0.5937300000000  0.5588470000000 1.0
C      1  0.5557150000000  0.4707280000000  0.5180640000000 1.0
C      1  0.5255170000000  0.4484660000000  0.4831110000000 1.0
C      1  0.4886180000000  0.4370630000000  0.5153390000000 1.0
C      1  0.4518570000000  0.4547250000000  0.4836960000000 1.0
C      1  0.4356240000000  0.4908160000000  0.5168830000000 1.0
C      1  0.4440300000000  0.5298690000000  0.4843380000000 1.0
C      1  0.4715970000000  0.5567030000000  0.5175770000000 1.0
C      1  0.5082560000000  0.5588550000000  0.4831060000000 1.0
C      1  0.5459070000000  0.5451170000000  0.5176550000000 1.0
C      1  0.5637370000000  0.5107950000000  0.4841330000000 1.0
C      1  0.5092900000000  0.4939540000000  0.5328640000000 1.0
C      1  0.5058850000000  0.4909930000000  0.4675750000000 1.0
C      1  0.4907970000000  0.5159480000000  0.4941260000000 1.0
END
