TITL C-2441158-471-1347 0.001849041597232 125000 -5256.64640835639 0 0 39 (C1) n - 1
REM
REM in /home/bkarasulu/work/CARBON/AIRSS/Generating-Clusters/ReaxFF-fromJPCA2015/Units_Real/with-SteepDescent/Higher-Symm
REM
REM
REM
REM
REM
REM ./C.cell (1df0a924f5614ab8850e4351716899ee)
REM
REM compiler GCC version 9.2.1 20190827 (Red Hat 9.2.1-1)
REM options -cpp -mtune=generic -march=x86-64 -g -O0 -fpre-include=/usr/include/finclude/math-vector-fortran.h
REM seed -1006573219 -577399015 27753700 -590727759 2032090530 -1873682476 1462363494 1528800932 544124272 -423650724 1474372122 598451385 256987103 -1089880078 -1564536639 1723546328 1588728559 1420306039 354786760 464953272 -203421343 -394201076 -1827938113 268539276 -1467776212 1944938568 -1842326667 -2080574845 -1678265565 -183347640 1754488856 1514645199 -542871490
REM
CELL 1.54180   50.00000   50.00000   50.00000   90.00000   90.00000   90.00000
LATT -1
SFAC C  
C      1  0.5491980000000  0.5007720000000  0.5384790000000 1.0
C      1  0.4459310000000  0.5013840000000  0.5368400000000 1.0
C      1  0.4457640000000  0.5009450000000  0.4633610000000 1.0
C      1  0.5570950000000  0.5002770000000  0.4658010000000 1.0
C      1  0.5001880000000  0.5538650000000  0.5380340000000 1.0
C      1  0.5001380000000  0.4451290000000  0.5369920000000 1.0
C      1  0.4990100000000  0.4441710000000  0.4648810000000 1.0
C      1  0.4988760000000  0.5503050000000  0.4638810000000 1.0
C      1  0.5473600000000  0.5283570000000  0.5451380000000 1.0
C      1  0.4544540000000  0.4754990000000  0.5472260000000 1.0
C      1  0.4503380000000  0.5287990000000  0.4551900000000 1.0
C      1  0.5460040000000  0.4747100000000  0.4535500000000 1.0
C      1  0.5279060000000  0.5493660000000  0.5465290000000 1.0
C      1  0.4743510000000  0.4544250000000  0.5471910000000 1.0
C      1  0.5248840000000  0.4547800000000  0.4532420000000 1.0
C      1  0.4713350000000  0.5482910000000  0.4569510000000 1.0
C      1  0.5007900000000  0.4706800000000  0.4544960000000 1.0
C      1  0.4912450000000  0.5261140000000  0.4515680000000 1.0
C      1  0.4984370000000  0.4692790000000  0.5467380000000 1.0
C      1  0.5073270000000  0.5314240000000  0.5552960000000 1.0
C      1  0.4684120000000  0.5083320000000  0.4464460000000 1.0
C      1  0.5309850000000  0.4991860000000  0.4546760000000 1.0
C      1  0.4706130000000  0.4987850000000  0.5455410000000 1.0
C      1  0.5249790000000  0.5084750000000  0.5506040000000 1.0
C      1  0.4466700000000  0.5123780000000  0.5098800000000 1.0
C      1  0.5507860000000  0.4889620000000  0.5120580000000 1.0
C      1  0.5531600000000  0.5124830000000  0.4922520000000 1.0
C      1  0.4477620000000  0.4888870000000  0.4899320000000 1.0
C      1  0.5115870000000  0.4470740000000  0.5102220000000 1.0
C      1  0.4884700000000  0.5517240000000  0.5113010000000 1.0
C      1  0.5109500000000  0.5515250000000  0.4902040000000 1.0
C      1  0.4869980000000  0.4467790000000  0.4915120000000 1.0
C      1  0.5345760000000  0.4649600000000  0.5076520000000 1.0
C      1  0.4643770000000  0.4650580000000  0.4934850000000 1.0
C      1  0.4643100000000  0.5355270000000  0.5078390000000 1.0
C      1  0.5349860000000  0.5352990000000  0.4935630000000 1.0
C      1  0.4969910000000  0.4950460000000  0.5298790000000 1.0
C      1  0.5034680000000  0.4975350000000  0.4724790000000 1.0
C      1  0.5002860000000  0.4963110000000  0.5005820000000 1.0
END
