TITL C-2441169-1362-662 0.213335899248012 125000 -17228.3631177936 0 0 156 (C1) n - 1
REM
REM in /home/bkarasulu/work/CARBON/AIRSS/Generating-Clusters/ReaxFF-fromJPCA2015/Units_Real/with-SteepDescent/Higher-Symm
REM
REM
REM
REM
REM
REM ./C.cell (1df0a924f5614ab8850e4351716899ee)
REM
REM compiler GCC version 9.2.1 20190827 (Red Hat 9.2.1-1)
REM options -cpp -mtune=generic -march=x86-64 -g -O0 -fpre-include=/usr/include/finclude/math-vector-fortran.h
REM seed 995782339 623148970 558765969 -2132966916 -2086384013 1679933729 -499964574 1343226227 1774329288 1391692088 -471335159 234441954 1577848359 -915910588 -1810867916 1829713452 1587883006 1197787321 1531588341 -1068765249 649691918 -1566421883 -1315877377 2012833391 198651718 -171935621 1306405282 988414283 715966273 -1318332009 38541190 379040005 1687927083
REM
CELL 1.54180   50.00000   50.00000   50.00000   90.00000   90.00000   90.00000
LATT -1
SFAC C  
C      1  0.5120620000000  0.5272900000000  0.5959500000000 1.0
C      1  0.4843570000000  0.5246470000000  0.4044120000000 1.0
C      1  0.4689280000000  0.4978200000000  0.5948070000000 1.0
C      1  0.4885270000000  0.4731870000000  0.4043590000000 1.0
C      1  0.5165870000000  0.4761940000000  0.5965230000000 1.0
C      1  0.5295480000000  0.5021150000000  0.4049520000000 1.0
C      1  0.5263090000000  0.4757320000000  0.4921680000000 1.0
C      1  0.5327010000000  0.5108350000000  0.5077750000000 1.0
C      1  0.5079430000000  0.5351780000000  0.4919770000000 1.0
C      1  0.4738760000000  0.5249400000000  0.5079250000000 1.0
C      1  0.4657650000000  0.4899850000000  0.4931700000000 1.0
C      1  0.4924060000000  0.4663630000000  0.5078990000000 1.0
C      1  0.4668820000000  0.5449650000000  0.4132450000000 1.0
C      1  0.4419100000000  0.4941510000000  0.5862710000000 1.0
C      1  0.4788010000000  0.4486880000000  0.4143310000000 1.0
C      1  0.5330620000000  0.4550240000000  0.5866380000000 1.0
C      1  0.5554400000000  0.5077240000000  0.4131930000000 1.0
C      1  0.5206210000000  0.5522010000000  0.5859690000000 1.0
C      1  0.4411180000000  0.5243780000000  0.5699950000000 1.0
C      1  0.4534590000000  0.4538160000000  0.4316200000000 1.0
C      1  0.5159800000000  0.4349450000000  0.5684700000000 1.0
C      1  0.5657090000000  0.4823640000000  0.4312560000000 1.0
C      1  0.5480180000000  0.5474670000000  0.5685400000000 1.0
C      1  0.4824660000000  0.5645090000000  0.4315160000000 1.0
C      1  0.5222670000000  0.5425110000000  0.4568800000000 1.0
C      1  0.4757460000000  0.5423330000000  0.5439460000000 1.0
C      1  0.4510250000000  0.4988220000000  0.4549510000000 1.0
C      1  0.4760760000000  0.4570730000000  0.5460350000000 1.0
C      1  0.5249270000000  0.4588680000000  0.4554250000000 1.0
C      1  0.5491780000000  0.5010510000000  0.5450500000000 1.0
C      1  0.4151840000000  0.5636260000000  0.5104960000000 1.0
C      1  0.4027990000000  0.4581260000000  0.4924920000000 1.0
C      1  0.4866580000000  0.3961790000000  0.5101200000000 1.0
C      1  0.5827540000000  0.4360260000000  0.4886200000000 1.0
C      1  0.5976810000000  0.5406610000000  0.5097060000000 1.0
C      1  0.5141580000000  0.6053790000000  0.4891750000000 1.0
C      1  0.5768000000000  0.5077530000000  0.5527630000000 1.0
C      1  0.5317940000000  0.5688420000000  0.4459690000000 1.0
C      1  0.4560990000000  0.5620930000000  0.5543790000000 1.0
C      1  0.4225220000000  0.4928730000000  0.4509750000000 1.0
C      1  0.4661390000000  0.4294880000000  0.5501020000000 1.0
C      1  0.5435070000000  0.4382760000000  0.4449040000000 1.0
C      1  0.5565970000000  0.4678600000000  0.5736670000000 1.0
C      1  0.5559780000000  0.5354910000000  0.4250840000000 1.0
C      1  0.4956350000000  0.5637390000000  0.5740230000000 1.0
C      1  0.4423930000000  0.5302660000000  0.4250200000000 1.0
C      1  0.4446960000000  0.4650080000000  0.5743650000000 1.0
C      1  0.5028500000000  0.4332250000000  0.4248280000000 1.0
C      1  0.4832670000000  0.5392310000000  0.4500710000000 1.0
C      1  0.4573310000000  0.5092580000000  0.5512750000000 1.0
C      1  0.4741000000000  0.4661260000000  0.4507900000000 1.0
C      1  0.5143690000000  0.4595540000000  0.5511060000000 1.0
C      1  0.5429310000000  0.4950170000000  0.4501820000000 1.0
C      1  0.5281420000000  0.5336050000000  0.5507180000000 1.0
C      1  0.4825720000000  0.5823570000000  0.5292110000000 1.0
C      1  0.4207290000000  0.5237960000000  0.4692980000000 1.0
C      1  0.4435560000000  0.4425960000000  0.5299820000000 1.0
C      1  0.5168030000000  0.4194370000000  0.4707170000000 1.0
C      1  0.5797330000000  0.4739350000000  0.5289060000000 1.0
C      1  0.5611710000000  0.5550940000000  0.4704910000000 1.0
C      1  0.5869280000000  0.5179670000000  0.4591470000000 1.0
C      1  0.5281930000000  0.5840190000000  0.5408190000000 1.0
C      1  0.4408730000000  0.5665100000000  0.4590870000000 1.0
C      1  0.4148020000000  0.4831110000000  0.5409350000000 1.0
C      1  0.4717920000000  0.4159960000000  0.4584380000000 1.0
C      1  0.5582360000000  0.4328530000000  0.5408460000000 1.0
C      1  0.5289450000000  0.4438520000000  0.4200070000000 1.0
C      1  0.5640990000000  0.4968430000000  0.5808660000000 1.0
C      1  0.5337620000000  0.5524690000000  0.4212790000000 1.0
C      1  0.4681690000000  0.5533510000000  0.5800670000000 1.0
C      1  0.4368380000000  0.5022860000000  0.4186340000000 1.0
C      1  0.4661330000000  0.4455420000000  0.5816450000000 1.0
C      1  0.5030070000000  0.4007040000000  0.4873350000000 1.0
C      1  0.5872710000000  0.4520340000000  0.5119650000000 1.0
C      1  0.5841550000000  0.5535400000000  0.4875310000000 1.0
C      1  0.4982680000000  0.5999530000000  0.5127620000000 1.0
C      1  0.4102150000000  0.5465920000000  0.4867560000000 1.0
C      1  0.4114410000000  0.4458240000000  0.5168220000000 1.0
C      1  0.4552090000000  0.4205210000000  0.4345170000000 1.0
C      1  0.5457930000000  0.4211850000000  0.5650380000000 1.0
C      1  0.5910070000000  0.5001960000000  0.4349210000000 1.0
C      1  0.5451150000000  0.5794900000000  0.5645920000000 1.0
C      1  0.4535310000000  0.5786880000000  0.4351360000000 1.0
C      1  0.4123010000000  0.4978510000000  0.5660850000000 1.0
C      1  0.5462850000000  0.4849050000000  0.4755070000000 1.0
C      1  0.5339010000000  0.5332880000000  0.5240030000000 1.0
C      1  0.4885900000000  0.5461620000000  0.4762540000000 1.0
C      1  0.4544140000000  0.5135410000000  0.5243140000000 1.0
C      1  0.4651830000000  0.4679250000000  0.4769350000000 1.0
C      1  0.5118700000000  0.4545540000000  0.5243030000000 1.0
C      1  0.4932630000000  0.4774410000000  0.5586310000000 1.0
C      1  0.5170470000000  0.4838240000000  0.4417650000000 1.0
C      1  0.5232130000000  0.5065650000000  0.5583840000000 1.0
C      1  0.5058410000000  0.5222720000000  0.4423160000000 1.0
C      1  0.4850100000000  0.5165330000000  0.5572760000000 1.0
C      1  0.4773830000000  0.4939490000000  0.4420730000000 1.0
C      1  0.4824460000000  0.5242340000000  0.5875330000000 1.0
C      1  0.4729890000000  0.4977610000000  0.4114810000000 1.0
C      1  0.4874210000000  0.4748560000000  0.5890090000000 1.0
C      1  0.5180440000000  0.4742300000000  0.4119480000000 1.0
C      1  0.5279820000000  0.5028040000000  0.5886700000000 1.0
C      1  0.5139310000000  0.5275020000000  0.4124140000000 1.0
C      1  0.5713480000000  0.5521240000000  0.5474430000000 1.0
C      1  0.4904280000000  0.5883510000000  0.4518040000000 1.0
C      1  0.4208330000000  0.5355070000000  0.5510390000000 1.0
C      1  0.4290740000000  0.4478490000000  0.4511140000000 1.0
C      1  0.5093770000000  0.4121220000000  0.5476070000000 1.0
C      1  0.5809130000000  0.4637590000000  0.4526780000000 1.0
C      1  0.5235110000000  0.5166670000000  0.4849680000000 1.0
C      1  0.4974300000000  0.5310430000000  0.5150130000000 1.0
C      1  0.4730790000000  0.5126420000000  0.4847820000000 1.0
C      1  0.4752250000000  0.4833190000000  0.5170540000000 1.0
C      1  0.5024340000000  0.4706680000000  0.4843960000000 1.0
C      1  0.5278630000000  0.4874910000000  0.5158340000000 1.0
C      1  0.4919660000000  0.5531400000000  0.5287390000000 1.0
C      1  0.4535610000000  0.5213960000000  0.4685420000000 1.0
C      1  0.4577700000000  0.4681320000000  0.5309560000000 1.0
C      1  0.5045710000000  0.4483980000000  0.4685140000000 1.0
C      1  0.5499000000000  0.4807340000000  0.5294740000000 1.0
C      1  0.5423810000000  0.5289790000000  0.4689740000000 1.0
C      1  0.5243400000000  0.4105270000000  0.5214620000000 1.0
C      1  0.5904100000000  0.4760560000000  0.4784320000000 1.0
C      1  0.5652790000000  0.5655680000000  0.5215590000000 1.0
C      1  0.4758510000000  0.5901850000000  0.4786440000000 1.0
C      1  0.4103700000000  0.5243850000000  0.5232210000000 1.0
C      1  0.4347650000000  0.4346280000000  0.4772700000000 1.0
C      1  0.5166920000000  0.5918680000000  0.4602630000000 1.0
C      1  0.4280950000000  0.5599200000000  0.5386450000000 1.0
C      1  0.4121020000000  0.4675060000000  0.4628690000000 1.0
C      1  0.4832120000000  0.4072680000000  0.5378780000000 1.0
C      1  0.5712810000000  0.4389530000000  0.4608100000000 1.0
C      1  0.5881820000000  0.5314890000000  0.5393210000000 1.0
C      1  0.5491150000000  0.4260400000000  0.5128360000000 1.0
C      1  0.5883850000000  0.5055510000000  0.4863700000000 1.0
C      1  0.5396640000000  0.5783850000000  0.5127710000000 1.0
C      1  0.4519760000000  0.5734210000000  0.4863560000000 1.0
C      1  0.4116260000000  0.4960230000000  0.5138740000000 1.0
C      1  0.4604970000000  0.4210040000000  0.4861020000000 1.0
C      1  0.4998530000000  0.4137220000000  0.4479370000000 1.0
C      1  0.5736510000000  0.4559320000000  0.5512530000000 1.0
C      1  0.5750150000000  0.5426920000000  0.4483070000000 1.0
C      1  0.5003360000000  0.5850980000000  0.5521390000000 1.0
C      1  0.4261940000000  0.5430730000000  0.4481340000000 1.0
C      1  0.4200940000000  0.4539570000000  0.5446010000000 1.0
C      1  0.5671060000000  0.5139380000000  0.5040230000000 1.0
C      1  0.5218690000000  0.5645800000000  0.4948070000000 1.0
C      1  0.4546610000000  0.5507700000000  0.5037900000000 1.0
C      1  0.4324260000000  0.4868720000000  0.4960560000000 1.0
C      1  0.4784900000000  0.4353480000000  0.5039010000000 1.0
C      1  0.5450280000000  0.4484950000000  0.4951660000000 1.0
C      1  0.5057990000000  0.4316530000000  0.5120650000000 1.0
C      1  0.5628290000000  0.4700990000000  0.4875620000000 1.0
C      1  0.5569630000000  0.5390990000000  0.5122140000000 1.0
C      1  0.4948020000000  0.5690030000000  0.4870490000000 1.0
C      1  0.4372190000000  0.5298610000000  0.5120000000000 1.0
C      1  0.4426260000000  0.4608920000000  0.4886560000000 1.0
END
