TITL C-2441162-9305-747 0.174267718265842 125000 -21452.2376179076 0 0 173 (C1) n - 1
REM
REM in /home/bkarasulu/work/CARBON/AIRSS/Generating-Clusters/ReaxFF-fromJPCA2015/Units_Real/with-SteepDescent/Higher-Symm
REM
REM
REM
REM
REM
REM ./C.cell (1df0a924f5614ab8850e4351716899ee)
REM
REM compiler GCC version 9.2.1 20190827 (Red Hat 9.2.1-1)
REM options -cpp -mtune=generic -march=x86-64 -g -O0 -fpre-include=/usr/include/finclude/math-vector-fortran.h
REM seed -905693415 614062933 1458740779 -305887714 1566097762 -2026208177 2069725400 1659386092 225777715 -75801890 1628757576 -765078047 871481831 794957073 1854317098 -406083043 -1797880641 1208449732 -1479963252 -959509833 -1258963158 1231644431 820176170 296489388 71139284 667304233 -159801952 -1777826219 -1682727017 12461790 -521910453 752037977 1504814731
REM
CELL 1.54180   50.00000   50.00000   50.00000   90.00000   90.00000   90.00000
LATT -1
SFAC C  
C      1  0.5169660000000  0.4007440000000  0.4761750000000 1.0
C      1  0.5249450000000  0.4618680000000  0.4638420000000 1.0
C      1  0.4426380000000  0.4690790000000  0.5780540000000 1.0
C      1  0.4515550000000  0.5146210000000  0.4693200000000 1.0
C      1  0.5675490000000  0.4324340000000  0.4720790000000 1.0
C      1  0.4383430000000  0.4666650000000  0.4527840000000 1.0
C      1  0.5725710000000  0.5196100000000  0.5594830000000 1.0
C      1  0.4754600000000  0.3986880000000  0.5131750000000 1.0
C      1  0.4960360000000  0.5129860000000  0.5228650000000 1.0
C      1  0.4229290000000  0.4921780000000  0.4247180000000 1.0
C      1  0.4988530000000  0.5526820000000  0.5146220000000 1.0
C      1  0.5619940000000  0.5516360000000  0.4530980000000 1.0
C      1  0.4730120000000  0.4107910000000  0.5391940000000 1.0
C      1  0.5039050000000  0.5467220000000  0.4210390000000 1.0
C      1  0.4935720000000  0.5792300000000  0.5757610000000 1.0
C      1  0.4096370000000  0.5502310000000  0.4623220000000 1.0
C      1  0.6070440000000  0.5121830000000  0.5101500000000 1.0
C      1  0.4516660000000  0.4380420000000  0.5772380000000 1.0
C      1  0.4825910000000  0.4764500000000  0.5426330000000 1.0
C      1  0.5192090000000  0.4251450000000  0.5091280000000 1.0
C      1  0.4856780000000  0.4591430000000  0.5652360000000 1.0
C      1  0.4615310000000  0.5180190000000  0.5948920000000 1.0
C      1  0.4614600000000  0.4675620000000  0.4062610000000 1.0
C      1  0.5470750000000  0.5616620000000  0.4292870000000 1.0
C      1  0.5415460000000  0.5334920000000  0.4617310000000 1.0
C      1  0.4908850000000  0.5977520000000  0.4779740000000 1.0
C      1  0.4911830000000  0.4381390000000  0.4246640000000 1.0
C      1  0.4461210000000  0.5860380000000  0.5079260000000 1.0
C      1  0.4628550000000  0.4898220000000  0.5842690000000 1.0
C      1  0.4815710000000  0.4474710000000  0.3993730000000 1.0
C      1  0.4484740000000  0.5693850000000  0.4321220000000 1.0
C      1  0.5017900000000  0.5466340000000  0.4777120000000 1.0
C      1  0.5306950000000  0.4342560000000  0.4499200000000 1.0
C      1  0.5637310000000  0.4383920000000  0.5001020000000 1.0
C      1  0.5676280000000  0.5663450000000  0.5471070000000 1.0
C      1  0.5825750000000  0.5377320000000  0.4857160000000 1.0
C      1  0.4840230000000  0.5509110000000  0.4563630000000 1.0
C      1  0.5124980000000  0.5406610000000  0.5956200000000 1.0
C      1  0.5474900000000  0.4418340000000  0.5712020000000 1.0
C      1  0.4586720000000  0.5296490000000  0.4952280000000 1.0
C      1  0.5596870000000  0.5135660000000  0.5330500000000 1.0
C      1  0.4503540000000  0.4548250000000  0.4296730000000 1.0
C      1  0.5191010000000  0.5346610000000  0.5496910000000 1.0
C      1  0.5286350000000  0.4849280000000  0.4402520000000 1.0
C      1  0.4577690000000  0.4891810000000  0.4561560000000 1.0
C      1  0.5106230000000  0.5035180000000  0.5726720000000 1.0
C      1  0.5073910000000  0.5984200000000  0.5152430000000 1.0
C      1  0.5579280000000  0.4679840000000  0.5030680000000 1.0
C      1  0.5630670000000  0.5837180000000  0.4964630000000 1.0
C      1  0.5551500000000  0.4727200000000  0.4010690000000 1.0
C      1  0.5553930000000  0.4703430000000  0.4305310000000 1.0
C      1  0.5469600000000  0.4157870000000  0.5083770000000 1.0
C      1  0.4978310000000  0.5189670000000  0.4839810000000 1.0
C      1  0.5199620000000  0.5660610000000  0.5828030000000 1.0
C      1  0.4310600000000  0.5502890000000  0.5337370000000 1.0
C      1  0.5368090000000  0.4668310000000  0.5805810000000 1.0
C      1  0.5083700000000  0.4195560000000  0.4383820000000 1.0
C      1  0.5075550000000  0.4813600000000  0.3961480000000 1.0
C      1  0.4437760000000  0.4438760000000  0.5336500000000 1.0
C      1  0.5223600000000  0.4939810000000  0.5171260000000 1.0
C      1  0.4084610000000  0.5081370000000  0.5248630000000 1.0
C      1  0.4523240000000  0.3986780000000  0.4941380000000 1.0
C      1  0.5604320000000  0.4990440000000  0.4689940000000 1.0
C      1  0.5031380000000  0.4018850000000  0.5021000000000 1.0
C      1  0.4789180000000  0.5953710000000  0.5556440000000 1.0
C      1  0.4827570000000  0.4795480000000  0.4943020000000 1.0
C      1  0.4947940000000  0.4031540000000  0.4584600000000 1.0
C      1  0.4377360000000  0.5314500000000  0.5863280000000 1.0
C      1  0.5266490000000  0.4243750000000  0.5746120000000 1.0
C      1  0.5993080000000  0.5104330000000  0.5533480000000 1.0
C      1  0.4232600000000  0.5133020000000  0.5657970000000 1.0
C      1  0.3992940000000  0.4636450000000  0.4920720000000 1.0
C      1  0.5246900000000  0.5143110000000  0.4485710000000 1.0
C      1  0.4523650000000  0.5414800000000  0.4221590000000 1.0
C      1  0.5209430000000  0.5926780000000  0.4759810000000 1.0
C      1  0.4684920000000  0.5814920000000  0.4897230000000 1.0
C      1  0.5138890000000  0.5314810000000  0.4000890000000 1.0
C      1  0.4060680000000  0.4607760000000  0.5192390000000 1.0
C      1  0.5175190000000  0.5010900000000  0.6009270000000 1.0
C      1  0.5203900000000  0.4800120000000  0.5583200000000 1.0
C      1  0.4505950000000  0.4248700000000  0.5499060000000 1.0
C      1  0.5643090000000  0.5150410000000  0.4913750000000 1.0
C      1  0.4214360000000  0.4817310000000  0.5639170000000 1.0
C      1  0.5293070000000  0.4710760000000  0.5320410000000 1.0
C      1  0.4967760000000  0.5134800000000  0.4561750000000 1.0
C      1  0.4251900000000  0.5632230000000  0.5085690000000 1.0
C      1  0.5282990000000  0.5267150000000  0.5739130000000 1.0
C      1  0.5610960000000  0.4833410000000  0.5759660000000 1.0
C      1  0.6070440000000  0.5287410000000  0.5332480000000 1.0
C      1  0.4090720000000  0.5467250000000  0.4908640000000 1.0
C      1  0.4418550000000  0.5340900000000  0.4477680000000 1.0
C      1  0.4394710000000  0.5111170000000  0.4140150000000 1.0
C      1  0.5122670000000  0.4739400000000  0.6018020000000 1.0
C      1  0.5288950000000  0.4602260000000  0.3969050000000 1.0
C      1  0.4696040000000  0.5136820000000  0.5147910000000 1.0
C      1  0.4102360000000  0.4771310000000  0.4444710000000 1.0
C      1  0.5023380000000  0.4361150000000  0.5638050000000 1.0
C      1  0.5264490000000  0.5805130000000  0.5458400000000 1.0
C      1  0.5369150000000  0.5735010000000  0.4906970000000 1.0
C      1  0.5612300000000  0.5188890000000  0.4193710000000 1.0
C      1  0.5776000000000  0.4726960000000  0.5542900000000 1.0
C      1  0.5806370000000  0.4755990000000  0.4440920000000 1.0
C      1  0.4553740000000  0.4781730000000  0.5027570000000 1.0
C      1  0.4912680000000  0.5984950000000  0.4482140000000 1.0
C      1  0.5776650000000  0.5651970000000  0.4755790000000 1.0
C      1  0.5449230000000  0.4091830000000  0.5370410000000 1.0
C      1  0.5925710000000  0.5542500000000  0.5044100000000 1.0
C      1  0.4580720000000  0.4920600000000  0.5320650000000 1.0
C      1  0.5534450000000  0.5009330000000  0.4020050000000 1.0
C      1  0.4125310000000  0.5301680000000  0.5418580000000 1.0
C      1  0.5233350000000  0.4027520000000  0.5556010000000 1.0
C      1  0.4574470000000  0.5942170000000  0.5334230000000 1.0
C      1  0.4353220000000  0.4394530000000  0.4725000000000 1.0
C      1  0.5206890000000  0.5060620000000  0.4924660000000 1.0
C      1  0.5980160000000  0.4630280000000  0.5194690000000 1.0
C      1  0.4844650000000  0.4705850000000  0.5923200000000 1.0
C      1  0.5040080000000  0.4847620000000  0.4246540000000 1.0
C      1  0.5429670000000  0.4149020000000  0.4669440000000 1.0
C      1  0.5415010000000  0.5391460000000  0.4094930000000 1.0
C      1  0.4925170000000  0.4674420000000  0.5177910000000 1.0
C      1  0.4726250000000  0.5627520000000  0.5868250000000 1.0
C      1  0.4961970000000  0.4708850000000  0.4695730000000 1.0
C      1  0.4702910000000  0.4109550000000  0.4746920000000 1.0
C      1  0.4707150000000  0.4412750000000  0.4430380000000 1.0
C      1  0.4834930000000  0.5377490000000  0.5965520000000 1.0
C      1  0.4351330000000  0.5626690000000  0.4561590000000 1.0
C      1  0.4863910000000  0.5154470000000  0.3985340000000 1.0
C      1  0.5553510000000  0.5106960000000  0.5806850000000 1.0
C      1  0.5683170000000  0.4939560000000  0.5130720000000 1.0
C      1  0.4482890000000  0.5543650000000  0.5719600000000 1.0
C      1  0.5746520000000  0.5045850000000  0.4450940000000 1.0
C      1  0.4047870000000  0.5019110000000  0.4592770000000 1.0
C      1  0.4631650000000  0.4971240000000  0.4026230000000 1.0
C      1  0.4758370000000  0.5741000000000  0.4411430000000 1.0
C      1  0.5387730000000  0.5275610000000  0.4890520000000 1.0
C      1  0.5999050000000  0.4655150000000  0.4895300000000 1.0
C      1  0.4136380000000  0.5272350000000  0.4433130000000 1.0
C      1  0.5197470000000  0.5892840000000  0.4460590000000 1.0
C      1  0.4727240000000  0.4215840000000  0.5866400000000 1.0
C      1  0.5288030000000  0.5482500000000  0.5070320000000 1.0
C      1  0.4560130000000  0.4497790000000  0.5086600000000 1.0
C      1  0.3913900000000  0.4889730000000  0.4803470000000 1.0
C      1  0.4722110000000  0.5545390000000  0.5021080000000 1.0
C      1  0.4924040000000  0.4102940000000  0.5589630000000 1.0
C      1  0.4088830000000  0.4382410000000  0.4800940000000 1.0
C      1  0.4049310000000  0.5156780000000  0.4968400000000 1.0
C      1  0.4215010000000  0.4398800000000  0.5267850000000 1.0
C      1  0.4288390000000  0.4148860000000  0.4854000000000 1.0
C      1  0.4110200000000  0.4824260000000  0.5366550000000 1.0
C      1  0.4506740000000  0.5120990000000  0.5526810000000 1.0
C      1  0.5472690000000  0.4752030000000  0.4776260000000 1.0
C      1  0.4918910000000  0.5271090000000  0.5471330000000 1.0
C      1  0.5153000000000  0.4509460000000  0.5175000000000 1.0
C      1  0.5427730000000  0.5644180000000  0.5634280000000 1.0
C      1  0.5869750000000  0.5505770000000  0.5314820000000 1.0
C      1  0.4278140000000  0.5070980000000  0.4812100000000 1.0
C      1  0.5044860000000  0.4546420000000  0.3831510000000 1.0
C      1  0.5575510000000  0.4332670000000  0.5464100000000 1.0
C      1  0.5387840000000  0.5331730000000  0.5302240000000 1.0
C      1  0.5850230000000  0.4557020000000  0.4656990000000 1.0
C      1  0.4850650000000  0.4885530000000  0.4469480000000 1.0
C      1  0.5989380000000  0.4846480000000  0.5414290000000 1.0
C      1  0.4823810000000  0.4479250000000  0.4674860000000 1.0
C      1  0.4742380000000  0.4352500000000  0.4903070000000 1.0
C      1  0.4798160000000  0.5329060000000  0.4209820000000 1.0
C      1  0.5365460000000  0.5993640000000  0.5253630000000 1.0
C      1  0.5035890000000  0.5738650000000  0.5299360000000 1.0
C      1  0.5200120000000  0.5612650000000  0.4392280000000 1.0
C      1  0.4589590000000  0.5399830000000  0.5476620000000 1.0
C      1  0.5626990000000  0.5860130000000  0.5257460000000 1.0
C      1  0.6038090000000  0.4936810000000  0.4923650000000 1.0
C      1  0.5802770000000  0.4485420000000  0.5378820000000 1.0
C      1  0.4832120000000  0.6081280000000  0.5303000000000 1.0
END
