TITL C-2441156-4686-310 0.0871327225028544 125000 -24314.7836283978 0 0 172 (C1) n - 1
REM
REM in /home/bkarasulu/work/CARBON/AIRSS/Generating-Clusters/ReaxFF-fromJPCA2015/Units_Real/with-SteepDescent/Higher-Symm
REM
REM
REM
REM
REM
REM ./C.cell (1df0a924f5614ab8850e4351716899ee)
REM
REM compiler GCC version 9.2.1 20190827 (Red Hat 9.2.1-1)
REM options -cpp -mtune=generic -march=x86-64 -g -O0 -fpre-include=/usr/include/finclude/math-vector-fortran.h
REM seed -1037339582 1150220580 -1244583767 -266433813 -1724290651 1948740367 681514248 -536967463 87952356 -1944084793 172474706 -248304604 1374628403 668236990 1693891559 1784153904 1248566674 93027885 -107064029 2114274873 1513812365 -61726006 411346568 -1466069260 279620445 116042650 1538445433 1954505031 -781979483 -1862941303 -239131546 -446971124 1348341549
REM
CELL 1.54180   50.00000   50.00000   50.00000   90.00000   90.00000   90.00000
LATT -1
SFAC C  
C      1  0.5723880000000  0.5129830000000  0.5662750000000 1.0
C      1  0.4250320000000  0.5487970000000  0.5445090000000 1.0
C      1  0.5705590000000  0.5669350000000  0.5096330000000 1.0
C      1  0.4311790000000  0.5631120000000  0.4721960000000 1.0
C      1  0.5762780000000  0.5262710000000  0.4402940000000 1.0
C      1  0.4248980000000  0.4872010000000  0.4350940000000 1.0
C      1  0.5724510000000  0.4517500000000  0.4520500000000 1.0
C      1  0.4258910000000  0.4327260000000  0.4943250000000 1.0
C      1  0.5751070000000  0.4421630000000  0.5314940000000 1.0
C      1  0.4334410000000  0.4620480000000  0.5590420000000 1.0
C      1  0.5560200000000  0.4274540000000  0.5477520000000 1.0
C      1  0.4469640000000  0.4679140000000  0.5823250000000 1.0
C      1  0.5537620000000  0.5236860000000  0.5838690000000 1.0
C      1  0.4455160000000  0.5676380000000  0.5535220000000 1.0
C      1  0.5508430000000  0.5861840000000  0.5036060000000 1.0
C      1  0.4470420000000  0.5726730000000  0.4515370000000 1.0
C      1  0.5568830000000  0.5292210000000  0.4187940000000 1.0
C      1  0.4456770000000  0.4753530000000  0.4174150000000 1.0
C      1  0.5532820000000  0.4326620000000  0.4463640000000 1.0
C      1  0.4465960000000  0.4117480000000  0.4976340000000 1.0
C      1  0.3898800000000  0.4693690000000  0.4696350000000 1.0
C      1  0.6109500000000  0.4495030000000  0.4942480000000 1.0
C      1  0.3957830000000  0.4605700000000  0.5263370000000 1.0
C      1  0.6076290000000  0.4786190000000  0.5397030000000 1.0
C      1  0.3884060000000  0.5080060000000  0.5411100000000 1.0
C      1  0.6050500000000  0.5351500000000  0.5310380000000 1.0
C      1  0.3961900000000  0.5434660000000  0.5025150000000 1.0
C      1  0.6091530000000  0.5368700000000  0.4787450000000 1.0
C      1  0.3872720000000  0.5222900000000  0.4568990000000 1.0
C      1  0.6055340000000  0.4888930000000  0.4593600000000 1.0
C      1  0.4239690000000  0.4396690000000  0.4613950000000 1.0
C      1  0.5775690000000  0.4274610000000  0.5018620000000 1.0
C      1  0.4295990000000  0.4366690000000  0.5461180000000 1.0
C      1  0.5735940000000  0.4794200000000  0.5727580000000 1.0
C      1  0.4220940000000  0.5252790000000  0.5664250000000 1.0
C      1  0.5758520000000  0.5643430000000  0.5413580000000 1.0
C      1  0.4288800000000  0.5763490000000  0.4991600000000 1.0
C      1  0.5780750000000  0.5553280000000  0.4578600000000 1.0
C      1  0.4224260000000  0.5185210000000  0.4323700000000 1.0
C      1  0.5766550000000  0.4739260000000  0.4280040000000 1.0
C      1  0.4785760000000  0.4763650000000  0.4823170000000 1.0
C      1  0.5215750000000  0.4728120000000  0.5001170000000 1.0
C      1  0.4789310000000  0.4795310000000  0.5170560000000 1.0
C      1  0.5215210000000  0.4913070000000  0.5252200000000 1.0
C      1  0.4775880000000  0.5085870000000  0.5264120000000 1.0
C      1  0.5207740000000  0.5219040000000  0.5147580000000 1.0
C      1  0.4779340000000  0.5251140000000  0.5008270000000 1.0
C      1  0.5220840000000  0.5205070000000  0.4835780000000 1.0
C      1  0.4775920000000  0.5059280000000  0.4785660000000 1.0
C      1  0.5209080000000  0.4911260000000  0.4752680000000 1.0
C      1  0.4497980000000  0.5935230000000  0.5096710000000 1.0
C      1  0.5542170000000  0.5699650000000  0.4556900000000 1.0
C      1  0.4457950000000  0.5298150000000  0.4231030000000 1.0
C      1  0.5545220000000  0.4793350000000  0.4126760000000 1.0
C      1  0.4476150000000  0.4354500000000  0.4474480000000 1.0
C      1  0.5555210000000  0.4148740000000  0.4934250000000 1.0
C      1  0.4507100000000  0.4163230000000  0.5457680000000 1.0
C      1  0.5531200000000  0.4642370000000  0.5866160000000 1.0
C      1  0.4451300000000  0.5201350000000  0.5809240000000 1.0
C      1  0.5555820000000  0.5659490000000  0.5589760000000 1.0
C      1  0.4893550000000  0.3939350000000  0.4978510000000 1.0
C      1  0.5189880000000  0.4176810000000  0.5629490000000 1.0
C      1  0.4908560000000  0.4705000000000  0.6012870000000 1.0
C      1  0.5113030000000  0.5328760000000  0.5995140000000 1.0
C      1  0.4876720000000  0.5828920000000  0.5636640000000 1.0
C      1  0.5088200000000  0.6039080000000  0.4989160000000 1.0
C      1  0.4881430000000  0.5845090000000  0.4357240000000 1.0
C      1  0.5138530000000  0.5333890000000  0.4013160000000 1.0
C      1  0.4884650000000  0.4685150000000  0.4009790000000 1.0
C      1  0.5121170000000  0.4160550000000  0.4398140000000 1.0
C      1  0.5472210000000  0.5276720000000  0.5259560000000 1.0
C      1  0.4513970000000  0.5350660000000  0.5047010000000 1.0
C      1  0.5482360000000  0.5319350000000  0.4811610000000 1.0
C      1  0.4561330000000  0.5164910000000  0.4636400000000 1.0
C      1  0.5471460000000  0.4914660000000  0.4622920000000 1.0
C      1  0.4521140000000  0.4713200000000  0.4733440000000 1.0
C      1  0.5471050000000  0.4606170000000  0.4952670000000 1.0
C      1  0.4519720000000  0.4684010000000  0.5178730000000 1.0
C      1  0.5476620000000  0.4835420000000  0.5349540000000 1.0
C      1  0.4518760000000  0.5067040000000  0.5397420000000 1.0
C      1  0.5467890000000  0.5905270000000  0.4756520000000 1.0
C      1  0.4518510000000  0.5576300000000  0.4283480000000 1.0
C      1  0.5453650000000  0.5048090000000  0.4086230000000 1.0
C      1  0.4528790000000  0.4490370000000  0.4227730000000 1.0
C      1  0.5476590000000  0.4133180000000  0.4667250000000 1.0
C      1  0.4550530000000  0.4024800000000  0.5224020000000 1.0
C      1  0.5511420000000  0.4433690000000  0.5703170000000 1.0
C      1  0.4513180000000  0.4946000000000  0.5931280000000 1.0
C      1  0.5470160000000  0.5514160000000  0.5807200000000 1.0
C      1  0.4527150000000  0.5887610000000  0.5368610000000 1.0
C      1  0.3939850000000  0.5173460000000  0.5151310000000 1.0
C      1  0.6089760000000  0.5479530000000  0.5044860000000 1.0
C      1  0.3919690000000  0.5436520000000  0.4733670000000 1.0
C      1  0.6053400000000  0.5085440000000  0.4796870000000 1.0
C      1  0.3907350000000  0.4986150000000  0.4700680000000 1.0
C      1  0.6102130000000  0.4610970000000  0.4680350000000 1.0
C      1  0.3945700000000  0.4708120000000  0.4991520000000 1.0
C      1  0.6063430000000  0.4704260000000  0.5118130000000 1.0
C      1  0.3928340000000  0.4814860000000  0.5470440000000 1.0
C      1  0.6073150000000  0.5066140000000  0.5298240000000 1.0
C      1  0.4411050000000  0.5367240000000  0.4785110000000 1.0
C      1  0.5594030000000  0.5162870000000  0.4615080000000 1.0
C      1  0.4417230000000  0.4921330000000  0.4588130000000 1.0
C      1  0.5597790000000  0.4684860000000  0.4710970000000 1.0
C      1  0.4398420000000  0.4589570000000  0.4947800000000 1.0
C      1  0.5596860000000  0.4629370000000  0.5204200000000 1.0
C      1  0.4388870000000  0.4812510000000  0.5395180000000 1.0
C      1  0.5594910000000  0.5079630000000  0.5418350000000 1.0
C      1  0.4398350000000  0.5290840000000  0.5288920000000 1.0
C      1  0.5600310000000  0.5408720000000  0.5049140000000 1.0
C      1  0.5159910000000  0.5756270000000  0.5661980000000 1.0
C      1  0.4803730000000  0.5973550000000  0.5084780000000 1.0
C      1  0.5148530000000  0.5859470000000  0.4465590000000 1.0
C      1  0.4865440000000  0.5397790000000  0.4049440000000 1.0
C      1  0.5157670000000  0.4776570000000  0.4051180000000 1.0
C      1  0.4855190000000  0.4246170000000  0.4342860000000 1.0
C      1  0.5176600000000  0.4008740000000  0.4928810000000 1.0
C      1  0.4791390000000  0.4157700000000  0.5515680000000 1.0
C      1  0.5183090000000  0.4640280000000  0.5901440000000 1.0
C      1  0.4860040000000  0.5239120000000  0.5988000000000 1.0
C      1  0.4720550000000  0.5161790000000  0.4166580000000 1.0
C      1  0.5168460000000  0.4655970000000  0.4307510000000 1.0
C      1  0.4741470000000  0.4287130000000  0.4626510000000 1.0
C      1  0.5167590000000  0.4189370000000  0.5144460000000 1.0
C      1  0.4857680000000  0.4450950000000  0.5585820000000 1.0
C      1  0.5181520000000  0.4895060000000  0.5764420000000 1.0
C      1  0.4722680000000  0.5339690000000  0.5755810000000 1.0
C      1  0.5169200000000  0.5685390000000  0.5370030000000 1.0
C      1  0.4828470000000  0.5750700000000  0.4841660000000 1.0
C      1  0.5272360000000  0.5581620000000  0.4440930000000 1.0
C      1  0.5344050000000  0.5461850000000  0.4172160000000 1.0
C      1  0.4680180000000  0.4884750000000  0.4066550000000 1.0
C      1  0.5289840000000  0.4386720000000  0.4333380000000 1.0
C      1  0.4685440000000  0.4062030000000  0.4813860000000 1.0
C      1  0.5316610000000  0.4135190000000  0.5384660000000 1.0
C      1  0.4726590000000  0.4566280000000  0.5837730000000 1.0
C      1  0.5292650000000  0.5118280000000  0.5924200000000 1.0
C      1  0.4676660000000  0.5625960000000  0.5699120000000 1.0
C      1  0.5259550000000  0.5896200000000  0.5174370000000 1.0
C      1  0.4708920000000  0.5850570000000  0.4591260000000 1.0
C      1  0.5203180000000  0.6006670000000  0.4718100000000 1.0
C      1  0.4774230000000  0.5642270000000  0.4171300000000 1.0
C      1  0.5158740000000  0.5056520000000  0.4100370000000 1.0
C      1  0.4784970000000  0.4434810000000  0.4134820000000 1.0
C      1  0.5214860000000  0.4036890000000  0.4645330000000 1.0
C      1  0.4832790000000  0.3997550000000  0.5267340000000 1.0
C      1  0.5090580000000  0.4404610000000  0.5754810000000 1.0
C      1  0.4779250000000  0.4965740000000  0.6040160000000 1.0
C      1  0.5201880000000  0.5576050000000  0.5891640000000 1.0
C      1  0.4792550000000  0.5955830000000  0.5386510000000 1.0
C      1  0.5900250000000  0.4977250000000  0.4374680000000 1.0
C      1  0.4096460000000  0.4614330000000  0.4505190000000 1.0
C      1  0.5931040000000  0.4377550000000  0.4744040000000 1.0
C      1  0.4134960000000  0.4387040000000  0.5226400000000 1.0
C      1  0.5874010000000  0.4636150000000  0.5535830000000 1.0
C      1  0.4048060000000  0.5028860000000  0.5632150000000 1.0
C      1  0.5868490000000  0.5400560000000  0.5522330000000 1.0
C      1  0.4130860000000  0.5605720000000  0.5169710000000 1.0
C      1  0.5926040000000  0.5629580000000  0.4830070000000 1.0
C      1  0.4085670000000  0.5384190000000  0.4488090000000 1.0
C      1  0.4931980000000  0.5485430000000  0.4836050000000 1.0
C      1  0.5067790000000  0.5361390000000  0.4608380000000 1.0
C      1  0.4983200000000  0.5115620000000  0.4395620000000 1.0
C      1  0.5054170000000  0.4856560000000  0.4487600000000 1.0
C      1  0.4887390000000  0.4489980000000  0.4816470000000 1.0
C      1  0.5029920000000  0.4451710000000  0.5074840000000 1.0
C      1  0.4949450000000  0.4608250000000  0.5328040000000 1.0
C      1  0.5057850000000  0.4943100000000  0.5508740000000 1.0
C      1  0.4938500000000  0.5224640000000  0.5496870000000 1.0
C      1  0.5061790000000  0.5424620000000  0.5315940000000 1.0
C      1  0.3981290000000  0.4978710000000  0.4964230000000 1.0
C      1  0.6034370000000  0.4965170000000  0.5040890000000 1.0
END
