TITL C-2441160-1326-136 0.047184524305341 125000 -22006.4612375117 0 0 156 (C1) n - 1
REM
REM in /home/bkarasulu/work/CARBON/AIRSS/Generating-Clusters/ReaxFF-fromJPCA2015/Units_Real/with-SteepDescent/Higher-Symm
REM
REM
REM
REM
REM
REM ./C.cell (1df0a924f5614ab8850e4351716899ee)
REM
REM compiler GCC version 9.2.1 20190827 (Red Hat 9.2.1-1)
REM options -cpp -mtune=generic -march=x86-64 -g -O0 -fpre-include=/usr/include/finclude/math-vector-fortran.h
REM seed 2080896485 899091903 -1213559964 2038107983 1384687373 -349777420 1034703504 14708981 -1631172230 -802376215 1636007359 -389551464 -1577578049 -1735303547 -851857480 -731342637 2022052638 2081534602 1115601751 -1264835320 -1930800727 1197563979 -788779206 1189741169 999615619 -1716262476 -1686885338 -1609214805 -1046413727 1984683767 167759763 725724506 -1128379031
REM
CELL 1.54180   50.00000   50.00000   50.00000   90.00000   90.00000   90.00000
LATT -1
SFAC C  
C      1  0.5856220000000  0.4675630000000  0.5604950000000 1.0
C      1  0.5765270000000  0.4301830000000  0.4961400000000 1.0
C      1  0.5837410000000  0.4929030000000  0.4276000000000 1.0
C      1  0.5727810000000  0.5529520000000  0.4647570000000 1.0
C      1  0.5763990000000  0.5449820000000  0.5488430000000 1.0
C      1  0.4254740000000  0.5297170000000  0.5624110000000 1.0
C      1  0.4349340000000  0.5580860000000  0.5004810000000 1.0
C      1  0.4156770000000  0.5100580000000  0.4292680000000 1.0
C      1  0.4305480000000  0.4495950000000  0.4642840000000 1.0
C      1  0.4303320000000  0.4479100000000  0.5409350000000 1.0
C      1  0.5978750000000  0.5248060000000  0.5094790000000 1.0
C      1  0.6005920000000  0.4993290000000  0.5230550000000 1.0
C      1  0.5999860000000  0.4761200000000  0.5033660000000 1.0
C      1  0.5965850000000  0.4851440000000  0.4760420000000 1.0
C      1  0.6011400000000  0.5141620000000  0.4816270000000 1.0
C      1  0.4005040000000  0.4759060000000  0.5094350000000 1.0
C      1  0.3968390000000  0.5019080000000  0.5275610000000 1.0
C      1  0.3972300000000  0.5229470000000  0.5087520000000 1.0
C      1  0.4012480000000  0.5127980000000  0.4794850000000 1.0
C      1  0.3958600000000  0.4833200000000  0.4811750000000 1.0
C      1  0.5486010000000  0.4399760000000  0.5752310000000 1.0
C      1  0.5505070000000  0.4121770000000  0.4651110000000 1.0
C      1  0.5443540000000  0.5103950000000  0.4074060000000 1.0
C      1  0.5459240000000  0.5869080000000  0.4666880000000 1.0
C      1  0.5530300000000  0.5512880000000  0.5879380000000 1.0
C      1  0.4545410000000  0.5654080000000  0.5718540000000 1.0
C      1  0.4525350000000  0.5894750000000  0.4791010000000 1.0
C      1  0.4565630000000  0.4936080000000  0.4046900000000 1.0
C      1  0.4579660000000  0.4142790000000  0.4639320000000 1.0
C      1  0.4464140000000  0.4573110000000  0.5905400000000 1.0
C      1  0.5008470000000  0.5145620000000  0.4026330000000 1.0
C      1  0.5043740000000  0.6092670000000  0.4832330000000 1.0
C      1  0.5026050000000  0.5575450000000  0.5905300000000 1.0
C      1  0.5026250000000  0.4225140000000  0.5791550000000 1.0
C      1  0.5057320000000  0.3979440000000  0.4513150000000 1.0
C      1  0.4995240000000  0.4846310000000  0.3983380000000 1.0
C      1  0.4983850000000  0.3917050000000  0.4786930000000 1.0
C      1  0.4966840000000  0.4459590000000  0.5948130000000 1.0
C      1  0.5007750000000  0.5787230000000  0.5695020000000 1.0
C      1  0.4948610000000  0.6009030000000  0.4563440000000 1.0
C      1  0.4284400000000  0.4207030000000  0.4582010000000 1.0
C      1  0.4326380000000  0.5111620000000  0.4041020000000 1.0
C      1  0.4291980000000  0.5725070000000  0.4767220000000 1.0
C      1  0.4343200000000  0.5520300000000  0.5862600000000 1.0
C      1  0.4218470000000  0.4496010000000  0.5732260000000 1.0
C      1  0.5760130000000  0.5821310000000  0.4610490000000 1.0
C      1  0.5681350000000  0.4930670000000  0.4016540000000 1.0
C      1  0.5772910000000  0.4063280000000  0.4771790000000 1.0
C      1  0.5719080000000  0.4561520000000  0.5848670000000 1.0
C      1  0.5663640000000  0.5676810000000  0.5668440000000 1.0
C      1  0.5367790000000  0.4547850000000  0.4257880000000 1.0
C      1  0.5296260000000  0.5714910000000  0.4386000000000 1.0
C      1  0.5380310000000  0.5796550000000  0.5326770000000 1.0
C      1  0.5218050000000  0.4871210000000  0.5918560000000 1.0
C      1  0.5293630000000  0.4204570000000  0.5146240000000 1.0
C      1  0.4729200000000  0.5529170000000  0.4140100000000 1.0
C      1  0.4704960000000  0.4288490000000  0.4354730000000 1.0
C      1  0.4699860000000  0.4241460000000  0.5347850000000 1.0
C      1  0.4713670000000  0.5146700000000  0.5875870000000 1.0
C      1  0.4674420000000  0.5913030000000  0.5053190000000 1.0
C      1  0.5155940000000  0.5665010000000  0.5472960000000 1.0
C      1  0.5044000000000  0.4686710000000  0.5781310000000 1.0
C      1  0.5051930000000  0.4157220000000  0.4970260000000 1.0
C      1  0.5159570000000  0.4755620000000  0.4209790000000 1.0
C      1  0.5049860000000  0.5738090000000  0.4531770000000 1.0
C      1  0.4959430000000  0.4280130000000  0.5493840000000 1.0
C      1  0.4966040000000  0.5314230000000  0.5776290000000 1.0
C      1  0.4950740000000  0.5859250000000  0.4993380000000 1.0
C      1  0.4850050000000  0.5272230000000  0.4240170000000 1.0
C      1  0.4972790000000  0.4275320000000  0.4474090000000 1.0
C      1  0.5324960000000  0.4049250000000  0.4423990000000 1.0
C      1  0.5248260000000  0.5318500000000  0.3999930000000 1.0
C      1  0.5332180000000  0.6078360000000  0.4866350000000 1.0
C      1  0.5269920000000  0.5468690000000  0.6019100000000 1.0
C      1  0.5300460000000  0.4169930000000  0.5707470000000 1.0
C      1  0.4669470000000  0.5937840000000  0.4527610000000 1.0
C      1  0.4737240000000  0.4700040000000  0.3973980000000 1.0
C      1  0.4699140000000  0.3941250000000  0.4831670000000 1.0
C      1  0.4710640000000  0.4607170000000  0.6042130000000 1.0
C      1  0.4741630000000  0.5878380000000  0.5613090000000 1.0
C      1  0.5234070000000  0.4131720000000  0.5422760000000 1.0
C      1  0.5231190000000  0.4293750000000  0.4293380000000 1.0
C      1  0.5286940000000  0.5531180000000  0.4186240000000 1.0
C      1  0.5311320000000  0.5994500000000  0.5135780000000 1.0
C      1  0.5262820000000  0.5171880000000  0.5901330000000 1.0
C      1  0.4617310000000  0.5869860000000  0.5344890000000 1.0
C      1  0.4646970000000  0.5771080000000  0.4283530000000 1.0
C      1  0.4696900000000  0.4480500000000  0.4153260000000 1.0
C      1  0.4750080000000  0.4085690000000  0.5096630000000 1.0
C      1  0.4719860000000  0.4891650000000  0.5990330000000 1.0
C      1  0.4470940000000  0.5632780000000  0.5428550000000 1.0
C      1  0.4491840000000  0.4888530000000  0.5522060000000 1.0
C      1  0.4569040000000  0.4323410000000  0.4938520000000 1.0
C      1  0.4524540000000  0.4819010000000  0.4317670000000 1.0
C      1  0.4502130000000  0.5390330000000  0.4527710000000 1.0
C      1  0.5498330000000  0.4442650000000  0.5460750000000 1.0
C      1  0.5550650000000  0.5225930000000  0.5817050000000 1.0
C      1  0.5483770000000  0.5703650000000  0.4918840000000 1.0
C      1  0.5456570000000  0.5176240000000  0.4361210000000 1.0
C      1  0.5465920000000  0.4418590000000  0.4637640000000 1.0
C      1  0.4088340000000  0.4687880000000  0.4599390000000 1.0
C      1  0.4082050000000  0.5282020000000  0.4514380000000 1.0
C      1  0.4122530000000  0.5471050000000  0.5152080000000 1.0
C      1  0.4073130000000  0.5045440000000  0.5548050000000 1.0
C      1  0.4098620000000  0.4455430000000  0.5196930000000 1.0
C      1  0.5923170000000  0.5316010000000  0.4591450000000 1.0
C      1  0.5836570000000  0.4745330000000  0.4507150000000 1.0
C      1  0.5919810000000  0.4493680000000  0.5130100000000 1.0
C      1  0.5902470000000  0.4954380000000  0.5505920000000 1.0
C      1  0.5837130000000  0.5486070000000  0.5212870000000 1.0
C      1  0.4827910000000  0.5374230000000  0.4800820000000 1.0
C      1  0.4813560000000  0.5277660000000  0.5269780000000 1.0
C      1  0.4823420000000  0.4722470000000  0.5230320000000 1.0
C      1  0.4779140000000  0.4568880000000  0.4925110000000 1.0
C      1  0.4749820000000  0.4838330000000  0.4499710000000 1.0
C      1  0.5237320000000  0.4559420000000  0.4717800000000 1.0
C      1  0.5285360000000  0.4639160000000  0.5407700000000 1.0
C      1  0.5182940000000  0.5125590000000  0.5329620000000 1.0
C      1  0.5301060000000  0.5476980000000  0.4939270000000 1.0
C      1  0.5237510000000  0.5072680000000  0.4536700000000 1.0
C      1  0.5575530000000  0.5137010000000  0.4854010000000 1.0
C      1  0.5570660000000  0.5154560000000  0.5132560000000 1.0
C      1  0.5566470000000  0.4898110000000  0.5243550000000 1.0
C      1  0.5534970000000  0.4688600000000  0.5047070000000 1.0
C      1  0.5529960000000  0.4863760000000  0.4818390000000 1.0
C      1  0.4413140000000  0.4844960000000  0.4820310000000 1.0
C      1  0.4316090000000  0.4770410000000  0.5068460000000 1.0
C      1  0.4460090000000  0.4949590000000  0.5230530000000 1.0
C      1  0.4458160000000  0.5167370000000  0.5049790000000 1.0
C      1  0.4325970000000  0.5115020000000  0.4800130000000 1.0
C      1  0.5786820000000  0.4487930000000  0.5389390000000 1.0
C      1  0.5615450000000  0.4566960000000  0.4435830000000 1.0
C      1  0.5754830000000  0.5188450000000  0.4392700000000 1.0
C      1  0.5634600000000  0.5702930000000  0.5163950000000 1.0
C      1  0.5747840000000  0.5175030000000  0.5609880000000 1.0
C      1  0.4248080000000  0.5479330000000  0.5404950000000 1.0
C      1  0.4255640000000  0.5518470000000  0.4536370000000 1.0
C      1  0.4231220000000  0.4828190000000  0.4384820000000 1.0
C      1  0.4289110000000  0.4347320000000  0.5015740000000 1.0
C      1  0.4234650000000  0.4837860000000  0.5663930000000 1.0
C      1  0.5498080000000  0.4395770000000  0.5047990000000 1.0
C      1  0.5295080000000  0.4837800000000  0.4690110000000 1.0
C      1  0.5469750000000  0.5359800000000  0.4713200000000 1.0
C      1  0.5345560000000  0.5311120000000  0.5182150000000 1.0
C      1  0.5352400000000  0.4910250000000  0.5421620000000 1.0
C      1  0.4638380000000  0.5402220000000  0.5038400000000 1.0
C      1  0.4750870000000  0.5271060000000  0.4536800000000 1.0
C      1  0.4628450000000  0.4701830000000  0.4721950000000 1.0
C      1  0.4591840000000  0.4509530000000  0.5358090000000 1.0
C      1  0.4525270000000  0.5149320000000  0.5650090000000 1.0
C      1  0.5014000000000  0.4933740000000  0.4408640000000 1.0
C      1  0.5000790000000  0.4602770000000  0.5453100000000 1.0
C      1  0.5007110000000  0.5398550000000  0.5468970000000 1.0
C      1  0.5010750000000  0.5604380000000  0.4816580000000 1.0
C      1  0.4997940000000  0.4419740000000  0.4793800000000 1.0
C      1  0.4908080000000  0.5010210000000  0.5225720000000 1.0
END
