TITL C-2441156-4686-333 0.224946412156798 125000 -23608.8289991198 0 0 196 (C1) n - 1
REM
REM in /home/bkarasulu/work/CARBON/AIRSS/Generating-Clusters/ReaxFF-fromJPCA2015/Units_Real/with-SteepDescent/Higher-Symm
REM
REM
REM
REM
REM
REM ./C.cell (1df0a924f5614ab8850e4351716899ee)
REM
REM compiler GCC version 9.2.1 20190827 (Red Hat 9.2.1-1)
REM options -cpp -mtune=generic -march=x86-64 -g -O0 -fpre-include=/usr/include/finclude/math-vector-fortran.h
REM seed 878755841 -1117682464 -1743062363 94362758 -1410833974 -1040597218 759271863 -603151856 -163466365 289239089 317333429 1482743510 1401866923 -788974333 -1829075968 -1025121404 53971819 -1186587578 -1207355124 -1455061503 -1012249147 1593768855 -203968581 206310812 388961526 -1195332886 -1764015249 27473609 303384575 409360037 -969374935 1821503401 -1878469005
REM
CELL 1.54180   50.00000   50.00000   50.00000   90.00000   90.00000   90.00000
LATT -1
SFAC C  
C      1  0.4132300000000  0.4748620000000  0.5477330000000 1.0
C      1  0.4149040000000  0.4508660000000  0.5007430000000 1.0
C      1  0.4109620000000  0.4874580000000  0.4412280000000 1.0
C      1  0.4138720000000  0.5493950000000  0.4739360000000 1.0
C      1  0.4082190000000  0.5373090000000  0.5401200000000 1.0
C      1  0.5621180000000  0.4477600000000  0.5767590000000 1.0
C      1  0.5610650000000  0.4128950000000  0.4741990000000 1.0
C      1  0.5619460000000  0.4967680000000  0.4088710000000 1.0
C      1  0.5637240000000  0.5886530000000  0.4683780000000 1.0
C      1  0.5619600000000  0.5558020000000  0.5715090000000 1.0
C      1  0.5536930000000  0.4125890000000  0.5216530000000 1.0
C      1  0.5548140000000  0.4520360000000  0.4214240000000 1.0
C      1  0.5552030000000  0.5616300000000  0.4293160000000 1.0
C      1  0.5543920000000  0.5842550000000  0.5328680000000 1.0
C      1  0.5550080000000  0.4925970000000  0.5909890000000 1.0
C      1  0.5363800000000  0.3905180000000  0.5122610000000 1.0
C      1  0.5371710000000  0.4543580000000  0.3971040000000 1.0
C      1  0.5356880000000  0.5837910000000  0.4242580000000 1.0
C      1  0.5353380000000  0.5963450000000  0.5518930000000 1.0
C      1  0.5362460000000  0.4779500000000  0.6081170000000 1.0
C      1  0.4925730000000  0.5350000000000  0.4534090000000 1.0
C      1  0.4898800000000  0.5603040000000  0.5138820000000 1.0
C      1  0.4874680000000  0.5088840000000  0.5585630000000 1.0
C      1  0.4859220000000  0.4447930000000  0.5272390000000 1.0
C      1  0.4911770000000  0.4641820000000  0.4539870000000 1.0
C      1  0.5006990000000  0.4208030000000  0.5245000000000 1.0
C      1  0.5062540000000  0.4554640000000  0.4313540000000 1.0
C      1  0.5084120000000  0.5494720000000  0.4353410000000 1.0
C      1  0.5041520000000  0.5727190000000  0.5341540000000 1.0
C      1  0.5014920000000  0.5009360000000  0.5812160000000 1.0
C      1  0.5075030000000  0.5175910000000  0.6051990000000 1.0
C      1  0.5071030000000  0.4041810000000  0.5486370000000 1.0
C      1  0.5048250000000  0.4261500000000  0.4234100000000 1.0
C      1  0.5083230000000  0.5490980000000  0.4057010000000 1.0
C      1  0.5054780000000  0.6115550000000  0.5110610000000 1.0
C      1  0.5106450000000  0.5783010000000  0.4086850000000 1.0
C      1  0.5115370000000  0.6118810000000  0.5397410000000 1.0
C      1  0.5117840000000  0.4914750000000  0.6184330000000 1.0
C      1  0.5119990000000  0.3837780000000  0.5280680000000 1.0
C      1  0.5123970000000  0.4371720000000  0.3958910000000 1.0
C      1  0.5817970000000  0.5174270000000  0.5647830000000 1.0
C      1  0.5747180000000  0.4483650000000  0.5366110000000 1.0
C      1  0.5765310000000  0.4494200000000  0.4593580000000 1.0
C      1  0.5764830000000  0.5247940000000  0.4385620000000 1.0
C      1  0.5782730000000  0.5661930000000  0.5012430000000 1.0
C      1  0.4886970000000  0.5535370000000  0.5768710000000 1.0
C      1  0.4912230000000  0.4417560000000  0.5770560000000 1.0
C      1  0.4901620000000  0.4066990000000  0.4691180000000 1.0
C      1  0.4913750000000  0.5026410000000  0.4026350000000 1.0
C      1  0.4923810000000  0.5923270000000  0.4701710000000 1.0
C      1  0.4109230000000  0.5077640000000  0.4747020000000 1.0
C      1  0.4227870000000  0.5270790000000  0.5050960000000 1.0
C      1  0.4155430000000  0.5014970000000  0.5186580000000 1.0
C      1  0.4269010000000  0.4778090000000  0.5048020000000 1.0
C      1  0.4264670000000  0.4857130000000  0.4778850000000 1.0
C      1  0.4727020000000  0.5427330000000  0.5261300000000 1.0
C      1  0.4654890000000  0.4909080000000  0.5492070000000 1.0
C      1  0.4651840000000  0.4503320000000  0.5092430000000 1.0
C      1  0.4636400000000  0.4737570000000  0.4542590000000 1.0
C      1  0.4627370000000  0.5335230000000  0.4592380000000 1.0
C      1  0.5936120000000  0.4755510000000  0.5021260000000 1.0
C      1  0.5957250000000  0.4905320000000  0.4763520000000 1.0
C      1  0.5949430000000  0.5198060000000  0.4833130000000 1.0
C      1  0.5966740000000  0.5222350000000  0.5148350000000 1.0
C      1  0.5953170000000  0.4956020000000  0.5259570000000 1.0
C      1  0.4636610000000  0.4987640000000  0.5228050000000 1.0
C      1  0.4548250000000  0.4768020000000  0.5066780000000 1.0
C      1  0.4531970000000  0.4868440000000  0.4776710000000 1.0
C      1  0.4630320000000  0.5137750000000  0.4809530000000 1.0
C      1  0.4554280000000  0.5245690000000  0.5090990000000 1.0
C      1  0.5267560000000  0.4759400000000  0.5522670000000 1.0
C      1  0.5195930000000  0.4461050000000  0.4974360000000 1.0
C      1  0.5068070000000  0.4911390000000  0.4569140000000 1.0
C      1  0.5080670000000  0.5437700000000  0.4749380000000 1.0
C      1  0.5277410000000  0.5361390000000  0.5238430000000 1.0
C      1  0.5631340000000  0.5262240000000  0.4903250000000 1.0
C      1  0.5548540000000  0.5205610000000  0.5228900000000 1.0
C      1  0.5485220000000  0.4949110000000  0.5205660000000 1.0
C      1  0.5570020000000  0.4804720000000  0.4984310000000 1.0
C      1  0.5528660000000  0.5019240000000  0.4802280000000 1.0
C      1  0.4804740000000  0.5363230000000  0.5544310000000 1.0
C      1  0.5006250000000  0.4562060000000  0.5509850000000 1.0
C      1  0.5007220000000  0.4381470000000  0.4751060000000 1.0
C      1  0.5011380000000  0.5069520000000  0.4322160000000 1.0
C      1  0.5020750000000  0.5672310000000  0.4868110000000 1.0
C      1  0.5378140000000  0.4829580000000  0.3939270000000 1.0
C      1  0.5391730000000  0.5950720000000  0.4508010000000 1.0
C      1  0.5373870000000  0.5746920000000  0.5721110000000 1.0
C      1  0.5382630000000  0.4517050000000  0.5941160000000 1.0
C      1  0.5380410000000  0.3947710000000  0.4830770000000 1.0
C      1  0.5168730000000  0.5608030000000  0.5861840000000 1.0
C      1  0.5179750000000  0.4334940000000  0.5859220000000 1.0
C      1  0.5173970000000  0.3952460000000  0.4630240000000 1.0
C      1  0.5174570000000  0.5022320000000  0.3880640000000 1.0
C      1  0.5180530000000  0.6056500000000  0.4666850000000 1.0
C      1  0.4876310000000  0.4519200000000  0.3957070000000 1.0
C      1  0.4829120000000  0.5790510000000  0.4200170000000 1.0
C      1  0.4936830000000  0.5922680000000  0.5526960000000 1.0
C      1  0.4835690000000  0.4832790000000  0.6101490000000 1.0
C      1  0.4835030000000  0.3874620000000  0.5185020000000 1.0
C      1  0.5543300000000  0.5538680000000  0.4893330000000 1.0
C      1  0.5565570000000  0.5183820000000  0.5505230000000 1.0
C      1  0.5469160000000  0.4594790000000  0.5409380000000 1.0
C      1  0.5431270000000  0.4561690000000  0.4622960000000 1.0
C      1  0.5429030000000  0.5210900000000  0.4453360000000 1.0
C      1  0.5888890000000  0.4909630000000  0.5545270000000 1.0
C      1  0.5859920000000  0.4468840000000  0.5095040000000 1.0
C      1  0.5875630000000  0.4756840000000  0.4522900000000 1.0
C      1  0.5887320000000  0.5403810000000  0.4590830000000 1.0
C      1  0.5877370000000  0.5485070000000  0.5244330000000 1.0
C      1  0.4412990000000  0.4095810000000  0.5228120000000 1.0
C      1  0.4445560000000  0.4506530000000  0.4224640000000 1.0
C      1  0.4408350000000  0.5588450000000  0.4301660000000 1.0
C      1  0.4407870000000  0.5859240000000  0.5341390000000 1.0
C      1  0.4412290000000  0.4927430000000  0.5912310000000 1.0
C      1  0.4265250000000  0.5347170000000  0.4339340000000 1.0
C      1  0.4255500000000  0.5733380000000  0.5133620000000 1.0
C      1  0.4277340000000  0.5073450000000  0.5710090000000 1.0
C      1  0.4268080000000  0.4316760000000  0.5352770000000 1.0
C      1  0.4272520000000  0.4478240000000  0.4456680000000 1.0
C      1  0.4491360000000  0.5495550000000  0.5865240000000 1.0
C      1  0.4503760000000  0.4331590000000  0.5740100000000 1.0
C      1  0.4472280000000  0.4083540000000  0.4618380000000 1.0
C      1  0.4507930000000  0.5110190000000  0.4041890000000 1.0
C      1  0.4519780000000  0.5962430000000  0.4790270000000 1.0
C      1  0.5237200000000  0.4903590000000  0.5307120000000 1.0
C      1  0.5375310000000  0.4630410000000  0.4887730000000 1.0
C      1  0.5339050000000  0.5001780000000  0.4627450000000 1.0
C      1  0.5189860000000  0.5296520000000  0.4945980000000 1.0
C      1  0.5094760000000  0.5142910000000  0.5365500000000 1.0
C      1  0.5658760000000  0.5923640000000  0.4975760000000 1.0
C      1  0.5676480000000  0.5309660000000  0.5861360000000 1.0
C      1  0.5649430000000  0.4275410000000  0.5551930000000 1.0
C      1  0.5640890000000  0.4260860000000  0.4485170000000 1.0
C      1  0.5640910000000  0.5252290000000  0.4126970000000 1.0
C      1  0.4485750000000  0.4621190000000  0.5879690000000 1.0
C      1  0.4479340000000  0.4050870000000  0.4927500000000 1.0
C      1  0.4480940000000  0.4790560000000  0.4076110000000 1.0
C      1  0.4490580000000  0.5797270000000  0.4536620000000 1.0
C      1  0.4457160000000  0.5727410000000  0.5619360000000 1.0
C      1  0.5287730000000  0.4391490000000  0.5426090000000 1.0
C      1  0.5268200000000  0.4329210000000  0.4625820000000 1.0
C      1  0.5268720000000  0.5136540000000  0.4246190000000 1.0
C      1  0.5306700000000  0.5724050000000  0.4956000000000 1.0
C      1  0.5345500000000  0.5223240000000  0.5678670000000 1.0
C      1  0.4700470000000  0.5348770000000  0.5991580000000 1.0
C      1  0.4712520000000  0.4163550000000  0.5636850000000 1.0
C      1  0.4693030000000  0.4116400000000  0.4438840000000 1.0
C      1  0.4707530000000  0.5302570000000  0.3999080000000 1.0
C      1  0.4754150000000  0.6069630000000  0.4957360000000 1.0
C      1  0.4076010000000  0.5267500000000  0.4544630000000 1.0
C      1  0.4079050000000  0.5512680000000  0.5141720000000 1.0
C      1  0.4067550000000  0.5040470000000  0.5500870000000 1.0
C      1  0.4076960000000  0.4531510000000  0.5288510000000 1.0
C      1  0.4096800000000  0.4662140000000  0.4608210000000 1.0
C      1  0.5339750000000  0.5479060000000  0.4433120000000 1.0
C      1  0.5300230000000  0.5687790000000  0.5234840000000 1.0
C      1  0.5284250000000  0.4944410000000  0.5731120000000 1.0
C      1  0.5261920000000  0.4288800000000  0.5174880000000 1.0
C      1  0.5325000000000  0.4620640000000  0.4367960000000 1.0
C      1  0.4466550000000  0.4468460000000  0.5496000000000 1.0
C      1  0.4449080000000  0.4364730000000  0.4650730000000 1.0
C      1  0.4483570000000  0.5164270000000  0.4338960000000 1.0
C      1  0.4483260000000  0.5723450000000  0.4959080000000 1.0
C      1  0.4466560000000  0.5292940000000  0.5645120000000 1.0
C      1  0.5293240000000  0.4179600000000  0.5638020000000 1.0
C      1  0.5271370000000  0.4128810000000  0.4414200000000 1.0
C      1  0.5303590000000  0.5269880000000  0.3991060000000 1.0
C      1  0.5279430000000  0.6045490000000  0.4943170000000 1.0
C      1  0.5290860000000  0.5356830000000  0.5946010000000 1.0
C      1  0.4755150000000  0.3972480000000  0.4926700000000 1.0
C      1  0.4759990000000  0.4771340000000  0.4001210000000 1.0
C      1  0.4760450000000  0.5871640000000  0.4469370000000 1.0
C      1  0.4740330000000  0.5779250000000  0.5688900000000 1.0
C      1  0.4765220000000  0.4605680000000  0.5938630000000 1.0
C      1  0.5727780000000  0.4766860000000  0.4266100000000 1.0
C      1  0.5745490000000  0.5649470000000  0.4530760000000 1.0
C      1  0.5708470000000  0.5616640000000  0.5444240000000 1.0
C      1  0.5722210000000  0.4759000000000  0.5742030000000 1.0
C      1  0.5708290000000  0.4239610000000  0.5004110000000 1.0
C      1  0.4999620000000  0.5141960000000  0.4962710000000 1.0
C      1  0.4929000000000  0.5053100000000  0.5170150000000 1.0
C      1  0.5031280000000  0.4794810000000  0.5156240000000 1.0
C      1  0.4929410000000  0.4744370000000  0.4927930000000 1.0
C      1  0.4903060000000  0.5011340000000  0.4785470000000 1.0
C      1  0.4665750000000  0.4331870000000  0.4251080000000 1.0
C      1  0.4640830000000  0.5564450000000  0.4141440000000 1.0
C      1  0.4638430000000  0.5919470000000  0.5179060000000 1.0
C      1  0.4641330000000  0.5058290000000  0.6030280000000 1.0
C      1  0.4644690000000  0.4035960000000  0.5377470000000 1.0
C      1  0.4428180000000  0.4375680000000  0.4937010000000 1.0
C      1  0.4443250000000  0.4877450000000  0.4368620000000 1.0
C      1  0.4445840000000  0.5552310000000  0.4718190000000 1.0
C      1  0.4332130000000  0.5476170000000  0.5464930000000 1.0
C      1  0.4432020000000  0.4732520000000  0.5565790000000 1.0
C      1  0.3972380000000  0.5114560000000  0.4986850000000 1.0
END
