TITL C-2441167-4473-263 0.0641597222798482 125000 -12653.2264094758 0 0 100 (C1) n - 1
REM
REM in /home/bkarasulu/work/CARBON/AIRSS/Generating-Clusters/ReaxFF-fromJPCA2015/Units_Real/with-SteepDescent/Higher-Symm
REM
REM
REM
REM
REM
REM ./C.cell (1df0a924f5614ab8850e4351716899ee)
REM
REM compiler GCC version 9.2.1 20190827 (Red Hat 9.2.1-1)
REM options -cpp -mtune=generic -march=x86-64 -g -O0 -fpre-include=/usr/include/finclude/math-vector-fortran.h
REM seed -1508257539 -1582507245 1214376081 -1074248342 -771362226 849403391 -910715348 -1054968665 -2001635459 1129662559 -436593849 755971289 1712751540 365871013 -1522824437 1551490436 -659679574 1517179170 1681651157 1533574992 -1622137967 388729934 -1315498741 -316799704 241750657 2097677243 -1200034673 1539241560 -1294418851 579402236 372722696 -563250221 788248778
REM
CELL 1.54180   50.00000   50.00000   50.00000   90.00000   90.00000   90.00000
LATT -1
SFAC C  
C      1  0.4978780000000  0.4793530000000  0.5879990000000 1.0
C      1  0.4291440000000  0.4824720000000  0.5544360000000 1.0
C      1  0.4182630000000  0.4784240000000  0.4781020000000 1.0
C      1  0.4647710000000  0.4803560000000  0.4205110000000 1.0
C      1  0.5425830000000  0.4882760000000  0.4245480000000 1.0
C      1  0.5887810000000  0.4843270000000  0.4828880000000 1.0
C      1  0.5674340000000  0.4818490000000  0.5561780000000 1.0
C      1  0.4419400000000  0.5526320000000  0.5446160000000 1.0
C      1  0.4294680000000  0.5535790000000  0.4863730000000 1.0
C      1  0.4882350000000  0.5622370000000  0.4396760000000 1.0
C      1  0.5427090000000  0.5416640000000  0.4335380000000 1.0
C      1  0.5700300000000  0.5496510000000  0.4836430000000 1.0
C      1  0.5468290000000  0.5589600000000  0.5466560000000 1.0
C      1  0.4977250000000  0.5536420000000  0.5673790000000 1.0
C      1  0.5584350000000  0.4559940000000  0.4580490000000 1.0
C      1  0.5754320000000  0.4582030000000  0.5208600000000 1.0
C      1  0.5313540000000  0.4574530000000  0.5687870000000 1.0
C      1  0.4629530000000  0.4551860000000  0.5651610000000 1.0
C      1  0.4255330000000  0.4578670000000  0.5152360000000 1.0
C      1  0.4462220000000  0.4539010000000  0.4498150000000 1.0
C      1  0.5045830000000  0.4613900000000  0.4225630000000 1.0
C      1  0.4924670000000  0.5088810000000  0.5589940000000 1.0
C      1  0.4486750000000  0.5094540000000  0.5295010000000 1.0
C      1  0.4445530000000  0.5120180000000  0.4769400000000 1.0
C      1  0.4846480000000  0.5088720000000  0.4481740000000 1.0
C      1  0.5322270000000  0.5114570000000  0.4630190000000 1.0
C      1  0.5530230000000  0.5118370000000  0.5006680000000 1.0
C      1  0.5370440000000  0.5098950000000  0.5437840000000 1.0
C      1  0.5205160000000  0.5738400000000  0.5287260000000 1.0
C      1  0.4910950000000  0.5724800000000  0.5303810000000 1.0
C      1  0.4729050000000  0.5747750000000  0.5073620000000 1.0
C      1  0.4770870000000  0.5755420000000  0.4784110000000 1.0
C      1  0.5017030000000  0.5768530000000  0.4634550000000 1.0
C      1  0.5258870000000  0.5674150000000  0.4765000000000 1.0
C      1  0.5346060000000  0.5718980000000  0.5040170000000 1.0
C      1  0.4918740000000  0.5308830000000  0.4642580000000 1.0
C      1  0.5194880000000  0.5362270000000  0.4678500000000 1.0
C      1  0.5397700000000  0.5362410000000  0.5094630000000 1.0
C      1  0.5232010000000  0.5269490000000  0.5279750000000 1.0
C      1  0.4800240000000  0.5435630000000  0.5330940000000 1.0
C      1  0.4635210000000  0.5470120000000  0.5102100000000 1.0
C      1  0.4710720000000  0.5456550000000  0.4744820000000 1.0
C      1  0.4665240000000  0.5455620000000  0.5588410000000 1.0
C      1  0.4337220000000  0.5460460000000  0.5161860000000 1.0
C      1  0.4434180000000  0.5421030000000  0.4641420000000 1.0
C      1  0.5009660000000  0.5410950000000  0.4241290000000 1.0
C      1  0.5637460000000  0.5397670000000  0.4549740000000 1.0
C      1  0.5665230000000  0.5486860000000  0.5116830000000 1.0
C      1  0.5248980000000  0.5525080000000  0.5629230000000 1.0
C      1  0.5767500000000  0.5083070000000  0.5178280000000 1.0
C      1  0.5362290000000  0.5073650000000  0.5739830000000 1.0
C      1  0.4665030000000  0.5062970000000  0.5732830000000 1.0
C      1  0.4212880000000  0.5068560000000  0.5182660000000 1.0
C      1  0.4379100000000  0.5049140000000  0.4482720000000 1.0
C      1  0.5047160000000  0.5136080000000  0.4157580000000 1.0
C      1  0.5612360000000  0.5091780000000  0.4565300000000 1.0
C      1  0.5167420000000  0.4868500000000  0.4674210000000 1.0
C      1  0.5377800000000  0.4868920000000  0.4957560000000 1.0
C      1  0.5281240000000  0.4822200000000  0.5248200000000 1.0
C      1  0.4994010000000  0.4885260000000  0.5383100000000 1.0
C      1  0.4701030000000  0.4899480000000  0.5223360000000 1.0
C      1  0.4657680000000  0.4904410000000  0.4919840000000 1.0
C      1  0.4844600000000  0.4847680000000  0.4682830000000 1.0
C      1  0.4182590000000  0.5048530000000  0.4892620000000 1.0
C      1  0.4607650000000  0.5076720000000  0.4300270000000 1.0
C      1  0.5341100000000  0.5170160000000  0.4182540000000 1.0
C      1  0.5896870000000  0.5120830000000  0.4728230000000 1.0
C      1  0.5669570000000  0.5089040000000  0.5455590000000 1.0
C      1  0.5089070000000  0.5060570000000  0.5833020000000 1.0
C      1  0.4418400000000  0.5089150000000  0.5577970000000 1.0
C      1  0.5053170000000  0.4668650000000  0.5601910000000 1.0
C      1  0.4523170000000  0.4690400000000  0.5420150000000 1.0
C      1  0.4423810000000  0.4667370000000  0.4930380000000 1.0
C      1  0.4709530000000  0.4673630000000  0.4464340000000 1.0
C      1  0.5234110000000  0.4734250000000  0.4410740000000 1.0
C      1  0.5613140000000  0.4719980000000  0.4817720000000 1.0
C      1  0.5526240000000  0.4675790000000  0.5350710000000 1.0
C      1  0.4136290000000  0.4801710000000  0.5301180000000 1.0
C      1  0.4279560000000  0.4770820000000  0.4514660000000 1.0
C      1  0.4912990000000  0.4850790000000  0.4114710000000 1.0
C      1  0.5643230000000  0.4796720000000  0.4409990000000 1.0
C      1  0.5895810000000  0.4819260000000  0.5118720000000 1.0
C      1  0.5474760000000  0.4803600000000  0.5768380000000 1.0
C      1  0.4697990000000  0.4777130000000  0.5829640000000 1.0
C      1  0.4860980000000  0.4249160000000  0.4585900000000 1.0
C      1  0.5125540000000  0.4347730000000  0.4598870000000 1.0
C      1  0.5402190000000  0.4345550000000  0.4968680000000 1.0
C      1  0.5361270000000  0.4252820000000  0.5240730000000 1.0
C      1  0.5033180000000  0.4409240000000  0.5441710000000 1.0
C      1  0.4622830000000  0.4254080000000  0.5277820000000 1.0
C      1  0.4562460000000  0.4415950000000  0.4919560000000 1.0
C      1  0.4391790000000  0.4311850000000  0.5134310000000 1.0
C      1  0.4593930000000  0.4335120000000  0.4657860000000 1.0
C      1  0.4997260000000  0.4357980000000  0.4352870000000 1.0
C      1  0.5392550000000  0.4357410000000  0.4686480000000 1.0
C      1  0.5617490000000  0.4343940000000  0.5135270000000 1.0
C      1  0.5302430000000  0.4341690000000  0.5515100000000 1.0
C      1  0.4761360000000  0.4313540000000  0.5513460000000 1.0
C      1  0.5019790000000  0.5457400000000  0.4998900000000 1.0
C      1  0.5019010000000  0.5174310000000  0.5077240000000 1.0
END
