TITL C-2441158-471-624 0.167975207485319 125000 -20602.6552805612 0 0 166 (C1) n - 1
REM
REM in /home/bkarasulu/work/CARBON/AIRSS/Generating-Clusters/ReaxFF-fromJPCA2015/Units_Real/with-SteepDescent/Higher-Symm
REM
REM
REM
REM
REM
REM ./C.cell (1df0a924f5614ab8850e4351716899ee)
REM
REM compiler GCC version 9.2.1 20190827 (Red Hat 9.2.1-1)
REM options -cpp -mtune=generic -march=x86-64 -g -O0 -fpre-include=/usr/include/finclude/math-vector-fortran.h
REM seed -1129985545 -1813617058 1528673247 1285813300 1123280232 911473403 -186878164 106182601 -2103060563 -835965902 1937154015 1241466252 -1586170585 -1341968035 168484193 1983876138 1364601009 -768475417 -1713793242 -398645543 -1050361860 1836519558 756959146 286846967 -1513140548 -1663575195 -2073005793 -1086261648 -1134877769 -932576643 861593582 1095121393 -69158811
REM
CELL 1.54180   50.00000   50.00000   50.00000   90.00000   90.00000   90.00000
LATT -1
SFAC C  
C      1  0.4841710000000  0.4020760000000  0.5347330000000 1.0
C      1  0.4579220000000  0.4032100000000  0.4986110000000 1.0
C      1  0.4911570000000  0.4050730000000  0.4609300000000 1.0
C      1  0.5322300000000  0.4032970000000  0.4766910000000 1.0
C      1  0.5222520000000  0.4036570000000  0.5237590000000 1.0
C      1  0.5107810000000  0.5986580000000  0.5362890000000 1.0
C      1  0.5411190000000  0.5969450000000  0.4984840000000 1.0
C      1  0.5079430000000  0.6000860000000  0.4643250000000 1.0
C      1  0.4693120000000  0.5970340000000  0.4755690000000 1.0
C      1  0.4679220000000  0.5964490000000  0.5263130000000 1.0
C      1  0.4672970000000  0.5402540000000  0.4865850000000 1.0
C      1  0.5102040000000  0.5389240000000  0.4587890000000 1.0
C      1  0.5280250000000  0.5428340000000  0.4820660000000 1.0
C      1  0.5159450000000  0.5405200000000  0.5287490000000 1.0
C      1  0.4713460000000  0.5397020000000  0.5283030000000 1.0
C      1  0.5403650000000  0.4623430000000  0.4866440000000 1.0
C      1  0.5003980000000  0.4622280000000  0.4637420000000 1.0
C      1  0.4624910000000  0.4633820000000  0.4878200000000 1.0
C      1  0.4787140000000  0.4624940000000  0.5321990000000 1.0
C      1  0.5236800000000  0.4606120000000  0.5300180000000 1.0
C      1  0.5105000000000  0.4843320000000  0.3921150000000 1.0
C      1  0.5990380000000  0.4791920000000  0.4779480000000 1.0
C      1  0.5542460000000  0.4821110000000  0.5913550000000 1.0
C      1  0.4334000000000  0.4827080000000  0.5820260000000 1.0
C      1  0.4048600000000  0.4796940000000  0.4599910000000 1.0
C      1  0.4875750000000  0.5191410000000  0.3925130000000 1.0
C      1  0.3977010000000  0.5206620000000  0.4717610000000 1.0
C      1  0.4488640000000  0.5217730000000  0.5913720000000 1.0
C      1  0.5716140000000  0.5177760000000  0.5791520000000 1.0
C      1  0.5990790000000  0.5198790000000  0.4631840000000 1.0
C      1  0.4055360000000  0.5539820000000  0.5118430000000 1.0
C      1  0.4548630000000  0.5514820000000  0.4204340000000 1.0
C      1  0.5704970000000  0.5540970000000  0.4334780000000 1.0
C      1  0.5804870000000  0.5516630000000  0.5390890000000 1.0
C      1  0.4825310000000  0.5566910000000  0.5904160000000 1.0
C      1  0.5962010000000  0.4461880000000  0.5135490000000 1.0
C      1  0.5378970000000  0.4459400000000  0.4165280000000 1.0
C      1  0.4310490000000  0.4448610000000  0.4337680000000 1.0
C      1  0.4189710000000  0.4465670000000  0.5450950000000 1.0
C      1  0.5104010000000  0.4515060000000  0.5919160000000 1.0
C      1  0.4593720000000  0.5491730000000  0.5521680000000 1.0
C      1  0.4433000000000  0.5545920000000  0.4820150000000 1.0
C      1  0.5016950000000  0.5589590000000  0.4360360000000 1.0
C      1  0.5549630000000  0.5548430000000  0.4795930000000 1.0
C      1  0.5318560000000  0.5507400000000  0.5497000000000 1.0
C      1  0.5366540000000  0.4444440000000  0.5502210000000 1.0
C      1  0.5623620000000  0.4460000000000  0.4794350000000 1.0
C      1  0.4949900000000  0.4508230000000  0.4371740000000 1.0
C      1  0.4411170000000  0.4464910000000  0.4795500000000 1.0
C      1  0.4648700000000  0.4486310000000  0.5522300000000 1.0
C      1  0.4680660000000  0.5110000000000  0.4529320000000 1.0
C      1  0.5326200000000  0.5214990000000  0.4452200000000 1.0
C      1  0.5545230000000  0.5146670000000  0.5196720000000 1.0
C      1  0.5188510000000  0.5330060000000  0.5679440000000 1.0
C      1  0.4318590000000  0.5171920000000  0.5283130000000 1.0
C      1  0.5455750000000  0.4799740000000  0.4498940000000 1.0
C      1  0.4748990000000  0.4702510000000  0.4324750000000 1.0
C      1  0.4340700000000  0.4787770000000  0.5128650000000 1.0
C      1  0.5017660000000  0.4902280000000  0.5592080000000 1.0
C      1  0.5653290000000  0.4769680000000  0.5278430000000 1.0
C      1  0.5891080000000  0.5326840000000  0.5597370000000 1.0
C      1  0.4675900000000  0.5353370000000  0.6028410000000 1.0
C      1  0.3903210000000  0.5324590000000  0.4979440000000 1.0
C      1  0.4622310000000  0.5341600000000  0.3978870000000 1.0
C      1  0.5891510000000  0.5311860000000  0.4367460000000 1.0
C      1  0.4143830000000  0.4694160000000  0.5632690000000 1.0
C      1  0.5311690000000  0.4682250000000  0.6044920000000 1.0
C      1  0.6108210000000  0.4671620000000  0.4996930000000 1.0
C      1  0.5346060000000  0.4672120000000  0.3955260000000 1.0
C      1  0.4088830000000  0.4662310000000  0.4359140000000 1.0
C      1  0.5448920000000  0.5100810000000  0.5904770000000 1.0
C      1  0.4324420000000  0.5110820000000  0.5731480000000 1.0
C      1  0.4215910000000  0.5242400000000  0.4544000000000 1.0
C      1  0.5162630000000  0.5128700000000  0.4015080000000 1.0
C      1  0.5909190000000  0.5253440000000  0.4912500000000 1.0
C      1  0.4626270000000  0.4777060000000  0.5833920000000 1.0
C      1  0.5711580000000  0.4904980000000  0.5676900000000 1.0
C      1  0.5860970000000  0.4941150000000  0.4586200000000 1.0
C      1  0.4828090000000  0.4910410000000  0.3984600000000 1.0
C      1  0.4016410000000  0.4935170000000  0.4838040000000 1.0
C      1  0.5118110000000  0.4873890000000  0.6126200000000 1.0
C      1  0.3999110000000  0.4836290000000  0.5436580000000 1.0
C      1  0.4187100000000  0.4871950000000  0.4183140000000 1.0
C      1  0.5545090000000  0.4875520000000  0.3978270000000 1.0
C      1  0.6135860000000  0.4887840000000  0.5154830000000 1.0
C      1  0.4835640000000  0.5162500000000  0.6114160000000 1.0
C      1  0.6017680000000  0.5141100000000  0.5430240000000 1.0
C      1  0.5751070000000  0.5170010000000  0.4161220000000 1.0
C      1  0.4413870000000  0.5150920000000  0.4016430000000 1.0
C      1  0.3880250000000  0.5122930000000  0.5177750000000 1.0
C      1  0.5578920000000  0.5031640000000  0.4655640000000 1.0
C      1  0.5533930000000  0.4985690000000  0.5441180000000 1.0
C      1  0.4725310000000  0.4952400000000  0.5624220000000 1.0
C      1  0.4312220000000  0.5003700000000  0.4936500000000 1.0
C      1  0.4838580000000  0.4966770000000  0.4310420000000 1.0
C      1  0.4420220000000  0.5075770000000  0.4661760000000 1.0
C      1  0.4498200000000  0.5079030000000  0.5491400000000 1.0
C      1  0.5266990000000  0.5057780000000  0.5658050000000 1.0
C      1  0.5668260000000  0.5099230000000  0.4937800000000 1.0
C      1  0.5135710000000  0.5068280000000  0.4292860000000 1.0
C      1  0.4935590000000  0.5251840000000  0.5293340000000 1.0
C      1  0.4721840000000  0.5186240000000  0.5064720000000 1.0
C      1  0.4826580000000  0.5299580000000  0.4649910000000 1.0
C      1  0.5192740000000  0.5142770000000  0.4895410000000 1.0
C      1  0.5311560000000  0.5273230000000  0.5116020000000 1.0
C      1  0.5024990000000  0.4751240000000  0.5364780000000 1.0
C      1  0.5411930000000  0.4733340000000  0.5120250000000 1.0
C      1  0.5236190000000  0.4743010000000  0.4673020000000 1.0
C      1  0.4844290000000  0.4782480000000  0.4788110000000 1.0
C      1  0.4616530000000  0.4743090000000  0.5136130000000 1.0
C      1  0.4754080000000  0.4307430000000  0.4275950000000 1.0
C      1  0.5619260000000  0.4330840000000  0.4541510000000 1.0
C      1  0.5610570000000  0.4309890000000  0.5418200000000 1.0
C      1  0.4768370000000  0.4338910000000  0.5736300000000 1.0
C      1  0.4244360000000  0.4348840000000  0.5001870000000 1.0
C      1  0.5276190000000  0.5674040000000  0.4276190000000 1.0
C      1  0.4372870000000  0.5674810000000  0.4558860000000 1.0
C      1  0.4369020000000  0.5656970000000  0.5453760000000 1.0
C      1  0.5264940000000  0.5720620000000  0.5714800000000 1.0
C      1  0.5719700000000  0.5654950000000  0.5001630000000 1.0
C      1  0.5046530000000  0.4145200000000  0.5369800000000 1.0
C      1  0.4614450000000  0.4171730000000  0.5253040000000 1.0
C      1  0.4734680000000  0.4151900000000  0.4792410000000 1.0
C      1  0.5157180000000  0.4205810000000  0.4576200000000 1.0
C      1  0.5364810000000  0.4100460000000  0.5032940000000 1.0
C      1  0.4858610000000  0.5839990000000  0.5452270000000 1.0
C      1  0.5283610000000  0.5851560000000  0.5198170000000 1.0
C      1  0.5306110000000  0.5884550000000  0.4737520000000 1.0
C      1  0.4911310000000  0.5860810000000  0.4716460000000 1.0
C      1  0.4652780000000  0.5844530000000  0.5017670000000 1.0
C      1  0.5769710000000  0.4310820000000  0.4990280000000 1.0
C      1  0.5205310000000  0.4337100000000  0.5719540000000 1.0
C      1  0.4433630000000  0.4307410000000  0.5460880000000 1.0
C      1  0.4413710000000  0.4303820000000  0.4556790000000 1.0
C      1  0.5167390000000  0.4320970000000  0.4300650000000 1.0
C      1  0.4271560000000  0.5692270000000  0.5007350000000 1.0
C      1  0.4713970000000  0.5700130000000  0.5675880000000 1.0
C      1  0.5566850000000  0.5664420000000  0.5441220000000 1.0
C      1  0.5631370000000  0.5703960000000  0.4567930000000 1.0
C      1  0.4750710000000  0.5699500000000  0.4311300000000 1.0
C      1  0.5793180000000  0.4520910000000  0.5360200000000 1.0
C      1  0.4806650000000  0.4552810000000  0.5918240000000 1.0
C      1  0.4154250000000  0.4559610000000  0.5172420000000 1.0
C      1  0.4564120000000  0.4514230000000  0.4200730000000 1.0
C      1  0.5561000000000  0.4545470000000  0.4370630000000 1.0
C      1  0.4211210000000  0.5444010000000  0.5347240000000 1.0
C      1  0.5111450000000  0.5526790000000  0.5873700000000 1.0
C      1  0.5909460000000  0.5480800000000  0.5110320000000 1.0
C      1  0.5438670000000  0.5430690000000  0.4267920000000 1.0
C      1  0.4307960000000  0.5470200000000  0.4371220000000 1.0
C      1  0.4990300000000  0.4161120000000  0.5663660000000 1.0
C      1  0.4361460000000  0.4126370000000  0.5109770000000 1.0
C      1  0.4658670000000  0.4126670000000  0.4480710000000 1.0
C      1  0.5436060000000  0.4119770000000  0.4527600000000 1.0
C      1  0.5604000000000  0.4158990000000  0.5165590000000 1.0
C      1  0.5086230000000  0.5924390000000  0.5627070000000 1.0
C      1  0.5587140000000  0.5846620000000  0.5198070000000 1.0
C      1  0.5412990000000  0.5864690000000  0.4469450000000 1.0
C      1  0.4583490000000  0.5864880000000  0.4491470000000 1.0
C      1  0.4410940000000  0.5862340000000  0.5208920000000 1.0
C      1  0.4394690000000  0.4987100000000  0.4188080000000 1.0
C      1  0.4050680000000  0.5049940000000  0.5323840000000 1.0
C      1  0.5581550000000  0.4952130000000  0.4205030000000 1.0
C      1  0.4967990000000  0.5002210000000  0.5984580000000 1.0
C      1  0.5957850000000  0.4950720000000  0.5296420000000 1.0
C      1  0.4946060000000  0.5013620000000  0.4932140000000 1.0
END
