TITL C-2441162-9305-823 0.198455408577097 125000 -22831.055629109 0 0 189 (C1) n - 1
REM
REM in /home/bkarasulu/work/CARBON/AIRSS/Generating-Clusters/ReaxFF-fromJPCA2015/Units_Real/with-SteepDescent/Higher-Symm
REM
REM
REM
REM
REM
REM ./C.cell (1df0a924f5614ab8850e4351716899ee)
REM
REM compiler GCC version 9.2.1 20190827 (Red Hat 9.2.1-1)
REM options -cpp -mtune=generic -march=x86-64 -g -O0 -fpre-include=/usr/include/finclude/math-vector-fortran.h
REM seed 2072831060 -2065358316 -671205424 1513894075 1233003173 84916572 -606223682 -45116519 2070357007 445776535 2078032501 1536813069 440881186 1900817279 1849822663 2116826689 1693055856 -1108526139 -1630101210 447363344 -1408207975 1557722386 -1384020119 480247798 -1050973558 -515129691 -1508109356 955234690 427524363 476102590 -2135651900 -1907276439 1405085641
REM
CELL 1.54180   50.00000   50.00000   50.00000   90.00000   90.00000   90.00000
LATT -1
SFAC C  
C      1  0.4370450000000  0.5238590000000  0.5541340000000 1.0
C      1  0.5115420000000  0.4334370000000  0.5549520000000 1.0
C      1  0.5529680000000  0.5392610000000  0.5669120000000 1.0
C      1  0.4299740000000  0.5192440000000  0.4465190000000 1.0
C      1  0.5133290000000  0.4365760000000  0.4403290000000 1.0
C      1  0.5471510000000  0.5376320000000  0.4346830000000 1.0
C      1  0.4799450000000  0.6030700000000  0.4416180000000 1.0
C      1  0.4300080000000  0.4325670000000  0.4442340000000 1.0
C      1  0.5972150000000  0.4753150000000  0.4442650000000 1.0
C      1  0.4754520000000  0.6020160000000  0.5575320000000 1.0
C      1  0.4294890000000  0.4292470000000  0.5574510000000 1.0
C      1  0.5980550000000  0.4641970000000  0.5556230000000 1.0
C      1  0.5456540000000  0.5315560000000  0.4873050000000 1.0
C      1  0.4505950000000  0.5213840000000  0.4864560000000 1.0
C      1  0.5093010000000  0.4459430000000  0.4817500000000 1.0
C      1  0.5447370000000  0.5359890000000  0.5172170000000 1.0
C      1  0.4456590000000  0.5211540000000  0.5141050000000 1.0
C      1  0.5057500000000  0.4443600000000  0.5121340000000 1.0
C      1  0.5297420000000  0.4600950000000  0.4355770000000 1.0
C      1  0.5119490000000  0.5458020000000  0.4526970000000 1.0
C      1  0.4479670000000  0.5022240000000  0.4313050000000 1.0
C      1  0.5215080000000  0.4520120000000  0.5709970000000 1.0
C      1  0.5294850000000  0.5447710000000  0.5702090000000 1.0
C      1  0.4492860000000  0.5031680000000  0.5688570000000 1.0
C      1  0.5874970000000  0.5269280000000  0.5554610000000 1.0
C      1  0.4352250000000  0.5632960000000  0.5593430000000 1.0
C      1  0.4784340000000  0.4141290000000  0.5639680000000 1.0
C      1  0.5854020000000  0.5237130000000  0.4352500000000 1.0
C      1  0.4385610000000  0.5578210000000  0.4408600000000 1.0
C      1  0.4783340000000  0.4160920000000  0.4357100000000 1.0
C      1  0.5964850000000  0.4707350000000  0.4914920000000 1.0
C      1  0.4762020000000  0.5956150000000  0.4901930000000 1.0
C      1  0.4417420000000  0.4242160000000  0.4836630000000 1.0
C      1  0.5985170000000  0.4831720000000  0.5168670000000 1.0
C      1  0.4617890000000  0.5902790000000  0.5141500000000 1.0
C      1  0.4339450000000  0.4260450000000  0.5113670000000 1.0
C      1  0.4921530000000  0.5055390000000  0.4560610000000 1.0
C      1  0.4879740000000  0.4778270000000  0.4464080000000 1.0
C      1  0.5142280000000  0.5182940000000  0.4458510000000 1.0
C      1  0.4877840000000  0.5144750000000  0.5480850000000 1.0
C      1  0.5080400000000  0.4805380000000  0.5486580000000 1.0
C      1  0.5167520000000  0.5076230000000  0.5494760000000 1.0
C      1  0.4826350000000  0.5662290000000  0.5890030000000 1.0
C      1  0.4502580000000  0.4508150000000  0.5884110000000 1.0
C      1  0.5663850000000  0.4837000000000  0.5868540000000 1.0
C      1  0.4817760000000  0.5633850000000  0.4099070000000 1.0
C      1  0.4538990000000  0.4557320000000  0.4126770000000 1.0
C      1  0.5652160000000  0.4842090000000  0.4111540000000 1.0
C      1  0.4704710000000  0.5181390000000  0.4419290000000 1.0
C      1  0.5093590000000  0.4791220000000  0.4281950000000 1.0
C      1  0.5134270000000  0.5061980000000  0.4216940000000 1.0
C      1  0.4763200000000  0.5045300000000  0.5734390000000 1.0
C      1  0.5071250000000  0.4735130000000  0.5750570000000 1.0
C      1  0.5179670000000  0.5213190000000  0.5747880000000 1.0
C      1  0.4966350000000  0.4427410000000  0.6035050000000 1.0
C      1  0.5562470000000  0.5243810000000  0.5936820000000 1.0
C      1  0.4508390000000  0.5385700000000  0.5986850000000 1.0
C      1  0.5012930000000  0.4490550000000  0.3963100000000 1.0
C      1  0.5460030000000  0.5312470000000  0.4050030000000 1.0
C      1  0.4508450000000  0.5367930000000  0.3975300000000 1.0
C      1  0.4671620000000  0.5843690000000  0.4648510000000 1.0
C      1  0.4504690000000  0.4405680000000  0.4631330000000 1.0
C      1  0.5898960000000  0.4894570000000  0.4695570000000 1.0
C      1  0.4670340000000  0.5801540000000  0.5412590000000 1.0
C      1  0.4461120000000  0.4371690000000  0.5352850000000 1.0
C      1  0.5816910000000  0.4846820000000  0.5408370000000 1.0
C      1  0.5294750000000  0.3983130000000  0.5483010000000 1.0
C      1  0.5729830000000  0.5783870000000  0.5470600000000 1.0
C      1  0.3959320000000  0.5236210000000  0.5476830000000 1.0
C      1  0.5301650000000  0.3994960000000  0.4499800000000 1.0
C      1  0.5716110000000  0.5750040000000  0.4488690000000 1.0
C      1  0.3919240000000  0.5246740000000  0.4541880000000 1.0
C      1  0.4528570000000  0.4289860000000  0.4250630000000 1.0
C      1  0.5879970000000  0.4948010000000  0.4251080000000 1.0
C      1  0.4520980000000  0.5615170000000  0.4143740000000 1.0
C      1  0.4523200000000  0.4254040000000  0.5754870000000 1.0
C      1  0.5785720000000  0.5110410000000  0.5805750000000 1.0
C      1  0.4519440000000  0.5648540000000  0.5848470000000 1.0
C      1  0.5217120000000  0.4806890000000  0.5992970000000 1.0
C      1  0.5073320000000  0.5294310000000  0.6012340000000 1.0
C      1  0.4724950000000  0.4909000000000  0.5989450000000 1.0
C      1  0.5291940000000  0.4799170000000  0.3911110000000 1.0
C      1  0.5036220000000  0.5188900000000  0.3967660000000 1.0
C      1  0.4772790000000  0.4969700000000  0.3942170000000 1.0
C      1  0.4011450000000  0.5125850000000  0.4797560000000 1.0
C      1  0.5357140000000  0.4071240000000  0.4790780000000 1.0
C      1  0.5618250000000  0.5760850000000  0.4769940000000 1.0
C      1  0.4018830000000  0.5147880000000  0.5199060000000 1.0
C      1  0.5344420000000  0.4080010000000  0.5205220000000 1.0
C      1  0.5617510000000  0.5785170000000  0.5191800000000 1.0
C      1  0.4227920000000  0.5344930000000  0.5192960000000 1.0
C      1  0.5082930000000  0.4183830000000  0.5206850000000 1.0
C      1  0.5686470000000  0.5503200000000  0.5176990000000 1.0
C      1  0.4278410000000  0.5277060000000  0.4737600000000 1.0
C      1  0.5084570000000  0.4171770000000  0.4791480000000 1.0
C      1  0.5677120000000  0.5475470000000  0.4779260000000 1.0
C      1  0.4734080000000  0.4928100000000  0.5262980000000 1.0
C      1  0.5176300000000  0.4920490000000  0.5099400000000 1.0
C      1  0.5078120000000  0.5199090000000  0.5083580000000 1.0
C      1  0.4761150000000  0.4938920000000  0.4972010000000 1.0
C      1  0.5230960000000  0.4879840000000  0.4839550000000 1.0
C      1  0.4931670000000  0.5090390000000  0.4852510000000 1.0
C      1  0.5241290000000  0.5485680000000  0.4770780000000 1.0
C      1  0.4526340000000  0.4905520000000  0.4806410000000 1.0
C      1  0.5357670000000  0.4623110000000  0.4791990000000 1.0
C      1  0.5164460000000  0.5467930000000  0.5175010000000 1.0
C      1  0.4446570000000  0.4910710000000  0.5229810000000 1.0
C      1  0.5175850000000  0.4687780000000  0.5253020000000 1.0
C      1  0.4299380000000  0.4710770000000  0.5835850000000 1.0
C      1  0.5590140000000  0.4560600000000  0.5818440000000 1.0
C      1  0.5099070000000  0.5750970000000  0.5841300000000 1.0
C      1  0.4352710000000  0.4752910000000  0.4227280000000 1.0
C      1  0.5533990000000  0.4555820000000  0.4179090000000 1.0
C      1  0.5105490000000  0.5676210000000  0.4155400000000 1.0
C      1  0.5042230000000  0.6051090000000  0.5432460000000 1.0
C      1  0.4090700000000  0.4485000000000  0.5448520000000 1.0
C      1  0.5846050000000  0.4424880000000  0.5384810000000 1.0
C      1  0.5060900000000  0.6026360000000  0.4529960000000 1.0
C      1  0.4120650000000  0.4508820000000  0.4601920000000 1.0
C      1  0.5869460000000  0.4502900000000  0.4552620000000 1.0
C      1  0.6063890000000  0.5094470000000  0.5101250000000 1.0
C      1  0.4369870000000  0.5842910000000  0.5044150000000 1.0
C      1  0.4568500000000  0.4015520000000  0.5150700000000 1.0
C      1  0.6029310000000  0.5135680000000  0.4822710000000 1.0
C      1  0.4378610000000  0.5806870000000  0.4755470000000 1.0
C      1  0.4565120000000  0.3999710000000  0.4866190000000 1.0
C      1  0.4814070000000  0.5450860000000  0.5421250000000 1.0
C      1  0.4676440000000  0.4558730000000  0.5358410000000 1.0
C      1  0.5527250000000  0.4936190000000  0.5382110000000 1.0
C      1  0.4840310000000  0.5558820000000  0.4638860000000 1.0
C      1  0.4649750000000  0.4677940000000  0.4626550000000 1.0
C      1  0.5591990000000  0.4917540000000  0.4632410000000 1.0
C      1  0.4773110000000  0.4680390000000  0.3984600000000 1.0
C      1  0.5468260000000  0.5013040000000  0.3966270000000 1.0
C      1  0.4800700000000  0.5383630000000  0.3943300000000 1.0
C      1  0.4759370000000  0.4606570000000  0.6040350000000 1.0
C      1  0.5453800000000  0.4977320000000  0.6022640000000 1.0
C      1  0.4813600000000  0.5416880000000  0.6048880000000 1.0
C      1  0.5225960000000  0.5854070000000  0.4368940000000 1.0
C      1  0.4138650000000  0.4737050000000  0.4428730000000 1.0
C      1  0.5643810000000  0.4387500000000  0.4418080000000 1.0
C      1  0.5199640000000  0.5847340000000  0.5583110000000 1.0
C      1  0.4147750000000  0.4738990000000  0.5577860000000 1.0
C      1  0.5624150000000  0.4397940000000  0.5571930000000 1.0
C      1  0.5056990000000  0.5946250000000  0.4876800000000 1.0
C      1  0.4123310000000  0.4588510000000  0.4907700000000 1.0
C      1  0.5905860000000  0.4438930000000  0.4846700000000 1.0
C      1  0.5075650000000  0.6023480000000  0.5157220000000 1.0
C      1  0.4085210000000  0.4445770000000  0.5155630000000 1.0
C      1  0.5748410000000  0.4413020000000  0.5092900000000 1.0
C      1  0.5080010000000  0.4088380000000  0.4324080000000 1.0
C      1  0.5734480000000  0.5507670000000  0.4307650000000 1.0
C      1  0.4129660000000  0.5403300000000  0.4385380000000 1.0
C      1  0.5070030000000  0.4060460000000  0.5655510000000 1.0
C      1  0.5797890000000  0.5543560000000  0.5615880000000 1.0
C      1  0.4146870000000  0.5411980000000  0.5616460000000 1.0
C      1  0.4840740000000  0.4393610000000  0.5529240000000 1.0
C      1  0.5601640000000  0.5212650000000  0.5439940000000 1.0
C      1  0.4544450000000  0.5442470000000  0.5514330000000 1.0
C      1  0.4883400000000  0.4388470000000  0.4490920000000 1.0
C      1  0.5609750000000  0.5151750000000  0.4478150000000 1.0
C      1  0.4639380000000  0.5428060000000  0.4480430000000 1.0
C      1  0.5218340000000  0.5452790000000  0.4007460000000 1.0
C      1  0.4512800000000  0.5074140000000  0.4001770000000 1.0
C      1  0.5302600000000  0.4526870000000  0.3943760000000 1.0
C      1  0.5266460000000  0.5525960000000  0.5973270000000 1.0
C      1  0.4435930000000  0.4940970000000  0.5957530000000 1.0
C      1  0.5330260000000  0.4528440000000  0.5974840000000 1.0
C      1  0.5535940000000  0.4152260000000  0.4560630000000 1.0
C      1  0.5460050000000  0.5886020000000  0.4543800000000 1.0
C      1  0.3975420000000  0.4956950000000  0.4564270000000 1.0
C      1  0.5524430000000  0.4151500000000  0.5431780000000 1.0
C      1  0.5452610000000  0.5871630000000  0.5429890000000 1.0
C      1  0.4009230000000  0.4953970000000  0.5428010000000 1.0
C      1  0.5932690000000  0.5398290000000  0.4865560000000 1.0
C      1  0.4206720000000  0.5575740000000  0.4784430000000 1.0
C      1  0.4866090000000  0.3990960000000  0.4865140000000 1.0
C      1  0.5942840000000  0.5360230000000  0.5158790000000 1.0
C      1  0.4201540000000  0.5610220000000  0.5077950000000 1.0
C      1  0.4857490000000  0.4011850000000  0.5157760000000 1.0
C      1  0.4717640000000  0.5435190000000  0.4889700000000 1.0
C      1  0.4824450000000  0.4566240000000  0.4831170000000 1.0
C      1  0.5467120000000  0.5023240000000  0.4865080000000 1.0
C      1  0.4700160000000  0.5403310000000  0.5158480000000 1.0
C      1  0.4766880000000  0.4500620000000  0.5089970000000 1.0
C      1  0.5563300000000  0.4879260000000  0.5101290000000 1.0
C      1  0.5116880000000  0.5655480000000  0.4960430000000 1.0
C      1  0.5529950000000  0.4600860000000  0.5030320000000 1.0
C      1  0.4329840000000  0.4769710000000  0.5003540000000 1.0
END
