TITL C-2441156-4686-1213 0.0604812608093386 125000 -18269.2347558714 0 0 137 (C1) n - 1
REM
REM in /home/bkarasulu/work/CARBON/AIRSS/Generating-Clusters/ReaxFF-fromJPCA2015/Units_Real/with-SteepDescent/Higher-Symm
REM
REM
REM
REM
REM
REM ./C.cell (1df0a924f5614ab8850e4351716899ee)
REM
REM compiler GCC version 9.2.1 20190827 (Red Hat 9.2.1-1)
REM options -cpp -mtune=generic -march=x86-64 -g -O0 -fpre-include=/usr/include/finclude/math-vector-fortran.h
REM seed 1020278757 2017940346 -1960742128 1042546020 1703450169 104006979 -1140702653 823560077 -2070430167 -1023497968 1468692053 1655809437 -1130887433 -556125148 -909746521 -731325906 -725694306 36027393 -899186129 -1946106198 2098230820 -522863289 -1138744749 -1635979881 1739703162 -70105995 -622972738 -966240233 -397105946 1088993401 1656031 900103138 -1923456264
REM
CELL 1.54180   50.00000   50.00000   50.00000   90.00000   90.00000   90.00000
LATT -1
SFAC C  
C      1  0.4253880000000  0.4518070000000  0.5115070000000 1.0
C      1  0.4286230000000  0.4818170000000  0.5409930000000 1.0
C      1  0.4267770000000  0.5237850000000  0.5447090000000 1.0
C      1  0.4275170000000  0.5487860000000  0.5093160000000 1.0
C      1  0.4286930000000  0.5392600000000  0.4658790000000 1.0
C      1  0.4293720000000  0.4982600000000  0.4497310000000 1.0
C      1  0.4258280000000  0.4581500000000  0.4693030000000 1.0
C      1  0.5206460000000  0.5261690000000  0.4695840000000 1.0
C      1  0.5359760000000  0.5023170000000  0.4740390000000 1.0
C      1  0.5256540000000  0.4745620000000  0.4766220000000 1.0
C      1  0.5325160000000  0.4662880000000  0.5059610000000 1.0
C      1  0.5337910000000  0.4798090000000  0.5302040000000 1.0
C      1  0.5273010000000  0.5110510000000  0.5423900000000 1.0
C      1  0.5315360000000  0.5306270000000  0.5209360000000 1.0
C      1  0.5843280000000  0.4616580000000  0.5036050000000 1.0
C      1  0.5842330000000  0.4793960000000  0.5226150000000 1.0
C      1  0.5833700000000  0.4950110000000  0.5438800000000 1.0
C      1  0.5773510000000  0.5338100000000  0.5134230000000 1.0
C      1  0.5817270000000  0.5244650000000  0.4852030000000 1.0
C      1  0.5836970000000  0.4989900000000  0.4686660000000 1.0
C      1  0.5820170000000  0.4704070000000  0.4741480000000 1.0
C      1  0.4591130000000  0.4759220000000  0.5754540000000 1.0
C      1  0.4612910000000  0.5438140000000  0.5634510000000 1.0
C      1  0.4600840000000  0.5785720000000  0.5047780000000 1.0
C      1  0.4612170000000  0.5513990000000  0.4401870000000 1.0
C      1  0.4606690000000  0.4865040000000  0.4244890000000 1.0
C      1  0.4591500000000  0.4292140000000  0.4612700000000 1.0
C      1  0.4587470000000  0.4265500000000  0.5287570000000 1.0
C      1  0.4962580000000  0.5853350000000  0.5348870000000 1.0
C      1  0.4930810000000  0.5789940000000  0.4533770000000 1.0
C      1  0.4887920000000  0.5141520000000  0.4049190000000 1.0
C      1  0.4936000000000  0.4366420000000  0.4333340000000 1.0
C      1  0.4952120000000  0.4072880000000  0.5073470000000 1.0
C      1  0.4948960000000  0.4481370000000  0.5759550000000 1.0
C      1  0.4943220000000  0.5248230000000  0.5837340000000 1.0
C      1  0.5591570000000  0.4826840000000  0.5874660000000 1.0
C      1  0.5578860000000  0.5682730000000  0.5674760000000 1.0
C      1  0.5587030000000  0.5823170000000  0.4933000000000 1.0
C      1  0.5636830000000  0.5502140000000  0.4351350000000 1.0
C      1  0.5640130000000  0.4801060000000  0.4172080000000 1.0
C      1  0.5585480000000  0.4227610000000  0.4621610000000 1.0
C      1  0.5605030000000  0.4248590000000  0.5395020000000 1.0
C      1  0.5718450000000  0.4373050000000  0.5156120000000 1.0
C      1  0.5727120000000  0.4761660000000  0.5626690000000 1.0
C      1  0.5729540000000  0.5211240000000  0.5394780000000 1.0
C      1  0.5680060000000  0.5611260000000  0.5111140000000 1.0
C      1  0.5694310000000  0.5423730000000  0.4662790000000 1.0
C      1  0.5729480000000  0.4979550000000  0.4427250000000 1.0
C      1  0.5687760000000  0.4498280000000  0.4588240000000 1.0
C      1  0.4457620000000  0.5367850000000  0.4212430000000 1.0
C      1  0.4505210000000  0.4605900000000  0.4296460000000 1.0
C      1  0.4507090000000  0.4199690000000  0.4856420000000 1.0
C      1  0.4499550000000  0.4389150000000  0.5514190000000 1.0
C      1  0.4500060000000  0.5010830000000  0.5801360000000 1.0
C      1  0.4518920000000  0.5640300000000  0.5456240000000 1.0
C      1  0.4509240000000  0.5765680000000  0.4784850000000 1.0
C      1  0.4767190000000  0.4050310000000  0.5306900000000 1.0
C      1  0.4771480000000  0.4641470000000  0.5927710000000 1.0
C      1  0.4781690000000  0.5491800000000  0.5851360000000 1.0
C      1  0.4787330000000  0.5985800000000  0.5136590000000 1.0
C      1  0.4770300000000  0.5739800000000  0.4296580000000 1.0
C      1  0.4762280000000  0.4881150000000  0.4006540000000 1.0
C      1  0.4768960000000  0.4156180000000  0.4447480000000 1.0
C      1  0.4829630000000  0.5063120000000  0.5376150000000 1.0
C      1  0.4877320000000  0.5325080000000  0.5153630000000 1.0
C      1  0.4951280000000  0.5329100000000  0.4819580000000 1.0
C      1  0.4780710000000  0.5027860000000  0.4725880000000 1.0
C      1  0.4949920000000  0.4736800000000  0.4726850000000 1.0
C      1  0.4860280000000  0.4575460000000  0.5013830000000 1.0
C      1  0.4852810000000  0.4727550000000  0.5321480000000 1.0
C      1  0.5419100000000  0.5877760000000  0.4699690000000 1.0
C      1  0.5425200000000  0.5310120000000  0.4173970000000 1.0
C      1  0.5384350000000  0.4616190000000  0.4229320000000 1.0
C      1  0.5431000000000  0.4111590000000  0.4843570000000 1.0
C      1  0.5421020000000  0.4355700000000  0.5589190000000 1.0
C      1  0.5433460000000  0.5070650000000  0.5869070000000 1.0
C      1  0.5355820000000  0.5770790000000  0.5484980000000 1.0
C      1  0.5186040000000  0.4901120000000  0.5885850000000 1.0
C      1  0.5167280000000  0.5638830000000  0.5654020000000 1.0
C      1  0.5148770000000  0.5847820000000  0.4874240000000 1.0
C      1  0.5137490000000  0.5431410000000  0.4240570000000 1.0
C      1  0.5118860000000  0.4725320000000  0.4210080000000 1.0
C      1  0.5158670000000  0.4188140000000  0.4713250000000 1.0
C      1  0.5160490000000  0.4291100000000  0.5457790000000 1.0
C      1  0.4198200000000  0.4717110000000  0.4445250000000 1.0
C      1  0.4217250000000  0.4359230000000  0.4881110000000 1.0
C      1  0.4230900000000  0.4527500000000  0.5400840000000 1.0
C      1  0.4234230000000  0.5018280000000  0.5626940000000 1.0
C      1  0.4221190000000  0.5510810000000  0.5377220000000 1.0
C      1  0.4203550000000  0.5598880000000  0.4838750000000 1.0
C      1  0.4251920000000  0.5256950000000  0.4395790000000 1.0
C      1  0.5478220000000  0.5106790000000  0.4375930000000 1.0
C      1  0.5406030000000  0.4561270000000  0.4503630000000 1.0
C      1  0.5451170000000  0.4335030000000  0.5033290000000 1.0
C      1  0.5459690000000  0.4627760000000  0.5551590000000 1.0
C      1  0.5502210000000  0.5216580000000  0.5601990000000 1.0
C      1  0.5413990000000  0.5593890000000  0.5238590000000 1.0
C      1  0.5405940000000  0.5466150000000  0.4685950000000 1.0
C      1  0.4738310000000  0.3987040000000  0.4895510000000 1.0
C      1  0.4735890000000  0.4290030000000  0.5715090000000 1.0
C      1  0.4740980000000  0.5105290000000  0.5986790000000 1.0
C      1  0.4738480000000  0.5848220000000  0.5532090000000 1.0
C      1  0.4724540000000  0.5954090000000  0.4657650000000 1.0
C      1  0.4693980000000  0.5361250000000  0.4032480000000 1.0
C      1  0.4721320000000  0.4440470000000  0.4153350000000 1.0
C      1  0.4899420000000  0.5558720000000  0.4099500000000 1.0
C      1  0.4902710000000  0.4626640000000  0.4018870000000 1.0
C      1  0.4906480000000  0.4008380000000  0.4662930000000 1.0
C      1  0.4909540000000  0.4127270000000  0.5554600000000 1.0
C      1  0.4919940000000  0.4882180000000  0.6025270000000 1.0
C      1  0.4905820000000  0.5733620000000  0.5740770000000 1.0
C      1  0.4897730000000  0.6033510000000  0.4872250000000 1.0
C      1  0.5018790000000  0.5182350000000  0.4332760000000 1.0
C      1  0.4988430000000  0.4625630000000  0.4457050000000 1.0
C      1  0.5023760000000  0.4342650000000  0.4973040000000 1.0
C      1  0.5019480000000  0.4558690000000  0.5483110000000 1.0
C      1  0.5018850000000  0.5119600000000  0.5582810000000 1.0
C      1  0.4982420000000  0.5562330000000  0.5275280000000 1.0
C      1  0.5005160000000  0.5605340000000  0.4745930000000 1.0
C      1  0.5337860000000  0.4294670000000  0.4499350000000 1.0
C      1  0.5378280000000  0.4147420000000  0.5243630000000 1.0
C      1  0.5352150000000  0.4666390000000  0.5837780000000 1.0
C      1  0.5389170000000  0.5468350000000  0.5768380000000 1.0
C      1  0.5344680000000  0.5829400000000  0.5089930000000 1.0
C      1  0.5411150000000  0.5685550000000  0.4486370000000 1.0
C      1  0.5391990000000  0.5009550000000  0.4133110000000 1.0
C      1  0.4576460000000  0.4417120000000  0.5060460000000 1.0
C      1  0.4590210000000  0.4688340000000  0.5489880000000 1.0
C      1  0.4599440000000  0.5170550000000  0.5530300000000 1.0
C      1  0.4574930000000  0.5532120000000  0.5176450000000 1.0
C      1  0.4557660000000  0.5498100000000  0.4680420000000 1.0
C      1  0.4592540000000  0.5027850000000  0.4486610000000 1.0
C      1  0.4535780000000  0.4547520000000  0.4574390000000 1.0
C      1  0.4397290000000  0.4968360000000  0.5104960000000 1.0
C      1  0.5364190000000  0.5095510000000  0.5027310000000 1.0
C      1  0.5090940000000  0.4999230000000  0.5055200000000 1.0
C      1  0.4576550000000  0.4996190000000  0.4927720000000 1.0
END
