TITL C-2441165-58-738 0.119290193805769 125000 -18079.3092191944 0 0 142 (C1) n - 1
REM
REM in /home/bkarasulu/work/CARBON/AIRSS/Generating-Clusters/ReaxFF-fromJPCA2015/Units_Real/with-SteepDescent/Higher-Symm
REM
REM
REM
REM
REM
REM ./C.cell (1df0a924f5614ab8850e4351716899ee)
REM
REM compiler GCC version 9.2.1 20190827 (Red Hat 9.2.1-1)
REM options -cpp -mtune=generic -march=x86-64 -g -O0 -fpre-include=/usr/include/finclude/math-vector-fortran.h
REM seed 52224769 1008197331 -1306406991 -882824805 -644115324 421119978 574787568 -1061488519 705241758 1900778032 -1246627754 -690045955 1216952597 -991897600 2049447063 -590220780 -1556221463 2083665718 2110749893 -118721317 -1889427200 1871508534 1977977178 1558559840 2008068700 -928576219 927096896 -1629301680 -938115154 781646407 1554107661 -2063611633 -1222884529
REM
CELL 1.54180   50.00000   50.00000   50.00000   90.00000   90.00000   90.00000
LATT -1
SFAC C  
C      1  0.4850410000000  0.4980640000000  0.5857950000000 1.0
C      1  0.5146070000000  0.4971980000000  0.4165820000000 1.0
C      1  0.5157250000000  0.4982870000000  0.5856240000000 1.0
C      1  0.4840280000000  0.4979870000000  0.4155860000000 1.0
C      1  0.5599430000000  0.4836930000000  0.4839680000000 1.0
C      1  0.4400920000000  0.4837040000000  0.5152230000000 1.0
C      1  0.4401840000000  0.4847560000000  0.4846240000000 1.0
C      1  0.5604010000000  0.4842710000000  0.5149950000000 1.0
C      1  0.4869190000000  0.4368880000000  0.4688000000000 1.0
C      1  0.5131010000000  0.4329710000000  0.5321030000000 1.0
C      1  0.5136550000000  0.4357460000000  0.4683840000000 1.0
C      1  0.4849820000000  0.4315710000000  0.5325900000000 1.0
C      1  0.5243110000000  0.5741400000000  0.5573740000000 1.0
C      1  0.4747480000000  0.5734720000000  0.4428890000000 1.0
C      1  0.4753800000000  0.5737390000000  0.5579410000000 1.0
C      1  0.5245570000000  0.5735910000000  0.4422840000000 1.0
C      1  0.5144620000000  0.5741890000000  0.5292140000000 1.0
C      1  0.4853700000000  0.5750340000000  0.4704870000000 1.0
C      1  0.4856230000000  0.5745550000000  0.5297440000000 1.0
C      1  0.5140930000000  0.5753110000000  0.4699840000000 1.0
C      1  0.4507970000000  0.4504560000000  0.4478950000000 1.0
C      1  0.5499030000000  0.4498240000000  0.5523950000000 1.0
C      1  0.5493080000000  0.4504930000000  0.4474570000000 1.0
C      1  0.4496540000000  0.4500610000000  0.5532630000000 1.0
C      1  0.5729300000000  0.5205720000000  0.4388930000000 1.0
C      1  0.4265490000000  0.5206630000000  0.5607810000000 1.0
C      1  0.4292890000000  0.5201610000000  0.4358520000000 1.0
C      1  0.5708140000000  0.5200070000000  0.5641420000000 1.0
C      1  0.4506290000000  0.4578120000000  0.5255260000000 1.0
C      1  0.5461970000000  0.4595170000000  0.4740340000000 1.0
C      1  0.5481710000000  0.4574330000000  0.5257030000000 1.0
C      1  0.4542860000000  0.4599910000000  0.4746020000000 1.0
C      1  0.4867880000000  0.4977850000000  0.4640270000000 1.0
C      1  0.5149220000000  0.5011690000000  0.5334330000000 1.0
C      1  0.5154480000000  0.4976710000000  0.4665330000000 1.0
C      1  0.4860490000000  0.5006780000000  0.5344310000000 1.0
C      1  0.4376660000000  0.5589680000000  0.4845920000000 1.0
C      1  0.5624700000000  0.5589160000000  0.5138840000000 1.0
C      1  0.5624460000000  0.5590100000000  0.4860380000000 1.0
C      1  0.4376880000000  0.5585260000000  0.5130940000000 1.0
C      1  0.5890640000000  0.4719780000000  0.4843870000000 1.0
C      1  0.4109540000000  0.4722440000000  0.5152220000000 1.0
C      1  0.4111000000000  0.4726000000000  0.4848490000000 1.0
C      1  0.5894100000000  0.4724940000000  0.5148670000000 1.0
C      1  0.4064800000000  0.5177250000000  0.4843860000000 1.0
C      1  0.5940790000000  0.5175760000000  0.5154250000000 1.0
C      1  0.5942490000000  0.5172120000000  0.4856340000000 1.0
C      1  0.4058120000000  0.5174770000000  0.5141090000000 1.0
C      1  0.4100390000000  0.4461550000000  0.5261270000000 1.0
C      1  0.5895250000000  0.4458370000000  0.4733450000000 1.0
C      1  0.5901350000000  0.4464240000000  0.5257610000000 1.0
C      1  0.4106030000000  0.4464160000000  0.4735600000000 1.0
C      1  0.5512310000000  0.5653540000000  0.4445370000000 1.0
C      1  0.4486790000000  0.5654500000000  0.5556300000000 1.0
C      1  0.4475270000000  0.5662470000000  0.4457140000000 1.0
C      1  0.5510980000000  0.5659970000000  0.5551470000000 1.0
C      1  0.5316640000000  0.5251380000000  0.4668000000000 1.0
C      1  0.4678980000000  0.5254430000000  0.5335520000000 1.0
C      1  0.4703020000000  0.5230530000000  0.4663280000000 1.0
C      1  0.5304760000000  0.5253020000000  0.5324550000000 1.0
C      1  0.5152400000000  0.4076290000000  0.4713020000000 1.0
C      1  0.4835610000000  0.4054000000000  0.5285980000000 1.0
C      1  0.4849730000000  0.4078970000000  0.4717570000000 1.0
C      1  0.5165270000000  0.4058450000000  0.5284100000000 1.0
C      1  0.4848910000000  0.5440740000000  0.4845680000000 1.0
C      1  0.5144190000000  0.5445580000000  0.5162770000000 1.0
C      1  0.5148350000000  0.5442300000000  0.4843900000000 1.0
C      1  0.4843960000000  0.5443970000000  0.5165280000000 1.0
C      1  0.4593120000000  0.4094480000000  0.4858170000000 1.0
C      1  0.5413650000000  0.4086230000000  0.5137000000000 1.0
C      1  0.5408020000000  0.4094430000000  0.4857810000000 1.0
C      1  0.4587100000000  0.4080830000000  0.5136720000000 1.0
C      1  0.5632170000000  0.4319120000000  0.5142730000000 1.0
C      1  0.4375250000000  0.4327820000000  0.4844120000000 1.0
C      1  0.4367900000000  0.4316910000000  0.5140570000000 1.0
C      1  0.5622230000000  0.4325510000000  0.4846190000000 1.0
C      1  0.5316420000000  0.5207310000000  0.4164010000000 1.0
C      1  0.4676800000000  0.5213170000000  0.5844050000000 1.0
C      1  0.4651520000000  0.5207000000000  0.4167360000000 1.0
C      1  0.5344560000000  0.5206220000000  0.5836210000000 1.0
C      1  0.5146550000000  0.4467660000000  0.4191280000000 1.0
C      1  0.4853710000000  0.4476670000000  0.5782750000000 1.0
C      1  0.4854730000000  0.4472490000000  0.4196270000000 1.0
C      1  0.5143410000000  0.4462990000000  0.5796800000000 1.0
C      1  0.4892930000000  0.4714630000000  0.5440120000000 1.0
C      1  0.5142270000000  0.4701490000000  0.4526550000000 1.0
C      1  0.5168760000000  0.4765190000000  0.5486510000000 1.0
C      1  0.4850960000000  0.4714520000000  0.4526330000000 1.0
C      1  0.4465730000000  0.4724880000000  0.4308880000000 1.0
C      1  0.5523600000000  0.4721750000000  0.5676210000000 1.0
C      1  0.5539580000000  0.4727670000000  0.4304120000000 1.0
C      1  0.4455390000000  0.4728770000000  0.5699110000000 1.0
C      1  0.5234130000000  0.4540250000000  0.4873680000000 1.0
C      1  0.4776990000000  0.4557920000000  0.5181260000000 1.0
C      1  0.4781080000000  0.4551120000000  0.4892710000000 1.0
C      1  0.5221320000000  0.4549220000000  0.5150940000000 1.0
C      1  0.5318210000000  0.5913090000000  0.4855180000000 1.0
C      1  0.4680290000000  0.5910370000000  0.5145320000000 1.0
C      1  0.4683140000000  0.5919410000000  0.4861280000000 1.0
C      1  0.5316900000000  0.5912380000000  0.5139470000000 1.0
C      1  0.4863880000000  0.5558880000000  0.4249640000000 1.0
C      1  0.5129520000000  0.5560060000000  0.5751150000000 1.0
C      1  0.5118530000000  0.5564830000000  0.4239960000000 1.0
C      1  0.4878790000000  0.5566230000000  0.5763170000000 1.0
C      1  0.5538810000000  0.5801680000000  0.4696820000000 1.0
C      1  0.4460640000000  0.5797200000000  0.5302820000000 1.0
C      1  0.4459290000000  0.5820890000000  0.4702790000000 1.0
C      1  0.5536850000000  0.5808200000000  0.5300760000000 1.0
C      1  0.4509290000000  0.5125820000000  0.4857040000000 1.0
C      1  0.5500900000000  0.5126990000000  0.5132790000000 1.0
C      1  0.5495880000000  0.5118990000000  0.4855500000000 1.0
C      1  0.4510560000000  0.5113260000000  0.5139860000000 1.0
C      1  0.4842080000000  0.5372460000000  0.4026730000000 1.0
C      1  0.5161910000000  0.5378400000000  0.5977790000000 1.0
C      1  0.5145840000000  0.5377180000000  0.4014810000000 1.0
C      1  0.4855290000000  0.5377400000000  0.5991910000000 1.0
C      1  0.4114070000000  0.5458440000000  0.5140250000000 1.0
C      1  0.5890740000000  0.5461610000000  0.4855110000000 1.0
C      1  0.5892420000000  0.5461290000000  0.5149960000000 1.0
C      1  0.4104020000000  0.5465830000000  0.4848740000000 1.0
C      1  0.5729690000000  0.4916860000000  0.5625690000000 1.0
C      1  0.4263720000000  0.4924600000000  0.4372360000000 1.0
C      1  0.4250140000000  0.4930420000000  0.5627180000000 1.0
C      1  0.5745630000000  0.4929140000000  0.4369700000000 1.0
C      1  0.4725350000000  0.4333600000000  0.4421630000000 1.0
C      1  0.5282240000000  0.4321490000000  0.5584190000000 1.0
C      1  0.5276730000000  0.4330900000000  0.4418530000000 1.0
C      1  0.4709660000000  0.4315230000000  0.5578050000000 1.0
C      1  0.5484920000000  0.5349070000000  0.4399460000000 1.0
C      1  0.4512310000000  0.5349120000000  0.5605270000000 1.0
C      1  0.4526720000000  0.5348650000000  0.4406870000000 1.0
C      1  0.5473100000000  0.5356650000000  0.5587210000000 1.0
C      1  0.5291320000000  0.4720760000000  0.4146720000000 1.0
C      1  0.4707070000000  0.4726270000000  0.5843830000000 1.0
C      1  0.4706710000000  0.4722220000000  0.4144770000000 1.0
C      1  0.5289690000000  0.4716090000000  0.5852850000000 1.0
C      1  0.5857040000000  0.5076890000000  0.5420740000000 1.0
C      1  0.4149840000000  0.5085610000000  0.4580700000000 1.0
C      1  0.4162230000000  0.5077210000000  0.5394750000000 1.0
C      1  0.5843280000000  0.5076410000000  0.4598470000000 1.0
C      1  0.4882230000000  0.4999310000000  0.5039750000000 1.0
C      1  0.5098710000000  0.4948040000000  0.4969690000000 1.0
END
