TITL C-2441169-1362-266 0.160333643420927 125000 -15679.9150510216 0 0 139 (C1) n - 1
REM
REM in /home/bkarasulu/work/CARBON/AIRSS/Generating-Clusters/ReaxFF-fromJPCA2015/Units_Real/with-SteepDescent/Higher-Symm
REM
REM
REM
REM
REM
REM ./C.cell (1df0a924f5614ab8850e4351716899ee)
REM
REM compiler GCC version 9.2.1 20190827 (Red Hat 9.2.1-1)
REM options -cpp -mtune=generic -march=x86-64 -g -O0 -fpre-include=/usr/include/finclude/math-vector-fortran.h
REM seed -2037823171 786432735 1915820838 -1617704562 1090389228 1315429058 978129085 1106888745 -1366672138 -605620137 -1497008517 313728456 -1645599305 -435591056 -1650825831 34996467 -677556803 1525455372 -1587384545 1918992291 -1292593414 443476617 1766830550 1692813404 -1047343241 406876883 154962870 1957281452 854796686 1449342421 2087193929 1894606241 1040204649
REM
CELL 1.54180   50.00000   50.00000   50.00000   90.00000   90.00000   90.00000
LATT -1
SFAC C  
C      1  0.4540290000000  0.4650110000000  0.4820220000000 1.0
C      1  0.4539930000000  0.5284670000000  0.4851660000000 1.0
C      1  0.5170950000000  0.5548380000000  0.4795340000000 1.0
C      1  0.5557250000000  0.4992340000000  0.4820740000000 1.0
C      1  0.5170290000000  0.4469690000000  0.4823370000000 1.0
C      1  0.4538470000000  0.4674780000000  0.5139950000000 1.0
C      1  0.4524620000000  0.5266960000000  0.5136400000000 1.0
C      1  0.5160040000000  0.5529530000000  0.5134330000000 1.0
C      1  0.5582630000000  0.5009820000000  0.5147230000000 1.0
C      1  0.5180400000000  0.4460920000000  0.5149880000000 1.0
C      1  0.4170870000000  0.4405290000000  0.4838420000000 1.0
C      1  0.4203720000000  0.5634110000000  0.4855100000000 1.0
C      1  0.5343170000000  0.5971450000000  0.4850390000000 1.0
C      1  0.6030430000000  0.4955770000000  0.4809490000000 1.0
C      1  0.5289930000000  0.4009800000000  0.4814100000000 1.0
C      1  0.4139320000000  0.4403080000000  0.5137290000000 1.0
C      1  0.4233490000000  0.5648820000000  0.5142520000000 1.0
C      1  0.5319040000000  0.5950530000000  0.5145540000000 1.0
C      1  0.6039710000000  0.4985990000000  0.5106300000000 1.0
C      1  0.5297200000000  0.4008120000000  0.5113430000000 1.0
C      1  0.4990050000000  0.5311860000000  0.5820860000000 1.0
C      1  0.5280640000000  0.5189780000000  0.5789310000000 1.0
C      1  0.5225930000000  0.4803180000000  0.5819000000000 1.0
C      1  0.4846510000000  0.4642750000000  0.5835920000000 1.0
C      1  0.4673050000000  0.5041560000000  0.5833820000000 1.0
C      1  0.4928240000000  0.5317070000000  0.4149600000000 1.0
C      1  0.5372110000000  0.5065140000000  0.4143880000000 1.0
C      1  0.5251290000000  0.4797180000000  0.4136350000000 1.0
C      1  0.4855390000000  0.4720390000000  0.4140300000000 1.0
C      1  0.4615680000000  0.5053300000000  0.4138240000000 1.0
C      1  0.5571090000000  0.5779650000000  0.5136400000000 1.0
C      1  0.6009470000000  0.4694840000000  0.5130430000000 1.0
C      1  0.5009180000000  0.3944220000000  0.5112730000000 1.0
C      1  0.3994980000000  0.4663530000000  0.5119050000000 1.0
C      1  0.4436010000000  0.5852720000000  0.5120080000000 1.0
C      1  0.5606360000000  0.5843170000000  0.4845070000000 1.0
C      1  0.5984390000000  0.4660590000000  0.4847730000000 1.0
C      1  0.5000790000000  0.3939240000000  0.4825750000000 1.0
C      1  0.4014630000000  0.4663730000000  0.4830450000000 1.0
C      1  0.4439740000000  0.5806330000000  0.4839650000000 1.0
C      1  0.5040710000000  0.5575900000000  0.4284790000000 1.0
C      1  0.5625680000000  0.5168640000000  0.4263570000000 1.0
C      1  0.5351350000000  0.4526190000000  0.4258300000000 1.0
C      1  0.4611500000000  0.4551570000000  0.4222190000000 1.0
C      1  0.4410560000000  0.5234390000000  0.4277430000000 1.0
C      1  0.4989940000000  0.5591840000000  0.5698950000000 1.0
C      1  0.5575430000000  0.5183410000000  0.5701890000000 1.0
C      1  0.5282340000000  0.4508110000000  0.5707640000000 1.0
C      1  0.4598270000000  0.4520820000000  0.5717040000000 1.0
C      1  0.4424890000000  0.5213700000000  0.5709880000000 1.0
C      1  0.4404340000000  0.5480230000000  0.4447020000000 1.0
C      1  0.5317190000000  0.5645340000000  0.4353750000000 1.0
C      1  0.5777990000000  0.4944650000000  0.4406110000000 1.0
C      1  0.5216150000000  0.4293320000000  0.4399210000000 1.0
C      1  0.4397400000000  0.4689710000000  0.4371850000000 1.0
C      1  0.4402360000000  0.5463730000000  0.5562000000000 1.0
C      1  0.5234420000000  0.5648410000000  0.5539490000000 1.0
C      1  0.5674290000000  0.4919940000000  0.5604130000000 1.0
C      1  0.5124040000000  0.4312160000000  0.5592130000000 1.0
C      1  0.4395010000000  0.4670890000000  0.5567510000000 1.0
C      1  0.5249810000000  0.5207380000000  0.4372150000000 1.0
C      1  0.5155940000000  0.4824320000000  0.4437130000000 1.0
C      1  0.4966270000000  0.4651860000000  0.4380500000000 1.0
C      1  0.4598670000000  0.4900890000000  0.4395140000000 1.0
C      1  0.4842260000000  0.5248430000000  0.4426580000000 1.0
C      1  0.5262140000000  0.5348440000000  0.5540880000000 1.0
C      1  0.5380730000000  0.4864440000000  0.5576860000000 1.0
C      1  0.4952090000000  0.4688620000000  0.5556700000000 1.0
C      1  0.4607490000000  0.4895490000000  0.5582000000000 1.0
C      1  0.4890340000000  0.5226480000000  0.5555350000000 1.0
C      1  0.4443240000000  0.5067110000000  0.5461070000000 1.0
C      1  0.4850160000000  0.5503190000000  0.5438800000000 1.0
C      1  0.5505630000000  0.5286900000000  0.5430640000000 1.0
C      1  0.5423580000000  0.4610120000000  0.5476220000000 1.0
C      1  0.4774010000000  0.4482610000000  0.5477080000000 1.0
C      1  0.4434180000000  0.5069610000000  0.4517690000000 1.0
C      1  0.4857290000000  0.5535350000000  0.4519780000000 1.0
C      1  0.5480520000000  0.5271770000000  0.4490810000000 1.0
C      1  0.5411270000000  0.4639020000000  0.4513370000000 1.0
C      1  0.4772190000000  0.4468380000000  0.4469510000000 1.0
C      1  0.5613680000000  0.5539440000000  0.5516790000000 1.0
C      1  0.5700910000000  0.4643940000000  0.5527990000000 1.0
C      1  0.4890310000000  0.4211100000000  0.5499120000000 1.0
C      1  0.4216020000000  0.4908080000000  0.5531880000000 1.0
C      1  0.4631090000000  0.5621870000000  0.5586700000000 1.0
C      1  0.5575870000000  0.5533700000000  0.4445900000000 1.0
C      1  0.5680110000000  0.4677960000000  0.4442730000000 1.0
C      1  0.4931660000000  0.4223430000000  0.4440190000000 1.0
C      1  0.4204540000000  0.4913260000000  0.4433580000000 1.0
C      1  0.4617370000000  0.5687780000000  0.4451080000000 1.0
C      1  0.4887960000000  0.4372290000000  0.4846630000000 1.0
C      1  0.4361960000000  0.4892090000000  0.4852000000000 1.0
C      1  0.4699110000000  0.5545860000000  0.4871620000000 1.0
C      1  0.5442650000000  0.5444180000000  0.4861120000000 1.0
C      1  0.5553310000000  0.4694330000000  0.4881100000000 1.0
C      1  0.4906030000000  0.4355450000000  0.5125820000000 1.0
C      1  0.4358260000000  0.4901790000000  0.5124380000000 1.0
C      1  0.4770730000000  0.5602120000000  0.5138320000000 1.0
C      1  0.5433790000000  0.5490720000000  0.5131810000000 1.0
C      1  0.5597950000000  0.4723420000000  0.5144240000000 1.0
C      1  0.5325030000000  0.4258950000000  0.4666810000000 1.0
C      1  0.4460560000000  0.4344920000000  0.4814220000000 1.0
C      1  0.4279850000000  0.5401180000000  0.4701190000000 1.0
C      1  0.5094650000000  0.5840970000000  0.4769400000000 1.0
C      1  0.5807680000000  0.5071030000000  0.4668370000000 1.0
C      1  0.5424070000000  0.4267600000000  0.5169280000000 1.0
C      1  0.4413570000000  0.4407290000000  0.5252710000000 1.0
C      1  0.4290650000000  0.5388030000000  0.5258550000000 1.0
C      1  0.5122240000000  0.5788220000000  0.5289420000000 1.0
C      1  0.5838520000000  0.5193360000000  0.5174880000000 1.0
C      1  0.5036630000000  0.5230830000000  0.4834920000000 1.0
C      1  0.5253630000000  0.5019370000000  0.4833110000000 1.0
C      1  0.5112590000000  0.4765230000000  0.4826280000000 1.0
C      1  0.4808900000000  0.4824440000000  0.4797160000000 1.0
C      1  0.4777590000000  0.5115420000000  0.4763100000000 1.0
C      1  0.5032780000000  0.5246480000000  0.5141120000000 1.0
C      1  0.5259530000000  0.5027810000000  0.5162590000000 1.0
C      1  0.5105450000000  0.4761400000000  0.5140410000000 1.0
C      1  0.4805210000000  0.4837230000000  0.5140890000000 1.0
C      1  0.4761830000000  0.5131320000000  0.5193750000000 1.0
C      1  0.4640690000000  0.5894620000000  0.4656430000000 1.0
C      1  0.5694180000000  0.5566830000000  0.4763560000000 1.0
C      1  0.5741170000000  0.4486040000000  0.4790780000000 1.0
C      1  0.4804800000000  0.4129760000000  0.4693380000000 1.0
C      1  0.4101160000000  0.4927050000000  0.4716850000000 1.0
C      1  0.4743600000000  0.5887690000000  0.5140670000000 1.0
C      1  0.5792030000000  0.5596290000000  0.5300930000000 1.0
C      1  0.5803030000000  0.4523750000000  0.5266220000000 1.0
C      1  0.4789630000000  0.4104630000000  0.5228490000000 1.0
C      1  0.4089120000000  0.4926360000000  0.5249290000000 1.0
C      1  0.5671580000000  0.4340180000000  0.5044570000000 1.0
C      1  0.4840640000000  0.5945720000000  0.4864910000000 1.0
C      1  0.4093340000000  0.5193870000000  0.5016930000000 1.0
C      1  0.5838990000000  0.5451310000000  0.5050360000000 1.0
C      1  0.4512600000000  0.4210120000000  0.5068360000000 1.0
C      1  0.4903460000000  0.5024110000000  0.4074830000000 1.0
C      1  0.4924600000000  0.4914600000000  0.5915840000000 1.0
C      1  0.5066930000000  0.5086780000000  0.4477860000000 1.0
C      1  0.4980080000000  0.4961300000000  0.5498480000000 1.0
END
