TITL C-2441168-9922-609 0.0600399593043871 125000 -21739.61453235 0 0 149 (C1) n - 1
REM
REM in /home/bkarasulu/work/CARBON/AIRSS/Generating-Clusters/ReaxFF-fromJPCA2015/Units_Real/with-SteepDescent/Higher-Symm
REM
REM
REM
REM
REM
REM ./C.cell (1df0a924f5614ab8850e4351716899ee)
REM
REM compiler GCC version 9.2.1 20190827 (Red Hat 9.2.1-1)
REM options -cpp -mtune=generic -march=x86-64 -g -O0 -fpre-include=/usr/include/finclude/math-vector-fortran.h
REM seed -774745612 1768036743 -1391515350 1433748772 1297346857 -932294758 797782979 1987617210 -860597375 -1131837504 1829270168 573448455 -1472593111 -18743481 1764711972 1318850995 -1763431310 -1425645117 1553790362 -2003390743 1399987036 1749473472 928665329 -175709470 -1966952635 1113499327 125913596 -1888584328 -1881577499 1136927564 147842281 425520230 -1590162138
REM
CELL 1.54180   50.00000   50.00000   50.00000   90.00000   90.00000   90.00000
LATT -1
SFAC C  
C      1  0.5549460000000  0.5763560000000  0.5322700000000 1.0
C      1  0.5607490000000  0.4916080000000  0.5842170000000 1.0
C      1  0.5600140000000  0.4114300000000  0.5178130000000 1.0
C      1  0.5599420000000  0.4548850000000  0.4231900000000 1.0
C      1  0.5535490000000  0.5546880000000  0.4377230000000 1.0
C      1  0.4448320000000  0.4237670000000  0.5322290000000 1.0
C      1  0.4397360000000  0.5082010000000  0.5853220000000 1.0
C      1  0.4450430000000  0.5814720000000  0.5182060000000 1.0
C      1  0.4460480000000  0.5417700000000  0.4296830000000 1.0
C      1  0.4451310000000  0.4461750000000  0.4385010000000 1.0
C      1  0.4654240000000  0.4805450000000  0.4055970000000 1.0
C      1  0.4636920000000  0.5873870000000  0.4522980000000 1.0
C      1  0.4641800000000  0.5730040000000  0.5678140000000 1.0
C      1  0.4660700000000  0.4609760000000  0.5877240000000 1.0
C      1  0.4654370000000  0.4065560000000  0.4881440000000 1.0
C      1  0.5367380000000  0.5171740000000  0.4017650000000 1.0
C      1  0.5349650000000  0.4162150000000  0.4539480000000 1.0
C      1  0.5356440000000  0.4278590000000  0.5655910000000 1.0
C      1  0.5339930000000  0.5388200000000  0.5870210000000 1.0
C      1  0.5353450000000  0.5967990000000  0.4875420000000 1.0
C      1  0.5080640000000  0.5116880000000  0.3955300000000 1.0
C      1  0.5076990000000  0.6028170000000  0.4793400000000 1.0
C      1  0.5055660000000  0.5478730000000  0.5876000000000 1.0
C      1  0.5067470000000  0.4316760000000  0.5706870000000 1.0
C      1  0.5066460000000  0.4103480000000  0.4555310000000 1.0
C      1  0.4930040000000  0.4862260000000  0.3959980000000 1.0
C      1  0.4927920000000  0.4004890000000  0.4797040000000 1.0
C      1  0.4953610000000  0.4538130000000  0.5869690000000 1.0
C      1  0.4924990000000  0.5702590000000  0.5755600000000 1.0
C      1  0.4921150000000  0.5961690000000  0.4550940000000 1.0
C      1  0.3992840000000  0.5185110000000  0.4833910000000 1.0
C      1  0.3985610000000  0.5215860000000  0.5120660000000 1.0
C      1  0.3965030000000  0.4959880000000  0.5257610000000 1.0
C      1  0.4004150000000  0.4767960000000  0.5026880000000 1.0
C      1  0.3978080000000  0.4905830000000  0.4759560000000 1.0
C      1  0.5994490000000  0.4810560000000  0.4827590000000 1.0
C      1  0.5949640000000  0.4787180000000  0.5117260000000 1.0
C      1  0.6026150000000  0.5057400000000  0.5248430000000 1.0
C      1  0.5982540000000  0.5232630000000  0.5025210000000 1.0
C      1  0.5972070000000  0.5089180000000  0.4780960000000 1.0
C      1  0.5167590000000  0.4734980000000  0.5883860000000 1.0
C      1  0.5071730000000  0.4036150000000  0.5037630000000 1.0
C      1  0.5071690000000  0.4655770000000  0.4086430000000 1.0
C      1  0.5063020000000  0.5747720000000  0.4433040000000 1.0
C      1  0.5086020000000  0.5758490000000  0.5482150000000 1.0
C      1  0.4842910000000  0.5251520000000  0.5785080000000 1.0
C      1  0.4926660000000  0.5943800000000  0.5017960000000 1.0
C      1  0.4937360000000  0.5284230000000  0.4135860000000 1.0
C      1  0.4891290000000  0.4284470000000  0.4417830000000 1.0
C      1  0.4888140000000  0.4262900000000  0.5483410000000 1.0
C      1  0.5160860000000  0.5355610000000  0.4312960000000 1.0
C      1  0.5119330000000  0.5938070000000  0.5235610000000 1.0
C      1  0.5199630000000  0.5006590000000  0.5784360000000 1.0
C      1  0.5276350000000  0.4345790000000  0.5232350000000 1.0
C      1  0.5256600000000  0.4572200000000  0.4442060000000 1.0
C      1  0.4888420000000  0.4459040000000  0.4184320000000 1.0
C      1  0.4890750000000  0.4075750000000  0.5254630000000 1.0
C      1  0.4811930000000  0.4968980000000  0.5765340000000 1.0
C      1  0.4848420000000  0.5671900000000  0.5333890000000 1.0
C      1  0.4855440000000  0.5546840000000  0.4431920000000 1.0
C      1  0.4244930000000  0.4438360000000  0.5302800000000 1.0
C      1  0.4243700000000  0.4543110000000  0.4564810000000 1.0
C      1  0.4254670000000  0.5273340000000  0.4435370000000 1.0
C      1  0.4247130000000  0.5631910000000  0.5084910000000 1.0
C      1  0.4222370000000  0.5117280000000  0.5625320000000 1.0
C      1  0.5751290000000  0.5558230000000  0.5306040000000 1.0
C      1  0.5732810000000  0.5462420000000  0.4565010000000 1.0
C      1  0.5764060000000  0.4714930000000  0.4404960000000 1.0
C      1  0.5774640000000  0.4330280000000  0.5081430000000 1.0
C      1  0.5787250000000  0.4879980000000  0.5618390000000 1.0
C      1  0.4819070000000  0.4795440000000  0.4622610000000 1.0
C      1  0.4849160000000  0.5416220000000  0.4716100000000 1.0
C      1  0.4841950000000  0.5404470000000  0.5291840000000 1.0
C      1  0.4814470000000  0.4855570000000  0.5487680000000 1.0
C      1  0.4945330000000  0.4628360000000  0.5069500000000 1.0
C      1  0.5218470000000  0.5147900000000  0.4532200000000 1.0
C      1  0.5223530000000  0.4590190000000  0.4730880000000 1.0
C      1  0.5159600000000  0.4592730000000  0.5257090000000 1.0
C      1  0.5195900000000  0.5104690000000  0.5490170000000 1.0
C      1  0.5167280000000  0.5376880000000  0.5059360000000 1.0
C      1  0.5361100000000  0.5642920000000  0.5486710000000 1.0
C      1  0.5443680000000  0.4687930000000  0.5838540000000 1.0
C      1  0.5342840000000  0.4175700000000  0.5008830000000 1.0
C      1  0.5336340000000  0.4731760000000  0.4217750000000 1.0
C      1  0.5316660000000  0.5650260000000  0.4548100000000 1.0
C      1  0.4620580000000  0.4347740000000  0.5503560000000 1.0
C      1  0.4564370000000  0.5307850000000  0.5817050000000 1.0
C      1  0.4651220000000  0.5843000000000  0.4983800000000 1.0
C      1  0.4658790000000  0.5234180000000  0.4213560000000 1.0
C      1  0.4651750000000  0.4358390000000  0.4547080000000 1.0
C      1  0.4146480000000  0.5370190000000  0.4677620000000 1.0
C      1  0.4130820000000  0.5429020000000  0.5245520000000 1.0
C      1  0.4132370000000  0.4896280000000  0.5480910000000 1.0
C      1  0.4147090000000  0.4498790000000  0.5046920000000 1.0
C      1  0.4139180000000  0.4802970000000  0.4548630000000 1.0
C      1  0.5842410000000  0.4627930000000  0.4674390000000 1.0
C      1  0.5875310000000  0.4531300000000  0.5260350000000 1.0
C      1  0.5878670000000  0.5110600000000  0.5482670000000 1.0
C      1  0.5754690000000  0.5432050000000  0.5047660000000 1.0
C      1  0.5745110000000  0.5169830000000  0.4606210000000 1.0
C      1  0.4556440000000  0.4818990000000  0.5022550000000 1.0
C      1  0.4610660000000  0.4962570000000  0.4768750000000 1.0
C      1  0.4658580000000  0.5233870000000  0.4859030000000 1.0
C      1  0.4663780000000  0.5234190000000  0.5148290000000 1.0
C      1  0.4645890000000  0.4968130000000  0.5267860000000 1.0
C      1  0.5452380000000  0.5254430000000  0.5039410000000 1.0
C      1  0.5434760000000  0.5105640000000  0.4762230000000 1.0
C      1  0.5360080000000  0.4837980000000  0.4858630000000 1.0
C      1  0.5427900000000  0.4820680000000  0.5137390000000 1.0
C      1  0.5378260000000  0.5072520000000  0.5265630000000 1.0
C      1  0.5410750000000  0.4355540000000  0.4336160000000 1.0
C      1  0.5401170000000  0.5428560000000  0.4152740000000 1.0
C      1  0.5395400000000  0.5952340000000  0.5157320000000 1.0
C      1  0.5423300000000  0.5120200000000  0.5931330000000 1.0
C      1  0.5416890000000  0.4159890000000  0.5401370000000 1.0
C      1  0.4605560000000  0.5662150000000  0.4333170000000 1.0
C      1  0.4610590000000  0.4540350000000  0.4154310000000 1.0
C      1  0.4616230000000  0.4056120000000  0.5165790000000 1.0
C      1  0.4593810000000  0.4882170000000  0.5941110000000 1.0
C      1  0.4620350000000  0.5835480000000  0.5412270000000 1.0
C      1  0.4275560000000  0.5593380000000  0.4805760000000 1.0
C      1  0.4243510000000  0.5378420000000  0.5504960000000 1.0
C      1  0.4263880000000  0.4643190000000  0.5506220000000 1.0
C      1  0.4295370000000  0.4418990000000  0.4819930000000 1.0
C      1  0.4279470000000  0.4992570000000  0.4389060000000 1.0
C      1  0.5713410000000  0.4411060000000  0.4809590000000 1.0
C      1  0.5756480000000  0.4610150000000  0.5505630000000 1.0
C      1  0.5742530000000  0.5359960000000  0.5512020000000 1.0
C      1  0.5697010000000  0.5598290000000  0.4811460000000 1.0
C      1  0.5710050000000  0.4994660000000  0.4366910000000 1.0
C      1  0.5531350000000  0.4503810000000  0.5653500000000 1.0
C      1  0.5433190000000  0.4320670000000  0.4767780000000 1.0
C      1  0.5468400000000  0.4995860000000  0.4213460000000 1.0
C      1  0.5436100000000  0.5713960000000  0.4789560000000 1.0
C      1  0.5482920000000  0.5434650000000  0.5627940000000 1.0
C      1  0.4463220000000  0.5502650000000  0.5645940000000 1.0
C      1  0.4518320000000  0.5749390000000  0.4750050000000 1.0
C      1  0.4530720000000  0.4983480000000  0.4238890000000 1.0
C      1  0.4577550000000  0.4330680000000  0.4808140000000 1.0
C      1  0.4503790000000  0.4556670000000  0.5645720000000 1.0
C      1  0.4987160000000  0.5289480000000  0.5513620000000 1.0
C      1  0.4996120000000  0.4636960000000  0.5473530000000 1.0
C      1  0.5018600000000  0.4983750000000  0.4561590000000 1.0
C      1  0.5098440000000  0.5497770000000  0.4802920000000 1.0
C      1  0.4918730000000  0.4545410000000  0.4791230000000 1.0
C      1  0.4959930000000  0.4900720000000  0.4984990000000 1.0
C      1  0.5050750000000  0.5118870000000  0.5014120000000 1.0
C      1  0.5692010000000  0.4876400000000  0.5092810000000 1.0
C      1  0.4292430000000  0.4905380000000  0.5025830000000 1.0
END
