TITL C-2441157-2117-497 0.0512148460534903 125000 -15413.8790851316 0 0 116 (C1) n - 1
REM
REM in /home/bkarasulu/work/CARBON/AIRSS/Generating-Clusters/ReaxFF-fromJPCA2015/Units_Real/with-SteepDescent/Higher-Symm
REM
REM
REM
REM
REM
REM ./C.cell (1df0a924f5614ab8850e4351716899ee)
REM
REM compiler GCC version 9.2.1 20190827 (Red Hat 9.2.1-1)
REM options -cpp -mtune=generic -march=x86-64 -g -O0 -fpre-include=/usr/include/finclude/math-vector-fortran.h
REM seed -2123129811 -1807269294 -866229582 -188385163 -1668328855 727540201 1585640385 -1125124649 1356324048 -654815150 1852892743 854227755 -1787192542 -963314629 1844355241 748625776 1313282602 2002181546 1604114353 1918968099 -1488340723 -417491755 260910644 1252507747 314443299 517356762 1728051699 -576982326 1468044737 674442770 -317365550 1289708448 1867954550
REM
CELL 1.54180   50.00000   50.00000   50.00000   90.00000   90.00000   90.00000
LATT -1
SFAC C  
C      1  0.5373840000000  0.4449020000000  0.4998100000000 1.0
C      1  0.5269240000000  0.4462770000000  0.5267000000000 1.0
C      1  0.4955960000000  0.4478680000000  0.5381810000000 1.0
C      1  0.4695240000000  0.4477410000000  0.5249090000000 1.0
C      1  0.4708250000000  0.4450610000000  0.4817320000000 1.0
C      1  0.4811650000000  0.4513870000000  0.4578950000000 1.0
C      1  0.5189690000000  0.4470990000000  0.4792680000000 1.0
C      1  0.4516130000000  0.5713120000000  0.5426420000000 1.0
C      1  0.4329700000000  0.5675220000000  0.4874730000000 1.0
C      1  0.4690180000000  0.5701070000000  0.4437950000000 1.0
C      1  0.5263680000000  0.5673700000000  0.4396200000000 1.0
C      1  0.5617750000000  0.5708570000000  0.4838420000000 1.0
C      1  0.5526220000000  0.5666530000000  0.5379050000000 1.0
C      1  0.5012260000000  0.5712090000000  0.5637820000000 1.0
C      1  0.5389460000000  0.5209550000000  0.4404280000000 1.0
C      1  0.5683330000000  0.5219320000000  0.4964550000000 1.0
C      1  0.5506030000000  0.5196180000000  0.5620910000000 1.0
C      1  0.4895720000000  0.5213450000000  0.5667490000000 1.0
C      1  0.4370440000000  0.5213980000000  0.5369730000000 1.0
C      1  0.4371840000000  0.5231720000000  0.4750770000000 1.0
C      1  0.4729730000000  0.5235440000000  0.4289360000000 1.0
C      1  0.4152850000000  0.5079780000000  0.4887880000000 1.0
C      1  0.4547800000000  0.5013790000000  0.4229040000000 1.0
C      1  0.5224740000000  0.5115410000000  0.4164750000000 1.0
C      1  0.5794940000000  0.5061000000000  0.4733320000000 1.0
C      1  0.5722090000000  0.5044260000000  0.5493510000000 1.0
C      1  0.5057130000000  0.5011550000000  0.5836340000000 1.0
C      1  0.4380150000000  0.5030420000000  0.5604350000000 1.0
C      1  0.5791290000000  0.5511700000000  0.4983710000000 1.0
C      1  0.5515960000000  0.5500940000000  0.5628590000000 1.0
C      1  0.4844890000000  0.5508360000000  0.5780900000000 1.0
C      1  0.4288080000000  0.5522150000000  0.5392620000000 1.0
C      1  0.4250230000000  0.5496500000000  0.4652060000000 1.0
C      1  0.4764500000000  0.5524010000000  0.4207340000000 1.0
C      1  0.5506310000000  0.5491650000000  0.4370110000000 1.0
C      1  0.5342690000000  0.5052350000000  0.5821910000000 1.0
C      1  0.4625780000000  0.5079840000000  0.5726500000000 1.0
C      1  0.4169940000000  0.5069950000000  0.5175890000000 1.0
C      1  0.4415710000000  0.5044210000000  0.4477170000000 1.0
C      1  0.4983900000000  0.5116990000000  0.4281100000000 1.0
C      1  0.5632680000000  0.5057970000000  0.4500980000000 1.0
C      1  0.5825480000000  0.5105960000000  0.5227010000000 1.0
C      1  0.4786430000000  0.4899210000000  0.5111910000000 1.0
C      1  0.4633240000000  0.4906730000000  0.4836770000000 1.0
C      1  0.4913160000000  0.5030240000000  0.4711620000000 1.0
C      1  0.5189040000000  0.4815020000000  0.4703770000000 1.0
C      1  0.5340260000000  0.4863860000000  0.4955970000000 1.0
C      1  0.5264040000000  0.4925900000000  0.5223890000000 1.0
C      1  0.4987510000000  0.4962940000000  0.5346220000000 1.0
C      1  0.4787290000000  0.4257490000000  0.4444440000000 1.0
C      1  0.5277530000000  0.4280640000000  0.4582030000000 1.0
C      1  0.5587560000000  0.4265810000000  0.4976790000000 1.0
C      1  0.5412910000000  0.4259610000000  0.5417450000000 1.0
C      1  0.4949370000000  0.4249170000000  0.5575020000000 1.0
C      1  0.4530970000000  0.4249850000000  0.5326570000000 1.0
C      1  0.4494670000000  0.4257410000000  0.4824060000000 1.0
C      1  0.4379670000000  0.4707080000000  0.4807420000000 1.0
C      1  0.4851140000000  0.4717960000000  0.4389140000000 1.0
C      1  0.5283440000000  0.4741350000000  0.4432250000000 1.0
C      1  0.5595810000000  0.4714610000000  0.4946270000000 1.0
C      1  0.5373080000000  0.4730660000000  0.5417220000000 1.0
C      1  0.4912550000000  0.4728970000000  0.5532110000000 1.0
C      1  0.4473360000000  0.4659120000000  0.5284190000000 1.0
C      1  0.4763900000000  0.4810210000000  0.4136750000000 1.0
C      1  0.5563230000000  0.4683830000000  0.4313530000000 1.0
C      1  0.5871750000000  0.4823520000000  0.4882140000000 1.0
C      1  0.5614340000000  0.4784710000000  0.5596140000000 1.0
C      1  0.4869050000000  0.4805350000000  0.5930960000000 1.0
C      1  0.4289500000000  0.4783240000000  0.5472510000000 1.0
C      1  0.4122950000000  0.4844340000000  0.4714800000000 1.0
C      1  0.4660140000000  0.5271240000000  0.5237640000000 1.0
C      1  0.4590440000000  0.5339080000000  0.4967050000000 1.0
C      1  0.4973260000000  0.5316970000000  0.4637150000000 1.0
C      1  0.5252440000000  0.5278540000000  0.4700890000000 1.0
C      1  0.5364270000000  0.5280930000000  0.4956330000000 1.0
C      1  0.5214290000000  0.5353570000000  0.5201950000000 1.0
C      1  0.4924910000000  0.5225030000000  0.5377170000000 1.0
C      1  0.5719720000000  0.5506550000000  0.5256730000000 1.0
C      1  0.5253000000000  0.5586110000000  0.5684630000000 1.0
C      1  0.4613310000000  0.5578120000000  0.5647290000000 1.0
C      1  0.4251700000000  0.5606240000000  0.5130380000000 1.0
C      1  0.4444410000000  0.5588550000000  0.4481000000000 1.0
C      1  0.5037040000000  0.5599320000000  0.4250800000000 1.0
C      1  0.5627890000000  0.5577560000000  0.4599520000000 1.0
C      1  0.4881800000000  0.5603740000000  0.4684750000000 1.0
C      1  0.5155360000000  0.5734570000000  0.4681530000000 1.0
C      1  0.5325560000000  0.5749790000000  0.4904850000000 1.0
C      1  0.5259170000000  0.5673040000000  0.5197560000000 1.0
C      1  0.4993040000000  0.5740110000000  0.5324930000000 1.0
C      1  0.4744510000000  0.5723690000000  0.5208980000000 1.0
C      1  0.4654050000000  0.5632920000000  0.4934260000000 1.0
C      1  0.5266010000000  0.4587450000000  0.5713670000000 1.0
C      1  0.4718200000000  0.4597100000000  0.5690890000000 1.0
C      1  0.4264980000000  0.4587190000000  0.5084400000000 1.0
C      1  0.4370460000000  0.4559660000000  0.4533390000000 1.0
C      1  0.5085020000000  0.4593470000000  0.4273170000000 1.0
C      1  0.5651820000000  0.4505290000000  0.4516980000000 1.0
C      1  0.5729180000000  0.4594270000000  0.5198090000000 1.0
C      1  0.5232300000000  0.4307920000000  0.5652070000000 1.0
C      1  0.4669010000000  0.4318790000000  0.5607350000000 1.0
C      1  0.4365960000000  0.4299930000000  0.5091420000000 1.0
C      1  0.4492050000000  0.4295510000000  0.4524880000000 1.0
C      1  0.5074020000000  0.4307500000000  0.4373410000000 1.0
C      1  0.5568270000000  0.4292250000000  0.4673680000000 1.0
C      1  0.5657100000000  0.4316140000000  0.5255450000000 1.0
C      1  0.4597850000000  0.4889830000000  0.5924400000000 1.0
C      1  0.4095370000000  0.4805020000000  0.5258430000000 1.0
C      1  0.4238010000000  0.4822370000000  0.4438050000000 1.0
C      1  0.5005480000000  0.4957480000000  0.4057530000000 1.0
C      1  0.5778160000000  0.4854380000000  0.4381640000000 1.0
C      1  0.5917660000000  0.4834770000000  0.5177200000000 1.0
C      1  0.5444560000000  0.4774150000000  0.5838670000000 1.0
C      1  0.4966570000000  0.4682880000000  0.5047520000000 1.0
C      1  0.4986080000000  0.5415030000000  0.5033310000000 1.0
C      1  0.4945790000000  0.4419400000000  0.4954050000000 1.0
C      1  0.4943260000000  0.5132360000000  0.4980240000000 1.0
END
