TITL C-2441158-471-1252 0.103836609631517 125000 -22625.7111468681 0 0 167 (C1) n - 1
REM
REM in /home/bkarasulu/work/CARBON/AIRSS/Generating-Clusters/ReaxFF-fromJPCA2015/Units_Real/with-SteepDescent/Higher-Symm
REM
REM
REM
REM
REM
REM ./C.cell (1df0a924f5614ab8850e4351716899ee)
REM
REM compiler GCC version 9.2.1 20190827 (Red Hat 9.2.1-1)
REM options -cpp -mtune=generic -march=x86-64 -g -O0 -fpre-include=/usr/include/finclude/math-vector-fortran.h
REM seed -1283571854 457069119 -1504707991 473327878 -1242683054 -1777386227 480064144 -580238999 -798620022 -593226827 -1816523161 1381215243 -558518865 383276532 806408066 880695319 -354244301 -90754546 -1544631502 173427394 406821657 -807761741 1191276556 -580789016 1978909387 2014804756 -1367069946 2130944898 1230523094 1922712106 950379547 108732829 -363571374
REM
CELL 1.54180   50.00000   50.00000   50.00000   90.00000   90.00000   90.00000
LATT -1
SFAC C  
C      1  0.5388820000000  0.5578670000000  0.4202450000000 1.0
C      1  0.4242770000000  0.5371850000000  0.5534380000000 1.0
C      1  0.5587270000000  0.4225940000000  0.5375860000000 1.0
C      1  0.4621250000000  0.5549720000000  0.5802700000000 1.0
C      1  0.5379200000000  0.4455440000000  0.5789520000000 1.0
C      1  0.4636770000000  0.4461640000000  0.4248000000000 1.0
C      1  0.5779400000000  0.5369900000000  0.4392590000000 1.0
C      1  0.4213430000000  0.4665860000000  0.4451650000000 1.0
C      1  0.5793030000000  0.4618800000000  0.5612620000000 1.0
C      1  0.4426070000000  0.4254990000000  0.4631740000000 1.0
C      1  0.5582300000000  0.5782630000000  0.4613070000000 1.0
C      1  0.4436270000000  0.5782650000000  0.5396650000000 1.0
C      1  0.5475270000000  0.4757850000000  0.4109070000000 1.0
C      1  0.4099720000000  0.5476770000000  0.4777600000000 1.0
C      1  0.4714400000000  0.4084790000000  0.5515320000000 1.0
C      1  0.4484400000000  0.4728230000000  0.5921680000000 1.0
C      1  0.5489260000000  0.5176910000000  0.5835600000000 1.0
C      1  0.4471360000000  0.5301350000000  0.4038110000000 1.0
C      1  0.5893170000000  0.5526890000000  0.5244090000000 1.0
C      1  0.4045700000000  0.4491970000000  0.5253110000000 1.0
C      1  0.5856280000000  0.4502570000000  0.4828540000000 1.0
C      1  0.5222030000000  0.4140220000000  0.4489910000000 1.0
C      1  0.4773110000000  0.5927650000000  0.4510060000000 1.0
C      1  0.5259740000000  0.5941200000000  0.5506190000000 1.0
C      1  0.3971130000000  0.5231990000000  0.5206940000000 1.0
C      1  0.5253770000000  0.4037440000000  0.5197750000000 1.0
C      1  0.5227560000000  0.5210120000000  0.3978360000000 1.0
C      1  0.5924110000000  0.5175320000000  0.4735420000000 1.0
C      1  0.3916990000000  0.4708700000000  0.4825370000000 1.0
C      1  0.5918450000000  0.4819330000000  0.5257750000000 1.0
C      1  0.4737940000000  0.4034400000000  0.4797790000000 1.0
C      1  0.5229570000000  0.5976870000000  0.4801560000000 1.0
C      1  0.4787590000000  0.6029950000000  0.5251000000000 1.0
C      1  0.4689860000000  0.5163580000000  0.6075950000000 1.0
C      1  0.5249030000000  0.4776280000000  0.6053700000000 1.0
C      1  0.4818580000000  0.4776500000000  0.4036130000000 1.0
C      1  0.4783850000000  0.5259910000000  0.4552100000000 1.0
C      1  0.4516180000000  0.4958240000000  0.5319750000000 1.0
C      1  0.5334300000000  0.4524060000000  0.4965780000000 1.0
C      1  0.5154120000000  0.5301020000000  0.5479100000000 1.0
C      1  0.4947110000000  0.4609340000000  0.5530770000000 1.0
C      1  0.5295830000000  0.4675800000000  0.4602410000000 1.0
C      1  0.5450660000000  0.4911820000000  0.4665630000000 1.0
C      1  0.4528760000000  0.5103000000000  0.4636050000000 1.0
C      1  0.5382050000000  0.5144990000000  0.5326950000000 1.0
C      1  0.4676530000000  0.4530790000000  0.5065490000000 1.0
C      1  0.5314700000000  0.5501230000000  0.4999280000000 1.0
C      1  0.4657680000000  0.5540380000000  0.4976000000000 1.0
C      1  0.4903640000000  0.5154840000000  0.4301470000000 1.0
C      1  0.4316330000000  0.4939710000000  0.5132370000000 1.0
C      1  0.5141650000000  0.4216090000000  0.4996470000000 1.0
C      1  0.5058960000000  0.5126000000000  0.5702470000000 1.0
C      1  0.4915790000000  0.4862030000000  0.5685530000000 1.0
C      1  0.4996510000000  0.4897080000000  0.4214850000000 1.0
C      1  0.5746130000000  0.4966200000000  0.4827050000000 1.0
C      1  0.4338260000000  0.5057550000000  0.4855180000000 1.0
C      1  0.5786510000000  0.5041660000000  0.5144490000000 1.0
C      1  0.4827260000000  0.4228060000000  0.5000610000000 1.0
C      1  0.5154210000000  0.5775110000000  0.5004770000000 1.0
C      1  0.4852830000000  0.5740690000000  0.4948880000000 1.0
C      1  0.6075880000000  0.4316710000000  0.4842150000000 1.0
C      1  0.5061350000000  0.5956330000000  0.4563250000000 1.0
C      1  0.4463760000000  0.4983010000000  0.6059270000000 1.0
C      1  0.3933290000000  0.4480410000000  0.4998740000000 1.0
C      1  0.6042970000000  0.5621020000000  0.4997580000000 1.0
C      1  0.3934000000000  0.5428490000000  0.5006870000000 1.0
C      1  0.4972890000000  0.5970380000000  0.5462160000000 1.0
C      1  0.4957080000000  0.3953030000000  0.5637610000000 1.0
C      1  0.5033180000000  0.3940690000000  0.4362310000000 1.0
C      1  0.5431830000000  0.4993680000000  0.3953910000000 1.0
C      1  0.4380610000000  0.5054410000000  0.3895230000000 1.0
C      1  0.5390570000000  0.5001070000000  0.6044980000000 1.0
C      1  0.5385970000000  0.4254930000000  0.5581420000000 1.0
C      1  0.5569830000000  0.5378540000000  0.4219920000000 1.0
C      1  0.4258220000000  0.5568680000000  0.5339900000000 1.0
C      1  0.4622240000000  0.4256960000000  0.4436170000000 1.0
C      1  0.5367710000000  0.5721590000000  0.4433660000000 1.0
C      1  0.4641900000000  0.5722680000000  0.5586390000000 1.0
C      1  0.4426260000000  0.5357010000000  0.5738020000000 1.0
C      1  0.5565720000000  0.4658920000000  0.5756540000000 1.0
C      1  0.4428990000000  0.4663250000000  0.4259060000000 1.0
C      1  0.5773660000000  0.5573450000000  0.4592850000000 1.0
C      1  0.4251480000000  0.4458970000000  0.4634120000000 1.0
C      1  0.5773160000000  0.4438900000000  0.5387150000000 1.0
C      1  0.4532690000000  0.4858170000000  0.4069790000000 1.0
C      1  0.4142280000000  0.4538670000000  0.4864390000000 1.0
C      1  0.4804890000000  0.4057710000000  0.4520310000000 1.0
C      1  0.5446600000000  0.4907630000000  0.5718780000000 1.0
C      1  0.4522960000000  0.5128210000000  0.5846800000000 1.0
C      1  0.5431140000000  0.5157730000000  0.4160810000000 1.0
C      1  0.5749140000000  0.4606390000000  0.5146800000000 1.0
C      1  0.4198970000000  0.5418830000000  0.5086730000000 1.0
C      1  0.5874120000000  0.5443380000000  0.4823980000000 1.0
C      1  0.5175960000000  0.4085480000000  0.5478540000000 1.0
C      1  0.4869660000000  0.5695020000000  0.5449030000000 1.0
C      1  0.5104250000000  0.5665470000000  0.4547380000000 1.0
C      1  0.5509400000000  0.5930920000000  0.4848360000000 1.0
C      1  0.4805570000000  0.5412970000000  0.5988030000000 1.0
C      1  0.5933090000000  0.4864730000000  0.5542030000000 1.0
C      1  0.4529440000000  0.5948530000000  0.5168890000000 1.0
C      1  0.5528760000000  0.4073980000000  0.5132650000000 1.0
C      1  0.4457110000000  0.4073830000000  0.4859010000000 1.0
C      1  0.5154090000000  0.5480460000000  0.4067220000000 1.0
C      1  0.4875070000000  0.4498180000000  0.4089360000000 1.0
C      1  0.5150270000000  0.4532050000000  0.5951510000000 1.0
C      1  0.4019990000000  0.4842090000000  0.4585390000000 1.0
C      1  0.5913600000000  0.5119690000000  0.4454650000000 1.0
C      1  0.4070340000000  0.5155570000000  0.5465100000000 1.0
C      1  0.5375820000000  0.5736700000000  0.5670520000000 1.0
C      1  0.5697920000000  0.5336400000000  0.5708720000000 1.0
C      1  0.5702610000000  0.5719330000000  0.5342680000000 1.0
C      1  0.4694830000000  0.5712650000000  0.4329080000000 1.0
C      1  0.5355050000000  0.4306740000000  0.4291570000000 1.0
C      1  0.4618340000000  0.4300710000000  0.5678590000000 1.0
C      1  0.4330140000000  0.5373070000000  0.4286530000000 1.0
C      1  0.5685940000000  0.4652620000000  0.4274260000000 1.0
C      1  0.4306860000000  0.4687430000000  0.5694550000000 1.0
C      1  0.4296370000000  0.5657980000000  0.4674640000000 1.0
C      1  0.5708020000000  0.4298360000000  0.4659510000000 1.0
C      1  0.4265840000000  0.4321760000000  0.5324980000000 1.0
C      1  0.4920030000000  0.5441920000000  0.5291920000000 1.0
C      1  0.5297150000000  0.4867370000000  0.5382030000000 1.0
C      1  0.5428810000000  0.5286470000000  0.4847840000000 1.0
C      1  0.4977060000000  0.5437530000000  0.4680730000000 1.0
C      1  0.5026650000000  0.4604920000000  0.4705240000000 1.0
C      1  0.4897130000000  0.4563470000000  0.5246630000000 1.0
C      1  0.4821400000000  0.4812780000000  0.4665560000000 1.0
C      1  0.5267980000000  0.5134090000000  0.4634810000000 1.0
C      1  0.4778330000000  0.4991630000000  0.5416150000000 1.0
C      1  0.4672230000000  0.5302870000000  0.5153380000000 1.0
C      1  0.5455880000000  0.4729750000000  0.5130500000000 1.0
C      1  0.4650090000000  0.4778720000000  0.4910950000000 1.0
C      1  0.4398430000000  0.4124160000000  0.5148740000000 1.0
C      1  0.5151760000000  0.4464600000000  0.4158290000000 1.0
C      1  0.4298040000000  0.5124860000000  0.4447090000000 1.0
C      1  0.5573870000000  0.4111310000000  0.4842830000000 1.0
C      1  0.4454890000000  0.5778680000000  0.4881510000000 1.0
C      1  0.5579000000000  0.5903800000000  0.5139680000000 1.0
C      1  0.4866490000000  0.4462240000000  0.5763980000000 1.0
C      1  0.5199690000000  0.5512880000000  0.5685400000000 1.0
C      1  0.4873770000000  0.5572530000000  0.4133030000000 1.0
C      1  0.5898910000000  0.5154400000000  0.5593970000000 1.0
C      1  0.4120740000000  0.4872270000000  0.5554810000000 1.0
C      1  0.5873560000000  0.4828430000000  0.4420400000000 1.0
C      1  0.4777930000000  0.4694780000000  0.5895470000000 1.0
C      1  0.5895050000000  0.4757370000000  0.4694530000000 1.0
C      1  0.4689100000000  0.5925390000000  0.4790640000000 1.0
C      1  0.5229780000000  0.4716180000000  0.4271000000000 1.0
C      1  0.4772700000000  0.5308680000000  0.4078420000000 1.0
C      1  0.5068700000000  0.5348040000000  0.5879510000000 1.0
C      1  0.4094440000000  0.4780320000000  0.5284430000000 1.0
C      1  0.5910470000000  0.5241440000000  0.5318530000000 1.0
C      1  0.4104240000000  0.5116730000000  0.4674700000000 1.0
C      1  0.5314190000000  0.5934070000000  0.5229610000000 1.0
C      1  0.4671810000000  0.4076590000000  0.5217710000000 1.0
C      1  0.5297690000000  0.4106640000000  0.4771030000000 1.0
C      1  0.5030090000000  0.4951440000000  0.5276660000000 1.0
C      1  0.5425210000000  0.5077250000000  0.5052750000000 1.0
C      1  0.5050940000000  0.5388310000000  0.5002890000000 1.0
C      1  0.5027990000000  0.5003290000000  0.4736480000000 1.0
C      1  0.4720200000000  0.5054470000000  0.4996620000000 1.0
C      1  0.5067300000000  0.4621160000000  0.4994470000000 1.0
C      1  0.4385520000000  0.4428200000000  0.5573240000000 1.0
C      1  0.5605350000000  0.4403210000000  0.4405490000000 1.0
C      1  0.4431300000000  0.5608850000000  0.4421610000000 1.0
C      1  0.5620490000000  0.5603540000000  0.5597210000000 1.0
C      1  0.5001340000000  0.5079570000000  0.5005160000000 1.0
END
