TITL C-2441166-8118-142 0.0618946611246303 125000 -14654.9190896323 0 0 108 (C1) n - 1
REM
REM in /home/bkarasulu/work/CARBON/AIRSS/Generating-Clusters/ReaxFF-fromJPCA2015/Units_Real/with-SteepDescent/Higher-Symm
REM
REM
REM
REM
REM
REM ./C.cell (1df0a924f5614ab8850e4351716899ee)
REM
REM compiler GCC version 9.2.1 20190827 (Red Hat 9.2.1-1)
REM options -cpp -mtune=generic -march=x86-64 -g -O0 -fpre-include=/usr/include/finclude/math-vector-fortran.h
REM seed 810250025 -2110153497 874855050 1697077060 1010694848 -1549674897 -1768055356 -812627790 -1699117529 -2058576252 757731719 -713811247 1762499032 -33623351 1976262673 -478053545 -2081768742 -1314538802 -1654237828 818472422 687699015 1965840046 1800997763 913390279 730375613 1532786234 214181615 -1110032972 -1981623825 -676534025 755018752 -1284886864 -866907251
REM
CELL 1.54180   50.00000   50.00000   50.00000   90.00000   90.00000   90.00000
LATT -1
SFAC C  
C      1  0.4574760000000  0.5295280000000  0.5321190000000 1.0
C      1  0.4484160000000  0.5446450000000  0.4828310000000 1.0
C      1  0.4462270000000  0.4970200000000  0.4448480000000 1.0
C      1  0.4447170000000  0.4554710000000  0.4858810000000 1.0
C      1  0.4502280000000  0.4729980000000  0.5390430000000 1.0
C      1  0.5523350000000  0.5289650000000  0.4626900000000 1.0
C      1  0.5444470000000  0.5411710000000  0.5190490000000 1.0
C      1  0.5536750000000  0.4962480000000  0.5492880000000 1.0
C      1  0.5529440000000  0.4542200000000  0.5088930000000 1.0
C      1  0.5537130000000  0.4732860000000  0.4614290000000 1.0
C      1  0.4807450000000  0.5633320000000  0.4541640000000 1.0
C      1  0.4831860000000  0.4695600000000  0.4224000000000 1.0
C      1  0.4805930000000  0.4327920000000  0.5016250000000 1.0
C      1  0.4792070000000  0.4805080000000  0.5660230000000 1.0
C      1  0.4789990000000  0.5661680000000  0.5446860000000 1.0
C      1  0.5202740000000  0.5645120000000  0.5512780000000 1.0
C      1  0.5198690000000  0.4756440000000  0.5738530000000 1.0
C      1  0.5180480000000  0.4203090000000  0.4943320000000 1.0
C      1  0.5201530000000  0.4818940000000  0.4347380000000 1.0
C      1  0.5215570000000  0.5572840000000  0.4602100000000 1.0
C      1  0.5316690000000  0.4712750000000  0.4989580000000 1.0
C      1  0.5369350000000  0.5017060000000  0.5267910000000 1.0
C      1  0.5208300000000  0.5257370000000  0.5284600000000 1.0
C      1  0.5348750000000  0.5109100000000  0.4767710000000 1.0
C      1  0.5296710000000  0.4876820000000  0.4613750000000 1.0
C      1  0.4692540000000  0.4620380000000  0.4983330000000 1.0
C      1  0.4868230000000  0.4809230000000  0.4811070000000 1.0
C      1  0.4686750000000  0.5235720000000  0.4883110000000 1.0
C      1  0.4812060000000  0.5328360000000  0.5134790000000 1.0
C      1  0.4641280000000  0.4804240000000  0.5187830000000 1.0
C      1  0.5757190000000  0.4897880000000  0.4501330000000 1.0
C      1  0.5765610000000  0.4495770000000  0.4924770000000 1.0
C      1  0.5754330000000  0.4766690000000  0.5454030000000 1.0
C      1  0.5703720000000  0.5350560000000  0.5328720000000 1.0
C      1  0.5747120000000  0.5434010000000  0.4757690000000 1.0
C      1  0.4278920000000  0.4871670000000  0.5503730000000 1.0
C      1  0.4246600000000  0.4493610000000  0.5059390000000 1.0
C      1  0.4241740000000  0.4793550000000  0.4538590000000 1.0
C      1  0.4252030000000  0.5370700000000  0.4663180000000 1.0
C      1  0.4309250000000  0.5413580000000  0.5247110000000 1.0
C      1  0.5649750000000  0.5411460000000  0.5608130000000 1.0
C      1  0.5628080000000  0.5692950000000  0.4802140000000 1.0
C      1  0.5649840000000  0.5022630000000  0.4258170000000 1.0
C      1  0.5647750000000  0.4303860000000  0.4741570000000 1.0
C      1  0.5598990000000  0.4552670000000  0.5580050000000 1.0
C      1  0.4397010000000  0.5421040000000  0.4417840000000 1.0
C      1  0.4353530000000  0.5700080000000  0.5213030000000 1.0
C      1  0.4387180000000  0.5041450000000  0.5714640000000 1.0
C      1  0.4368340000000  0.4306940000000  0.5248630000000 1.0
C      1  0.4355370000000  0.4549250000000  0.4418460000000 1.0
C      1  0.4996760000000  0.5669540000000  0.4774540000000 1.0
C      1  0.4960460000000  0.4950710000000  0.4260280000000 1.0
C      1  0.4969970000000  0.4300480000000  0.4772480000000 1.0
C      1  0.4986480000000  0.4583620000000  0.5624120000000 1.0
C      1  0.4970020000000  0.5499010000000  0.5622070000000 1.0
C      1  0.5022020000000  0.5735550000000  0.5284730000000 1.0
C      1  0.5011460000000  0.4993500000000  0.5702670000000 1.0
C      1  0.5035720000000  0.4282320000000  0.5178880000000 1.0
C      1  0.5031550000000  0.4561950000000  0.4379850000000 1.0
C      1  0.5009120000000  0.5463020000000  0.4412560000000 1.0
C      1  0.4525650000000  0.5683560000000  0.4449520000000 1.0
C      1  0.4544290000000  0.4608320000000  0.4194080000000 1.0
C      1  0.4538540000000  0.4154560000000  0.5064250000000 1.0
C      1  0.4537000000000  0.4808990000000  0.5823000000000 1.0
C      1  0.4507100000000  0.5736610000000  0.5462820000000 1.0
C      1  0.5495300000000  0.5663900000000  0.5570350000000 1.0
C      1  0.5476160000000  0.4680780000000  0.5820460000000 1.0
C      1  0.5466300000000  0.4171630000000  0.4931250000000 1.0
C      1  0.5488000000000  0.4796090000000  0.4174610000000 1.0
C      1  0.5465980000000  0.5726640000000  0.4553900000000 1.0
C      1  0.5528360000000  0.4451360000000  0.4512030000000 1.0
C      1  0.5409540000000  0.4373000000000  0.5443060000000 1.0
C      1  0.5530980000000  0.5165320000000  0.5724880000000 1.0
C      1  0.5479960000000  0.5687090000000  0.5061600000000 1.0
C      1  0.5515880000000  0.5283750000000  0.4323810000000 1.0
C      1  0.4481280000000  0.4447770000000  0.5488850000000 1.0
C      1  0.4475070000000  0.4371920000000  0.4631590000000 1.0
C      1  0.4582580000000  0.5216190000000  0.4365670000000 1.0
C      1  0.4488350000000  0.5727650000000  0.4948210000000 1.0
C      1  0.4530330000000  0.5282570000000  0.5620890000000 1.0
C      1  0.4462240000000  0.4140260000000  0.4794950000000 1.0
C      1  0.4411920000000  0.4562650000000  0.5740430000000 1.0
C      1  0.4450060000000  0.5558640000000  0.5701900000000 1.0
C      1  0.4471520000000  0.5828670000000  0.4688260000000 1.0
C      1  0.4455560000000  0.4875880000000  0.4187630000000 1.0
C      1  0.5530500000000  0.4275220000000  0.5195790000000 1.0
C      1  0.5553920000000  0.4532030000000  0.4242020000000 1.0
C      1  0.5520440000000  0.5562950000000  0.4326440000000 1.0
C      1  0.5535040000000  0.5789390000000  0.5315980000000 1.0
C      1  0.5530750000000  0.4948810000000  0.5899110000000 1.0
C      1  0.4127940000000  0.5210040000000  0.5124320000000 1.0
C      1  0.4114700000000  0.5170320000000  0.4832160000000 1.0
C      1  0.4110000000000  0.4883050000000  0.4788710000000 1.0
C      1  0.4102700000000  0.4754010000000  0.5053300000000 1.0
C      1  0.4120670000000  0.4954730000000  0.5262080000000 1.0
C      1  0.5900940000000  0.5221580000000  0.4894540000000 1.0
C      1  0.5884010000000  0.5165430000000  0.5181090000000 1.0
C      1  0.5893090000000  0.4873730000000  0.5214890000000 1.0
C      1  0.5909000000000  0.4753050000000  0.4946870000000 1.0
C      1  0.5910300000000  0.4967180000000  0.4748490000000 1.0
C      1  0.4963880000000  0.5566280000000  0.5051970000000 1.0
C      1  0.5052240000000  0.5232600000000  0.5529650000000 1.0
C      1  0.4871710000000  0.5209200000000  0.4351110000000 1.0
C      1  0.5125270000000  0.4427910000000  0.5412150000000 1.0
C      1  0.4956010000000  0.4567360000000  0.4657810000000 1.0
C      1  0.5441650000000  0.4966950000000  0.4998030000000 1.0
C      1  0.4571910000000  0.5013590000000  0.5013040000000 1.0
C      1  0.5051690000000  0.4854080000000  0.5037080000000 1.0
END
