TITL C-2441156-4686-44 0.0614844675414922 125000 -17228.0246692127 0 0 127 (C1) n - 1
REM
REM in /home/bkarasulu/work/CARBON/AIRSS/Generating-Clusters/ReaxFF-fromJPCA2015/Units_Real/with-SteepDescent/Higher-Symm
REM
REM
REM
REM
REM
REM ./C.cell (1df0a924f5614ab8850e4351716899ee)
REM
REM compiler GCC version 9.2.1 20190827 (Red Hat 9.2.1-1)
REM options -cpp -mtune=generic -march=x86-64 -g -O0 -fpre-include=/usr/include/finclude/math-vector-fortran.h
REM seed -1764971210 1227921002 1879735622 -918044686 -481545780 -1428549797 -2091992709 -865741362 -545130082 1014083346 23922975 1513002607 -130067657 872756331 -662329475 -639141786 729334660 1320753739 -211408148 -1999805214 1968047324 1533384844 -1342578819 1772307559 -1603383565 -593649278 1791307456 -598965913 -1393592167 -1236237861 -1479012807 -906131327 -187337017
REM
CELL 1.54180   50.00000   50.00000   50.00000   90.00000   90.00000   90.00000
LATT -1
SFAC C  
C      1  0.6004850000000  0.4532250000000  0.4995990000000 1.0
C      1  0.4555710000000  0.4820610000000  0.5799470000000 1.0
C      1  0.5247500000000  0.5336510000000  0.5301310000000 1.0
C      1  0.5836890000000  0.5211480000000  0.5476640000000 1.0
C      1  0.5510250000000  0.4779440000000  0.4293150000000 1.0
C      1  0.5605640000000  0.5366120000000  0.5605050000000 1.0
C      1  0.5421140000000  0.5600680000000  0.4374510000000 1.0
C      1  0.4386990000000  0.5054910000000  0.5724310000000 1.0
C      1  0.4697220000000  0.5489430000000  0.5721000000000 1.0
C      1  0.4703690000000  0.5425390000000  0.4240640000000 1.0
C      1  0.4617630000000  0.4400990000000  0.4714870000000 1.0
C      1  0.5172100000000  0.4604020000000  0.4721100000000 1.0
C      1  0.4836090000000  0.4408440000000  0.5752690000000 1.0
C      1  0.4598250000000  0.4999600000000  0.4875930000000 1.0
C      1  0.5114110000000  0.4104530000000  0.4800200000000 1.0
C      1  0.5265950000000  0.5195790000000  0.4635040000000 1.0
C      1  0.5691000000000  0.4519960000000  0.5455940000000 1.0
C      1  0.4712220000000  0.4933180000000  0.4626550000000 1.0
C      1  0.4975020000000  0.5941270000000  0.4689490000000 1.0
C      1  0.4707510000000  0.4440410000000  0.5341890000000 1.0
C      1  0.4701560000000  0.5796680000000  0.5316020000000 1.0
C      1  0.5404390000000  0.5230880000000  0.5765510000000 1.0
C      1  0.5246730000000  0.5856350000000  0.4756480000000 1.0
C      1  0.4066700000000  0.4964100000000  0.5048930000000 1.0
C      1  0.5583720000000  0.5569940000000  0.4632090000000 1.0
C      1  0.5317720000000  0.4818620000000  0.5530540000000 1.0
C      1  0.4632550000000  0.4737640000000  0.4424020000000 1.0
C      1  0.4459450000000  0.4541150000000  0.4516640000000 1.0
C      1  0.5383030000000  0.4840610000000  0.5256250000000 1.0
C      1  0.5928860000000  0.5284010000000  0.5198790000000 1.0
C      1  0.5872710000000  0.4988760000000  0.4709310000000 1.0
C      1  0.5247260000000  0.5579250000000  0.4875510000000 1.0
C      1  0.4957950000000  0.5763560000000  0.5458860000000 1.0
C      1  0.4741400000000  0.5013680000000  0.5944740000000 1.0
C      1  0.5172370000000  0.4835530000000  0.5933960000000 1.0
C      1  0.5264750000000  0.4329300000000  0.5618770000000 1.0
C      1  0.4249800000000  0.5352960000000  0.5080260000000 1.0
C      1  0.5190330000000  0.5040210000000  0.4866940000000 1.0
C      1  0.4586580000000  0.5239210000000  0.5847550000000 1.0
C      1  0.4944920000000  0.4086580000000  0.5052680000000 1.0
C      1  0.5025080000000  0.4619120000000  0.5810440000000 1.0
C      1  0.5791970000000  0.4607030000000  0.5165250000000 1.0
C      1  0.5067290000000  0.5087310000000  0.5343430000000 1.0
C      1  0.5099400000000  0.5976710000000  0.4966970000000 1.0
C      1  0.5554250000000  0.4263360000000  0.4715950000000 1.0
C      1  0.4711050000000  0.5613250000000  0.4488100000000 1.0
C      1  0.4081520000000  0.5191590000000  0.4952570000000 1.0
C      1  0.5015250000000  0.4595330000000  0.4963630000000 1.0
C      1  0.4148750000000  0.4961520000000  0.5314120000000 1.0
C      1  0.4997450000000  0.4217720000000  0.5586890000000 1.0
C      1  0.4812930000000  0.4981050000000  0.5462040000000 1.0
C      1  0.5131480000000  0.5609400000000  0.4288320000000 1.0
C      1  0.5138630000000  0.5050110000000  0.4410650000000 1.0
C      1  0.5057230000000  0.4178730000000  0.4511890000000 1.0
C      1  0.4674290000000  0.5838000000000  0.5022020000000 1.0
C      1  0.5103330000000  0.5115220000000  0.4133710000000 1.0
C      1  0.4798940000000  0.4724080000000  0.4144970000000 1.0
C      1  0.4494640000000  0.4243160000000  0.4927410000000 1.0
C      1  0.4203920000000  0.4648620000000  0.4542320000000 1.0
C      1  0.5435150000000  0.5120440000000  0.5175580000000 1.0
C      1  0.5112000000000  0.5808040000000  0.5213730000000 1.0
C      1  0.4733480000000  0.4615070000000  0.4915840000000 1.0
C      1  0.4438560000000  0.5523860000000  0.5028880000000 1.0
C      1  0.4852710000000  0.5368090000000  0.4665700000000 1.0
C      1  0.5215710000000  0.4609760000000  0.5172170000000 1.0
C      1  0.4296130000000  0.5454080000000  0.5478390000000 1.0
C      1  0.4581880000000  0.5777540000000  0.4753400000000 1.0
C      1  0.4732840000000  0.5408800000000  0.5163270000000 1.0
C      1  0.4539400000000  0.5611470000000  0.5509720000000 1.0
C      1  0.5594130000000  0.5086810000000  0.4274320000000 1.0
C      1  0.4247670000000  0.5164920000000  0.5497360000000 1.0
C      1  0.4309110000000  0.5336780000000  0.4304720000000 1.0
C      1  0.5479680000000  0.5347340000000  0.4279960000000 1.0
C      1  0.4252410000000  0.4488930000000  0.5278240000000 1.0
C      1  0.4539990000000  0.5193200000000  0.4212990000000 1.0
C      1  0.5640730000000  0.5676640000000  0.4899430000000 1.0
C      1  0.4363410000000  0.5592040000000  0.4752330000000 1.0
C      1  0.5369480000000  0.4163630000000  0.4912180000000 1.0
C      1  0.4576500000000  0.4792960000000  0.5084750000000 1.0
C      1  0.5001670000000  0.5072480000000  0.5065410000000 1.0
C      1  0.5130650000000  0.5420180000000  0.4680370000000 1.0
C      1  0.5840060000000  0.5544330000000  0.5095990000000 1.0
C      1  0.4884140000000  0.5116620000000  0.4524770000000 1.0
C      1  0.5317310000000  0.4297390000000  0.5197100000000 1.0
C      1  0.5781030000000  0.4956420000000  0.5555890000000 1.0
C      1  0.5071460000000  0.5529810000000  0.5115950000000 1.0
C      1  0.4234270000000  0.5588510000000  0.5234080000000 1.0
C      1  0.5029840000000  0.5085970000000  0.5936980000000 1.0
C      1  0.5072760000000  0.4139350000000  0.5308310000000 1.0
C      1  0.4944460000000  0.5781870000000  0.4440960000000 1.0
C      1  0.4293320000000  0.5061900000000  0.4267530000000 1.0
C      1  0.5309500000000  0.4831460000000  0.4772440000000 1.0
C      1  0.4258800000000  0.4386630000000  0.5003650000000 1.0
C      1  0.4694540000000  0.5219900000000  0.5368970000000 1.0
C      1  0.5138760000000  0.5332670000000  0.5797780000000 1.0
C      1  0.5695550000000  0.4684600000000  0.4493010000000 1.0
C      1  0.4178070000000  0.4933250000000  0.4490000000000 1.0
C      1  0.4764540000000  0.4727400000000  0.5310080000000 1.0
C      1  0.4450570000000  0.4415730000000  0.5477460000000 1.0
C      1  0.5688460000000  0.4731480000000  0.5652060000000 1.0
C      1  0.5614370000000  0.5178890000000  0.4964290000000 1.0
C      1  0.5496060000000  0.4309410000000  0.5442370000000 1.0
C      1  0.5363730000000  0.4437240000000  0.4581380000000 1.0
C      1  0.5594110000000  0.4829630000000  0.4743200000000 1.0
C      1  0.5423470000000  0.4914370000000  0.5788280000000 1.0
C      1  0.4982810000000  0.5385520000000  0.4159170000000 1.0
C      1  0.4307350000000  0.4759720000000  0.5246120000000 1.0
C      1  0.4244050000000  0.5395020000000  0.4584300000000 1.0
C      1  0.5264670000000  0.4636050000000  0.4214780000000 1.0
C      1  0.5163340000000  0.4600000000000  0.5565820000000 1.0
C      1  0.5568950000000  0.5273030000000  0.4682750000000 1.0
C      1  0.5230060000000  0.4364390000000  0.4336820000000 1.0
C      1  0.4566510000000  0.4531480000000  0.5727100000000 1.0
C      1  0.4807280000000  0.4299320000000  0.4487570000000 1.0
C      1  0.4973280000000  0.5550820000000  0.5672710000000 1.0
C      1  0.5061810000000  0.4820550000000  0.4077880000000 1.0
C      1  0.4851790000000  0.4533170000000  0.4340290000000 1.0
C      1  0.4767750000000  0.5221960000000  0.4943440000000 1.0
C      1  0.4171000000000  0.4541380000000  0.4791590000000 1.0
C      1  0.5889530000000  0.5079360000000  0.4987510000000 1.0
C      1  0.5783560000000  0.5150380000000  0.4487630000000 1.0
C      1  0.5461380000000  0.5526440000000  0.5414110000000 1.0
C      1  0.5607870000000  0.5669040000000  0.5206920000000 1.0
C      1  0.5616490000000  0.4605100000000  0.4927200000000 1.0
C      1  0.4696400000000  0.4218060000000  0.5129060000000 1.0
C      1  0.5762870000000  0.4471940000000  0.4721010000000 1.0
C      1  0.4118810000000  0.5144050000000  0.4684650000000 1.0
END
