TITL C-2441154-10-1364 0.0454167378315198 125000 -12044.269219452 0 0 92 (C1) n - 1
REM
REM in /home/bkarasulu/work/CARBON/AIRSS/Generating-Clusters/ReaxFF-fromJPCA2015/Units_Real/with-SteepDescent/Higher-Symm
REM
REM
REM
REM
REM
REM ./C.cell (1df0a924f5614ab8850e4351716899ee)
REM
REM compiler GCC version 9.2.1 20190827 (Red Hat 9.2.1-1)
REM options -cpp -mtune=generic -march=x86-64 -g -O0 -fpre-include=/usr/include/finclude/math-vector-fortran.h
REM seed 1717600386 123228722 1382178720 1032950717 -1497593657 627485358 -771757871 128907010 -2042982539 1236951870 459019953 -1348344759 936018651 1385081491 -1792922495 -109255274 -476423873 -935503108 545043404 841282386 922260876 825842641 -90732355 166913591 -1403911968 97501505 191756192 -468040647 730281893 715913168 -177971535 550171764 -1241390787
REM
CELL 1.54180   50.00000   50.00000   50.00000   90.00000   90.00000   90.00000
LATT -1
SFAC C  
C      1  0.5772050000000  0.5118630000000  0.4662180000000 1.0
C      1  0.4897480000000  0.5116670000000  0.5836650000000 1.0
C      1  0.4306510000000  0.5121300000000  0.4452660000000 1.0
C      1  0.5804100000000  0.4865850000000  0.4654320000000 1.0
C      1  0.4878400000000  0.4871430000000  0.5837050000000 1.0
C      1  0.4340490000000  0.4867450000000  0.4489770000000 1.0
C      1  0.4823040000000  0.5133710000000  0.5040870000000 1.0
C      1  0.5011020000000  0.5119510000000  0.4664530000000 1.0
C      1  0.5178900000000  0.5120820000000  0.5218090000000 1.0
C      1  0.4730790000000  0.4860660000000  0.5084580000000 1.0
C      1  0.4916270000000  0.4854930000000  0.4670110000000 1.0
C      1  0.5264470000000  0.4849320000000  0.5160350000000 1.0
C      1  0.5227580000000  0.5508200000000  0.5663090000000 1.0
C      1  0.4308330000000  0.5528410000000  0.4838850000000 1.0
C      1  0.5473730000000  0.5515370000000  0.4467110000000 1.0
C      1  0.5139550000000  0.4436250000000  0.5704850000000 1.0
C      1  0.4312830000000  0.4465180000000  0.4857900000000 1.0
C      1  0.5493230000000  0.4460780000000  0.4472310000000 1.0
C      1  0.4911660000000  0.4611730000000  0.5726820000000 1.0
C      1  0.4434600000000  0.4634040000000  0.4637500000000 1.0
C      1  0.5668230000000  0.4614700000000  0.4652840000000 1.0
C      1  0.4978030000000  0.5345730000000  0.5687190000000 1.0
C      1  0.4369450000000  0.5365900000000  0.4586370000000 1.0
C      1  0.5632430000000  0.5361580000000  0.4669990000000 1.0
C      1  0.4806740000000  0.5315490000000  0.5222870000000 1.0
C      1  0.4835150000000  0.5299470000000  0.4804460000000 1.0
C      1  0.5255520000000  0.5309570000000  0.5025130000000 1.0
C      1  0.4912620000000  0.4641130000000  0.5191830000000 1.0
C      1  0.4996950000000  0.4618770000000  0.4801210000000 1.0
C      1  0.5231010000000  0.4698640000000  0.4925350000000 1.0
C      1  0.5165350000000  0.5674040000000  0.5427860000000 1.0
C      1  0.4547340000000  0.5680210000000  0.4913100000000 1.0
C      1  0.5320240000000  0.5704770000000  0.4635840000000 1.0
C      1  0.5143130000000  0.4263530000000  0.5475400000000 1.0
C      1  0.4540340000000  0.4284920000000  0.4916020000000 1.0
C      1  0.5324690000000  0.4289930000000  0.4635420000000 1.0
C      1  0.4640560000000  0.4462020000000  0.5126820000000 1.0
C      1  0.5074970000000  0.4440880000000  0.4585540000000 1.0
C      1  0.5385270000000  0.4402440000000  0.5374700000000 1.0
C      1  0.4624580000000  0.5531420000000  0.5156390000000 1.0
C      1  0.5083310000000  0.5548300000000  0.4596750000000 1.0
C      1  0.5312340000000  0.5512330000000  0.5225020000000 1.0
C      1  0.5299440000000  0.5782350000000  0.4922690000000 1.0
C      1  0.4928730000000  0.5766140000000  0.5289270000000 1.0
C      1  0.4797470000000  0.5770390000000  0.4791830000000 1.0
C      1  0.5287530000000  0.4249230000000  0.4925340000000 1.0
C      1  0.4922660000000  0.4208550000000  0.5281840000000 1.0
C      1  0.4788150000000  0.4211860000000  0.4779020000000 1.0
C      1  0.4316170000000  0.4690130000000  0.5352150000000 1.0
C      1  0.5063120000000  0.4635030000000  0.4231910000000 1.0
C      1  0.5684540000000  0.4719770000000  0.5374650000000 1.0
C      1  0.4316540000000  0.5320810000000  0.5361150000000 1.0
C      1  0.5039770000000  0.5309250000000  0.4203700000000 1.0
C      1  0.5669490000000  0.5303050000000  0.5403670000000 1.0
C      1  0.5566680000000  0.4865540000000  0.5117570000000 1.0
C      1  0.4571700000000  0.4859950000000  0.5398910000000 1.0
C      1  0.4770290000000  0.4841400000000  0.4420470000000 1.0
C      1  0.5642930000000  0.5166200000000  0.5159100000000 1.0
C      1  0.4505850000000  0.5143730000000  0.5484760000000 1.0
C      1  0.4864630000000  0.5137170000000  0.4383920000000 1.0
C      1  0.4836500000000  0.5656160000000  0.4502700000000 1.0
C      1  0.5517480000000  0.5672190000000  0.5095110000000 1.0
C      1  0.4665710000000  0.5670120000000  0.5403890000000 1.0
C      1  0.4827410000000  0.4320020000000  0.4508990000000 1.0
C      1  0.5497270000000  0.4354930000000  0.5111900000000 1.0
C      1  0.4658910000000  0.4330070000000  0.5378820000000 1.0
C      1  0.4804840000000  0.4566720000000  0.4317210000000 1.0
C      1  0.5690810000000  0.4573320000000  0.5133070000000 1.0
C      1  0.4526730000000  0.4568250000000  0.5505930000000 1.0
C      1  0.4802730000000  0.5443070000000  0.4304640000000 1.0
C      1  0.5708780000000  0.5451440000000  0.5148880000000 1.0
C      1  0.4524840000000  0.5440790000000  0.5536800000000 1.0
C      1  0.5320350000000  0.5100850000000  0.5659580000000 1.0
C      1  0.4342390000000  0.5139250000000  0.4944770000000 1.0
C      1  0.5367700000000  0.5126710000000  0.4476310000000 1.0
C      1  0.5266450000000  0.4829730000000  0.5602720000000 1.0
C      1  0.4280930000000  0.4862030000000  0.4935530000000 1.0
C      1  0.5365880000000  0.4859850000000  0.4465130000000 1.0
C      1  0.4208460000000  0.4622720000000  0.5088960000000 1.0
C      1  0.5342700000000  0.4632670000000  0.4273210000000 1.0
C      1  0.5481080000000  0.4622010000000  0.5555210000000 1.0
C      1  0.4229390000000  0.5369040000000  0.5074890000000 1.0
C      1  0.5319070000000  0.5336450000000  0.4284470000000 1.0
C      1  0.5464160000000  0.5333410000000  0.5630860000000 1.0
C      1  0.4552850000000  0.5212880000000  0.4753910000000 1.0
C      1  0.5384210000000  0.5224580000000  0.4770900000000 1.0
C      1  0.4988410000000  0.5226160000000  0.5412420000000 1.0
C      1  0.4545320000000  0.4792200000000  0.4856590000000 1.0
C      1  0.5423270000000  0.4765510000000  0.4732150000000 1.0
C      1  0.4992340000000  0.4734210000000  0.5460140000000 1.0
C      1  0.5003380000000  0.4206410000000  0.4995090000000 1.0
C      1  0.5008780000000  0.5788010000000  0.5000710000000 1.0
END
