TITL C-2441159-1093-968 -0.00084002995251833 125000 -4660.33533235829 0 0 32 (C1) n - 1
REM
REM in /home/bkarasulu/work/CARBON/AIRSS/Generating-Clusters/ReaxFF-fromJPCA2015/Units_Real/with-SteepDescent/Higher-Symm
REM
REM
REM
REM
REM
REM ./C.cell (1df0a924f5614ab8850e4351716899ee)
REM
REM compiler GCC version 9.2.1 20190827 (Red Hat 9.2.1-1)
REM options -cpp -mtune=generic -march=x86-64 -g -O0 -fpre-include=/usr/include/finclude/math-vector-fortran.h
REM seed -1164575087 1814310742 -1487405913 563456282 -8490788 1482745877 -776017713 683108656 1404598262 -1630060789 -738682746 -1704383040 -1040813389 -1999089939 -1856852589 1528068248 -134635772 -881611915 -460943892 322991764 146241534 -982210578 -859604556 260284031 1963321580 -1630088068 444761691 -1216680326 -488172156 -1587411613 -693275695 1592807988 -1907377323
REM
CELL 1.54180   50.00000   50.00000   50.00000   90.00000   90.00000   90.00000
LATT -1
SFAC C  
C      1  0.5064110000000  0.5253430000000  0.4845570000000 1.0
C      1  0.5061020000000  0.4736750000000  0.4884470000000 1.0
C      1  0.5055950000000  0.5021740000000  0.5310080000000 1.0
C      1  0.4962290000000  0.5317010000000  0.5413460000000 1.0
C      1  0.4985950000000  0.5197440000000  0.4544160000000 1.0
C      1  0.4984410000000  0.4504680000000  0.5079680000000 1.0
C      1  0.5336120000000  0.4823920000000  0.4458540000000 1.0
C      1  0.5337990000000  0.4618310000000  0.5445290000000 1.0
C      1  0.5356200000000  0.5608740000000  0.5125750000000 1.0
C      1  0.4770490000000  0.5410970000000  0.4841780000000 1.0
C      1  0.4764790000000  0.4660630000000  0.4748320000000 1.0
C      1  0.4773670000000  0.4937640000000  0.5450060000000 1.0
C      1  0.4689200000000  0.4658030000000  0.5459970000000 1.0
C      1  0.4686900000000  0.5574260000000  0.5073330000000 1.0
C      1  0.4692580000000  0.4787210000000  0.4493810000000 1.0
C      1  0.4694770000000  0.5393280000000  0.5318540000000 1.0
C      1  0.4713570000000  0.5091000000000  0.4543260000000 1.0
C      1  0.4710430000000  0.4556950000000  0.5168090000000 1.0
C      1  0.5182320000000  0.4417910000000  0.5279470000000 1.0
C      1  0.5154920000000  0.5482580000000  0.5299710000000 1.0
C      1  0.5182510000000  0.5069700000000  0.4367320000000 1.0
C      1  0.5339620000000  0.5374690000000  0.4925500000000 1.0
C      1  0.5338660000000  0.4746220000000  0.4741510000000 1.0
C      1  0.5336410000000  0.4903240000000  0.5370870000000 1.0
C      1  0.5541110000000  0.4965130000000  0.5175380000000 1.0
C      1  0.5542840000000  0.5173280000000  0.4964710000000 1.0
C      1  0.5542330000000  0.4885110000000  0.4892880000000 1.0
C      1  0.4586820000000  0.5187480000000  0.4788470000000 1.0
C      1  0.4581380000000  0.4727680000000  0.4969780000000 1.0
C      1  0.4600780000000  0.5118590000000  0.5285830000000 1.0
C      1  0.4536240000000  0.5012650000000  0.5016800000000 1.0
C      1  0.5041080000000  0.5005860000000  0.5013360000000 1.0
END
