TITL C-2441156-4686-1011 0.00323847317938237 125000 -6187.78793904245 0 0 44 (C1) n - 1
REM
REM in /home/bkarasulu/work/CARBON/AIRSS/Generating-Clusters/ReaxFF-fromJPCA2015/Units_Real/with-SteepDescent/Higher-Symm
REM
REM
REM
REM
REM
REM ./C.cell (1df0a924f5614ab8850e4351716899ee)
REM
REM compiler GCC version 9.2.1 20190827 (Red Hat 9.2.1-1)
REM options -cpp -mtune=generic -march=x86-64 -g -O0 -fpre-include=/usr/include/finclude/math-vector-fortran.h
REM seed -1316605155 -1628983988 1361247855 -283552434 1784405433 -1020832234 2021850198 -1805479791 -2071033590 -785037508 1635041181 1277323901 -288905997 -1632382644 -912991937 802290884 -332451600 -355640322 -1519157857 929448349 1965930972 1318642768 633424450 -1573569412 -832785250 -1577136061 367190736 1213383819 840048655 797061750 1940021096 -412175790 662480872
REM
CELL 1.54180   50.00000   50.00000   50.00000   90.00000   90.00000   90.00000
LATT -1
SFAC C  
C      1  0.4832940000000  0.4511770000000  0.4975420000000 1.0
C      1  0.5158420000000  0.4512910000000  0.4983450000000 1.0
C      1  0.4854190000000  0.5104100000000  0.4555180000000 1.0
C      1  0.5137650000000  0.5095430000000  0.4542080000000 1.0
C      1  0.4653610000000  0.4951910000000  0.5441430000000 1.0
C      1  0.5352500000000  0.4975210000000  0.5427720000000 1.0
C      1  0.5270170000000  0.5640090000000  0.5314060000000 1.0
C      1  0.4608040000000  0.5563240000000  0.5249350000000 1.0
C      1  0.5580230000000  0.5138000000000  0.5298300000000 1.0
C      1  0.4403530000000  0.5090690000000  0.5340650000000 1.0
C      1  0.5297360000000  0.4886540000000  0.5157110000000 1.0
C      1  0.4700170000000  0.4877830000000  0.5171610000000 1.0
C      1  0.5632860000000  0.4916060000000  0.5126950000000 1.0
C      1  0.4371420000000  0.4904460000000  0.5124680000000 1.0
C      1  0.4333470000000  0.4980480000000  0.4847790000000 1.0
C      1  0.5676990000000  0.4963050000000  0.4842550000000 1.0
C      1  0.4719190000000  0.4848060000000  0.4524060000000 1.0
C      1  0.5275570000000  0.4840640000000  0.4524030000000 1.0
C      1  0.4840370000000  0.5327740000000  0.5323290000000 1.0
C      1  0.5138260000000  0.5342520000000  0.5327100000000 1.0
C      1  0.5310690000000  0.4224780000000  0.4896610000000 1.0
C      1  0.4684070000000  0.4220430000000  0.4890190000000 1.0
C      1  0.4855160000000  0.5133180000000  0.5546750000000 1.0
C      1  0.5143290000000  0.5140550000000  0.5548640000000 1.0
C      1  0.4857900000000  0.5141930000000  0.5053650000000 1.0
C      1  0.5148440000000  0.5145630000000  0.5050250000000 1.0
C      1  0.4734220000000  0.5714040000000  0.5003290000000 1.0
C      1  0.5366220000000  0.5586020000000  0.5049730000000 1.0
C      1  0.4702410000000  0.4639870000000  0.4731280000000 1.0
C      1  0.5289320000000  0.4638390000000  0.4737660000000 1.0
C      1  0.5173260000000  0.5544370000000  0.4822260000000 1.0
C      1  0.4885000000000  0.5559250000000  0.4816370000000 1.0
C      1  0.5125060000000  0.4124790000000  0.4716540000000 1.0
C      1  0.4876860000000  0.4124180000000  0.4717400000000 1.0
C      1  0.5572180000000  0.5352450000000  0.5093730000000 1.0
C      1  0.4409810000000  0.5323670000000  0.5160300000000 1.0
C      1  0.4447480000000  0.5247130000000  0.4882050000000 1.0
C      1  0.5575870000000  0.5236140000000  0.4832730000000 1.0
C      1  0.4463830000000  0.4788840000000  0.4661840000000 1.0
C      1  0.5531740000000  0.4776460000000  0.4662380000000 1.0
C      1  0.4740540000000  0.5277560000000  0.4783260000000 1.0
C      1  0.5270660000000  0.5268060000000  0.4762710000000 1.0
C      1  0.4852150000000  0.4656950000000  0.5239060000000 1.0
C      1  0.5146900000000  0.4664600000000  0.5244490000000 1.0
END
