TITL C-2441159-1093-484 0.0156454321237938 125000 -15543.0239022483 0 0 109 (C1) n - 1
REM
REM in /home/bkarasulu/work/CARBON/AIRSS/Generating-Clusters/ReaxFF-fromJPCA2015/Units_Real/with-SteepDescent/Higher-Symm
REM
REM
REM
REM
REM
REM ./C.cell (1df0a924f5614ab8850e4351716899ee)
REM
REM compiler GCC version 9.2.1 20190827 (Red Hat 9.2.1-1)
REM options -cpp -mtune=generic -march=x86-64 -g -O0 -fpre-include=/usr/include/finclude/math-vector-fortran.h
REM seed -1556490500 737760572 1557611323 -542887526 199192706 -419064895 -977165096 -1340731602 -557682217 1937688280 1697548626 -811669187 604842765 -1028988110 1245495747 -932082587 399543776 -2077811798 -1695238861 965651795 2089191169 -1227959267 1368299307 -609824629 395158126 -1739951352 1334316756 894832300 1923353555 -1357031765 831958937 2052955583 190387996
REM
CELL 1.54180   50.00000   50.00000   50.00000   90.00000   90.00000   90.00000
LATT -1
SFAC C  
C      1  0.4827190000000  0.4089250000000  0.4961770000000 1.0
C      1  0.4118940000000  0.5056220000000  0.4707600000000 1.0
C      1  0.5001040000000  0.4786240000000  0.4018910000000 1.0
C      1  0.5223330000000  0.5950110000000  0.5010880000000 1.0
C      1  0.4795340000000  0.5945560000000  0.4998930000000 1.0
C      1  0.5226250000000  0.4063290000000  0.5059920000000 1.0
C      1  0.5947600000000  0.5000760000000  0.4794480000000 1.0
C      1  0.4107790000000  0.4960390000000  0.5223160000000 1.0
C      1  0.5925230000000  0.5031460000000  0.5215170000000 1.0
C      1  0.5045450000000  0.5208100000000  0.4046250000000 1.0
C      1  0.5089610000000  0.5261800000000  0.5927340000000 1.0
C      1  0.5036660000000  0.4832030000000  0.5985370000000 1.0
C      1  0.4090640000000  0.4869090000000  0.4940700000000 1.0
C      1  0.5063420000000  0.4108150000000  0.4729630000000 1.0
C      1  0.4819510000000  0.5008640000000  0.4024420000000 1.0
C      1  0.5964930000000  0.5218950000000  0.4989510000000 1.0
C      1  0.5935630000000  0.4803310000000  0.5026460000000 1.0
C      1  0.4047730000000  0.5224080000000  0.5137470000000 1.0
C      1  0.5032150000000  0.5930140000000  0.4790500000000 1.0
C      1  0.4983590000000  0.4082350000000  0.5207730000000 1.0
C      1  0.4989000000000  0.5957440000000  0.5210820000000 1.0
C      1  0.5241310000000  0.4991180000000  0.4035170000000 1.0
C      1  0.5261410000000  0.5009890000000  0.5925760000000 1.0
C      1  0.4850360000000  0.5071780000000  0.5978400000000 1.0
C      1  0.4638300000000  0.4308170000000  0.5507510000000 1.0
C      1  0.4334850000000  0.5560120000000  0.4783780000000 1.0
C      1  0.5422500000000  0.4576480000000  0.4303640000000 1.0
C      1  0.5215050000000  0.5690990000000  0.5630340000000 1.0
C      1  0.4687020000000  0.5694880000000  0.4384370000000 1.0
C      1  0.5307830000000  0.4257050000000  0.4637300000000 1.0
C      1  0.5666240000000  0.4556540000000  0.4616110000000 1.0
C      1  0.4253340000000  0.4441900000000  0.5211950000000 1.0
C      1  0.5592930000000  0.5500170000000  0.5295110000000 1.0
C      1  0.4402030000000  0.5255230000000  0.4388960000000 1.0
C      1  0.5552080000000  0.5364190000000  0.5701890000000 1.0
C      1  0.4490350000000  0.4702490000000  0.5598160000000 1.0
C      1  0.4317900000000  0.4666930000000  0.5391330000000 1.0
C      1  0.5555610000000  0.4358670000000  0.4771820000000 1.0
C      1  0.4601850000000  0.5438020000000  0.4317410000000 1.0
C      1  0.5703270000000  0.5263960000000  0.5488030000000 1.0
C      1  0.5640490000000  0.4727170000000  0.4391470000000 1.0
C      1  0.4255020000000  0.5308480000000  0.4641730000000 1.0
C      1  0.4514760000000  0.5686380000000  0.4616770000000 1.0
C      1  0.4453760000000  0.4282120000000  0.5319750000000 1.0
C      1  0.5404250000000  0.5636150000000  0.5421550000000 1.0
C      1  0.5244860000000  0.4377190000000  0.4379000000000 1.0
C      1  0.5302330000000  0.5464970000000  0.5796090000000 1.0
C      1  0.4722320000000  0.4483060000000  0.5688160000000 1.0
C      1  0.4568130000000  0.5022220000000  0.5182280000000 1.0
C      1  0.5043340000000  0.5219760000000  0.4540540000000 1.0
C      1  0.5190040000000  0.4592550000000  0.4990130000000 1.0
C      1  0.5424410000000  0.4963920000000  0.5225440000000 1.0
C      1  0.4628810000000  0.5001950000000  0.4769770000000 1.0
C      1  0.5405520000000  0.4995310000000  0.4805400000000 1.0
C      1  0.5018380000000  0.4803730000000  0.4589730000000 1.0
C      1  0.5007130000000  0.4781420000000  0.5378980000000 1.0
C      1  0.4999290000000  0.5226790000000  0.5431560000000 1.0
C      1  0.4807960000000  0.5408800000000  0.4971850000000 1.0
C      1  0.5212430000000  0.5393510000000  0.5015950000000 1.0
C      1  0.4759330000000  0.4554740000000  0.4959160000000 1.0
C      1  0.5022300000000  0.4550960000000  0.5215370000000 1.0
C      1  0.5221980000000  0.4995540000000  0.4593030000000 1.0
C      1  0.4615340000000  0.5203770000000  0.4962360000000 1.0
C      1  0.4991110000000  0.5427180000000  0.5205300000000 1.0
C      1  0.4995850000000  0.4608680000000  0.4792010000000 1.0
C      1  0.5036900000000  0.5427430000000  0.4781480000000 1.0
C      1  0.4800520000000  0.4993640000000  0.4533890000000 1.0
C      1  0.4833270000000  0.5001080000000  0.5309690000000 1.0
C      1  0.5223310000000  0.4964100000000  0.5440430000000 1.0
C      1  0.5398690000000  0.4780290000000  0.4991260000000 1.0
C      1  0.5405660000000  0.5188490000000  0.5019290000000 1.0
C      1  0.4555330000000  0.4776760000000  0.4940780000000 1.0
C      1  0.5124940000000  0.4636630000000  0.5800260000000 1.0
C      1  0.4612690000000  0.5770130000000  0.5150330000000 1.0
C      1  0.5763260000000  0.5165770000000  0.4624870000000 1.0
C      1  0.4885690000000  0.5353480000000  0.5676260000000 1.0
C      1  0.5099070000000  0.5378020000000  0.4286440000000 1.0
C      1  0.4835150000000  0.4616840000000  0.4188000000000 1.0
C      1  0.5386810000000  0.4235950000000  0.5218830000000 1.0
C      1  0.4629590000000  0.4293040000000  0.4866060000000 1.0
C      1  0.5396970000000  0.5747550000000  0.4908920000000 1.0
C      1  0.4226760000000  0.4846240000000  0.4542330000000 1.0
C      1  0.5693790000000  0.4878810000000  0.5333690000000 1.0
C      1  0.4363370000000  0.5101600000000  0.5365370000000 1.0
C      1  0.4653740000000  0.5149910000000  0.5784530000000 1.0
C      1  0.5765920000000  0.4605370000000  0.5156220000000 1.0
C      1  0.5107180000000  0.5703450000000  0.4623930000000 1.0
C      1  0.5387750000000  0.4916770000000  0.5674850000000 1.0
C      1  0.5407280000000  0.5110660000000  0.4231270000000 1.0
C      1  0.4664450000000  0.4871640000000  0.4256560000000 1.0
C      1  0.4246200000000  0.5395370000000  0.5230390000000 1.0
C      1  0.4282110000000  0.4659190000000  0.4825640000000 1.0
C      1  0.5776260000000  0.5384190000000  0.4828940000000 1.0
C      1  0.4852540000000  0.4244880000000  0.4581280000000 1.0
C      1  0.4855870000000  0.5718870000000  0.5346360000000 1.0
C      1  0.5116340000000  0.4319070000000  0.5364970000000 1.0
C      1  0.4459610000000  0.4995470000000  0.5638380000000 1.0
C      1  0.4994000000000  0.5640580000000  0.4364690000000 1.0
C      1  0.5602560000000  0.4383740000000  0.5077140000000 1.0
C      1  0.5655190000000  0.4988160000000  0.5586100000000 1.0
C      1  0.4384690000000  0.4956030000000  0.4334780000000 1.0
C      1  0.5625350000000  0.5051000000000  0.4391170000000 1.0
C      1  0.4932060000000  0.4394240000000  0.4353250000000 1.0
C      1  0.5007700000000  0.4423050000000  0.5664840000000 1.0
C      1  0.4927200000000  0.5642000000000  0.5620520000000 1.0
C      1  0.4380620000000  0.5606700000000  0.5085880000000 1.0
C      1  0.5605330000000  0.5571500000000  0.4986750000000 1.0
C      1  0.4345800000000  0.4390100000000  0.4935790000000 1.0
C      1  0.4982280000000  0.4990740000000  0.5035260000000 1.0
END
