TITL C-2441162-9305-293 0.0991148571016487 125000 -20338.8283796079 0 0 155 (C1) n - 1
REM
REM in /home/bkarasulu/work/CARBON/AIRSS/Generating-Clusters/ReaxFF-fromJPCA2015/Units_Real/with-SteepDescent/Higher-Symm
REM
REM
REM
REM
REM
REM ./C.cell (1df0a924f5614ab8850e4351716899ee)
REM
REM compiler GCC version 9.2.1 20190827 (Red Hat 9.2.1-1)
REM options -cpp -mtune=generic -march=x86-64 -g -O0 -fpre-include=/usr/include/finclude/math-vector-fortran.h
REM seed -263583836 1250997019 -220667706 829617492 1331673537 963630032 -700339234 -678991871 1473473125 -1199268844 2074472130 551949672 1898070615 -1513574741 -744212417 273297347 325996028 2085768166 626258318 -312630647 -489817501 -2143687355 -984934642 1795006758 437317049 1551512604 1650757999 708122039 -526447648 95714589 1153160407 1771600479 -1853401516
REM
CELL 1.54180   50.00000   50.00000   50.00000   90.00000   90.00000   90.00000
LATT -1
SFAC C  
C      1  0.5039020000000  0.5690670000000  0.5480050000000 1.0
C      1  0.4573900000000  0.5729600000000  0.4832340000000 1.0
C      1  0.5394210000000  0.5853550000000  0.4586780000000 1.0
C      1  0.5042340000000  0.4239020000000  0.5519750000000 1.0
C      1  0.4544200000000  0.4264740000000  0.4783640000000 1.0
C      1  0.5436370000000  0.4291010000000  0.4667610000000 1.0
C      1  0.5956060000000  0.4751310000000  0.5107190000000 1.0
C      1  0.4551510000000  0.4657400000000  0.5708470000000 1.0
C      1  0.4583270000000  0.4693350000000  0.4246480000000 1.0
C      1  0.5946690000000  0.5377710000000  0.5020260000000 1.0
C      1  0.4527300000000  0.5376430000000  0.5821420000000 1.0
C      1  0.4589920000000  0.5321100000000  0.4194390000000 1.0
C      1  0.4457120000000  0.5908310000000  0.5164300000000 1.0
C      1  0.5113270000000  0.5922240000000  0.4522570000000 1.0
C      1  0.5383690000000  0.5906540000000  0.5408940000000 1.0
C      1  0.4454600000000  0.4086600000000  0.5132090000000 1.0
C      1  0.5101830000000  0.4131550000000  0.4424580000000 1.0
C      1  0.5394490000000  0.4086280000000  0.5391420000000 1.0
C      1  0.4876240000000  0.5475920000000  0.5577850000000 1.0
C      1  0.4576680000000  0.5319460000000  0.4490770000000 1.0
C      1  0.5578130000000  0.5343210000000  0.4793720000000 1.0
C      1  0.4840140000000  0.4644830000000  0.5599720000000 1.0
C      1  0.4532950000000  0.4664430000000  0.4543270000000 1.0
C      1  0.5580300000000  0.4635130000000  0.4819590000000 1.0
C      1  0.5202880000000  0.5935130000000  0.5182820000000 1.0
C      1  0.4737540000000  0.6018240000000  0.5202510000000 1.0
C      1  0.4943160000000  0.6006910000000  0.4753810000000 1.0
C      1  0.5249580000000  0.4067220000000  0.5105360000000 1.0
C      1  0.4764240000000  0.4065770000000  0.5152160000000 1.0
C      1  0.4978120000000  0.4071510000000  0.4713520000000 1.0
C      1  0.4878720000000  0.4858140000000  0.5169220000000 1.0
C      1  0.4864330000000  0.4935970000000  0.4742540000000 1.0
C      1  0.5317160000000  0.4919620000000  0.5001270000000 1.0
C      1  0.4820870000000  0.5123140000000  0.5253450000000 1.0
C      1  0.4942300000000  0.5191960000000  0.4851010000000 1.0
C      1  0.5188360000000  0.5171420000000  0.4982050000000 1.0
C      1  0.5057700000000  0.4660350000000  0.4686410000000 1.0
C      1  0.5247460000000  0.4636870000000  0.5229700000000 1.0
C      1  0.4675750000000  0.4667180000000  0.5083230000000 1.0
C      1  0.5059980000000  0.5405780000000  0.4674870000000 1.0
C      1  0.5249720000000  0.5341220000000  0.5230180000000 1.0
C      1  0.4727720000000  0.5289900000000  0.5012590000000 1.0
C      1  0.4032350000000  0.5483550000000  0.4645550000000 1.0
C      1  0.5769550000000  0.5387630000000  0.4371500000000 1.0
C      1  0.5153920000000  0.5426150000000  0.5978860000000 1.0
C      1  0.4052650000000  0.4557290000000  0.4696250000000 1.0
C      1  0.5775770000000  0.4569840000000  0.4366630000000 1.0
C      1  0.5232030000000  0.4587020000000  0.6042940000000 1.0
C      1  0.4932650000000  0.4284120000000  0.4252460000000 1.0
C      1  0.5594260000000  0.4279840000000  0.5332570000000 1.0
C      1  0.4417600000000  0.4288350000000  0.5343560000000 1.0
C      1  0.5007950000000  0.5737440000000  0.4329570000000 1.0
C      1  0.5632680000000  0.5789890000000  0.5301170000000 1.0
C      1  0.4407610000000  0.5736410000000  0.5371610000000 1.0
C      1  0.5632640000000  0.5156780000000  0.4321890000000 1.0
C      1  0.5247160000000  0.5180060000000  0.5869160000000 1.0
C      1  0.4107050000000  0.5223680000000  0.4718090000000 1.0
C      1  0.5675900000000  0.4837600000000  0.4378150000000 1.0
C      1  0.5216030000000  0.4839560000000  0.5858640000000 1.0
C      1  0.4113050000000  0.4816090000000  0.4769310000000 1.0
C      1  0.5051700000000  0.4512280000000  0.4076990000000 1.0
C      1  0.5846800000000  0.4593930000000  0.5599940000000 1.0
C      1  0.4077180000000  0.4630210000000  0.5430340000000 1.0
C      1  0.5114080000000  0.5420390000000  0.4006780000000 1.0
C      1  0.5744280000000  0.5570800000000  0.5459200000000 1.0
C      1  0.4081460000000  0.5433210000000  0.5380720000000 1.0
C      1  0.4293620000000  0.4231320000000  0.4935710000000 1.0
C      1  0.5356240000000  0.4262860000000  0.4388460000000 1.0
C      1  0.5313900000000  0.4209160000000  0.5646250000000 1.0
C      1  0.4291650000000  0.5752020000000  0.4951040000000 1.0
C      1  0.5518580000000  0.5701500000000  0.4375570000000 1.0
C      1  0.5292640000000  0.5734130000000  0.5648610000000 1.0
C      1  0.4240180000000  0.5499590000000  0.5137400000000 1.0
C      1  0.5235660000000  0.5580140000000  0.4223660000000 1.0
C      1  0.5526410000000  0.5536540000000  0.5649670000000 1.0
C      1  0.4206750000000  0.4459790000000  0.5236840000000 1.0
C      1  0.5319180000000  0.4496540000000  0.4192670000000 1.0
C      1  0.5587930000000  0.4456540000000  0.5583000000000 1.0
C      1  0.5766050000000  0.5115790000000  0.5755870000000 1.0
C      1  0.3986400000000  0.5159970000000  0.5335650000000 1.0
C      1  0.5270590000000  0.5146590000000  0.4001200000000 1.0
C      1  0.5725870000000  0.4827920000000  0.5749010000000 1.0
C      1  0.3989790000000  0.4877430000000  0.5263060000000 1.0
C      1  0.5248990000000  0.4867180000000  0.4027330000000 1.0
C      1  0.5049940000000  0.5663440000000  0.5888550000000 1.0
C      1  0.4226450000000  0.5680930000000  0.4656770000000 1.0
C      1  0.5760000000000  0.5623530000000  0.4510390000000 1.0
C      1  0.5146470000000  0.4356890000000  0.5892330000000 1.0
C      1  0.4160890000000  0.4310130000000  0.4672280000000 1.0
C      1  0.5738550000000  0.4355350000000  0.4544900000000 1.0
C      1  0.4719210000000  0.5610030000000  0.5793110000000 1.0
C      1  0.4496880000000  0.5600780000000  0.4519090000000 1.0
C      1  0.5782530000000  0.5569410000000  0.4842710000000 1.0
C      1  0.4897100000000  0.4390500000000  0.5702140000000 1.0
C      1  0.4454680000000  0.4383920000000  0.4547180000000 1.0
C      1  0.5789120000000  0.4417220000000  0.4832050000000 1.0
C      1  0.5053390000000  0.4794970000000  0.5385370000000 1.0
C      1  0.4596130000000  0.4845560000000  0.4834790000000 1.0
C      1  0.5320510000000  0.4744700000000  0.4784320000000 1.0
C      1  0.5067270000000  0.5163980000000  0.5395520000000 1.0
C      1  0.4506130000000  0.5114640000000  0.4926190000000 1.0
C      1  0.5308310000000  0.5306260000000  0.4762850000000 1.0
C      1  0.5132040000000  0.4398310000000  0.5091490000000 1.0
C      1  0.4842940000000  0.4398950000000  0.5074590000000 1.0
C      1  0.4988730000000  0.4401260000000  0.4832250000000 1.0
C      1  0.5232060000000  0.5665520000000  0.5054810000000 1.0
C      1  0.4752880000000  0.5575670000000  0.4982370000000 1.0
C      1  0.5002930000000  0.5641900000000  0.4865210000000 1.0
C      1  0.4342430000000  0.5149860000000  0.4509760000000 1.0
C      1  0.5732460000000  0.5125600000000  0.4727020000000 1.0
C      1  0.4975470000000  0.5222140000000  0.5669210000000 1.0
C      1  0.4318820000000  0.4856340000000  0.4516260000000 1.0
C      1  0.5734230000000  0.4846800000000  0.4702240000000 1.0
C      1  0.4932440000000  0.4800360000000  0.5814650000000 1.0
C      1  0.4263450000000  0.5251060000000  0.4968380000000 1.0
C      1  0.5349610000000  0.5220510000000  0.4279790000000 1.0
C      1  0.5495470000000  0.5250820000000  0.5685140000000 1.0
C      1  0.4190310000000  0.4796610000000  0.5063780000000 1.0
C      1  0.5353070000000  0.4775660000000  0.4280270000000 1.0
C      1  0.5459210000000  0.4738240000000  0.5633650000000 1.0
C      1  0.5809660000000  0.5352680000000  0.5272760000000 1.0
C      1  0.4304350000000  0.5353700000000  0.5613410000000 1.0
C      1  0.4873840000000  0.5313890000000  0.4134270000000 1.0
C      1  0.5826750000000  0.4663880000000  0.5317120000000 1.0
C      1  0.4332850000000  0.4727550000000  0.5537540000000 1.0
C      1  0.4858350000000  0.4712770000000  0.4159600000000 1.0
C      1  0.4593920000000  0.5793320000000  0.5577920000000 1.0
C      1  0.4730010000000  0.5773220000000  0.4425630000000 1.0
C      1  0.5671820000000  0.5776990000000  0.5015340000000 1.0
C      1  0.4611670000000  0.4269440000000  0.5569800000000 1.0
C      1  0.4682900000000  0.4218890000000  0.4381150000000 1.0
C      1  0.5684970000000  0.4240080000000  0.5044820000000 1.0
C      1  0.5017970000000  0.5250270000000  0.4390570000000 1.0
C      1  0.5527980000000  0.5237960000000  0.5298230000000 1.0
C      1  0.4394870000000  0.5197680000000  0.5460600000000 1.0
C      1  0.5009640000000  0.4789010000000  0.4399130000000 1.0
C      1  0.5504360000000  0.4756850000000  0.5332490000000 1.0
C      1  0.4444450000000  0.4803140000000  0.5275040000000 1.0
C      1  0.4702380000000  0.5154140000000  0.5830020000000 1.0
C      1  0.4354600000000  0.5147450000000  0.4192660000000 1.0
C      1  0.5990910000000  0.5154200000000  0.4840790000000 1.0
C      1  0.4664590000000  0.4871420000000  0.5885130000000 1.0
C      1  0.4353090000000  0.4860740000000  0.4209750000000 1.0
C      1  0.6004950000000  0.4859800000000  0.4864350000000 1.0
C      1  0.4690630000000  0.5927800000000  0.4663810000000 1.0
C      1  0.5433590000000  0.5787600000000  0.4871050000000 1.0
C      1  0.4830690000000  0.5904170000000  0.5452190000000 1.0
C      1  0.4692390000000  0.4070280000000  0.4622720000000 1.0
C      1  0.5470320000000  0.4116080000000  0.4902450000000 1.0
C      1  0.4801860000000  0.4095460000000  0.5455030000000 1.0
C      1  0.5525940000000  0.4978710000000  0.5168860000000 1.0
C      1  0.4852880000000  0.5024140000000  0.4464480000000 1.0
C      1  0.4584720000000  0.5029300000000  0.5381910000000 1.0
C      1  0.4977670000000  0.6058940000000  0.5046410000000 1.0
C      1  0.4997380000000  0.3969920000000  0.4991240000000 1.0
END
