TITL C-2441160-1326-972 0.0804910333973096 125000 -23951.6177873201 0 0 172 (C1) n - 1
REM
REM in /home/bkarasulu/work/CARBON/AIRSS/Generating-Clusters/ReaxFF-fromJPCA2015/Units_Real/with-SteepDescent/Higher-Symm
REM
REM
REM
REM
REM
REM ./C.cell (1df0a924f5614ab8850e4351716899ee)
REM
REM compiler GCC version 9.2.1 20190827 (Red Hat 9.2.1-1)
REM options -cpp -mtune=generic -march=x86-64 -g -O0 -fpre-include=/usr/include/finclude/math-vector-fortran.h
REM seed -601572250 -870032138 -662858299 523487901 -2009722199 343291558 1934936464 -727806455 753010530 -1089237959 -1600722534 495566779 -1562087704 -1162131455 -1989200733 -1578055885 -571747195 1150945072 -1499606593 693115004 -858046568 1740030658 1357165340 -931669470 1057664059 1249079370 974612632 -1933373550 1008683265 -2085440775 1137298834 -162076591 -2018695077
REM
CELL 1.54180   50.00000   50.00000   50.00000   90.00000   90.00000   90.00000
LATT -1
SFAC C  
C      1  0.4535930000000  0.4218610000000  0.5650800000000 1.0
C      1  0.4189490000000  0.5654970000000  0.5093280000000 1.0
C      1  0.4299120000000  0.4301230000000  0.4664180000000 1.0
C      1  0.4343190000000  0.5724990000000  0.4349090000000 1.0
C      1  0.4982240000000  0.4228330000000  0.4284060000000 1.0
C      1  0.5604300000000  0.5673720000000  0.4464120000000 1.0
C      1  0.5752580000000  0.4207670000000  0.4738050000000 1.0
C      1  0.5735910000000  0.5787150000000  0.5240750000000 1.0
C      1  0.5340860000000  0.4320370000000  0.5746880000000 1.0
C      1  0.4862300000000  0.5711020000000  0.5829810000000 1.0
C      1  0.5723990000000  0.4704720000000  0.5704650000000 1.0
C      1  0.5195200000000  0.5328930000000  0.5962680000000 1.0
C      1  0.4537560000000  0.4690330000000  0.5943920000000 1.0
C      1  0.4250540000000  0.5445860000000  0.5601030000000 1.0
C      1  0.3951160000000  0.4668460000000  0.4745650000000 1.0
C      1  0.4331260000000  0.5447770000000  0.4219770000000 1.0
C      1  0.4828060000000  0.4748570000000  0.4018200000000 1.0
C      1  0.5256050000000  0.5431030000000  0.4056910000000 1.0
C      1  0.5835170000000  0.4630040000000  0.4385970000000 1.0
C      1  0.5989370000000  0.5375290000000  0.5231080000000 1.0
C      1  0.5903400000000  0.4632970000000  0.5233530000000 1.0
C      1  0.5675740000000  0.5356730000000  0.5694140000000 1.0
C      1  0.5124940000000  0.4577940000000  0.5991970000000 1.0
C      1  0.4657990000000  0.5364620000000  0.5946760000000 1.0
C      1  0.4199080000000  0.4548700000000  0.5494450000000 1.0
C      1  0.4008020000000  0.5344060000000  0.4902410000000 1.0
C      1  0.4338270000000  0.4651810000000  0.4286900000000 1.0
C      1  0.4807000000000  0.5512480000000  0.4082000000000 1.0
C      1  0.5397510000000  0.4622450000000  0.4201510000000 1.0
C      1  0.5932020000000  0.5321680000000  0.4554000000000 1.0
C      1  0.5709400000000  0.4388890000000  0.4518690000000 1.0
C      1  0.5705330000000  0.5697330000000  0.4967170000000 1.0
C      1  0.5637830000000  0.4244590000000  0.5314660000000 1.0
C      1  0.5313160000000  0.5691080000000  0.5612480000000 1.0
C      1  0.4815570000000  0.4302370000000  0.5742950000000 1.0
C      1  0.4406230000000  0.5696680000000  0.5512710000000 1.0
C      1  0.4335430000000  0.4143070000000  0.5178420000000 1.0
C      1  0.4307800000000  0.5685130000000  0.4628010000000 1.0
C      1  0.4703930000000  0.4322420000000  0.4334550000000 1.0
C      1  0.5217230000000  0.5697940000000  0.4203600000000 1.0
C      1  0.4743380000000  0.6041060000000  0.4985490000000 1.0
C      1  0.4823860000000  0.3914460000000  0.4850690000000 1.0
C      1  0.4906420000000  0.6032780000000  0.4737960000000 1.0
C      1  0.5097640000000  0.3920850000000  0.4782410000000 1.0
C      1  0.5178290000000  0.6051320000000  0.4820680000000 1.0
C      1  0.5238730000000  0.3991690000000  0.5021750000000 1.0
C      1  0.5195500000000  0.5989760000000  0.5122600000000 1.0
C      1  0.5076400000000  0.3924090000000  0.5254940000000 1.0
C      1  0.4919880000000  0.6054610000000  0.5217870000000 1.0
C      1  0.4812990000000  0.3903800000000  0.5140210000000 1.0
C      1  0.5086700000000  0.3969880000000  0.4275120000000 1.0
C      1  0.5402760000000  0.5859150000000  0.4369020000000 1.0
C      1  0.5559760000000  0.4002560000000  0.4688230000000 1.0
C      1  0.5715840000000  0.6086020000000  0.5176700000000 1.0
C      1  0.5458380000000  0.4156660000000  0.5527920000000 1.0
C      1  0.5072500000000  0.5853160000000  0.5680840000000 1.0
C      1  0.4646920000000  0.4019650000000  0.5502440000000 1.0
C      1  0.4324550000000  0.5846600000000  0.5276310000000 1.0
C      1  0.4352500000000  0.4117960000000  0.4885240000000 1.0
C      1  0.4578790000000  0.5870500000000  0.4383460000000 1.0
C      1  0.5216290000000  0.5577790000000  0.4858190000000 1.0
C      1  0.5228050000000  0.4336280000000  0.5016180000000 1.0
C      1  0.5164780000000  0.5638900000000  0.5135170000000 1.0
C      1  0.5046840000000  0.4417940000000  0.5216930000000 1.0
C      1  0.4885680000000  0.5589730000000  0.5182100000000 1.0
C      1  0.4785150000000  0.4445790000000  0.5115560000000 1.0
C      1  0.4757690000000  0.5574830000000  0.4937220000000 1.0
C      1  0.4790280000000  0.4435450000000  0.4840760000000 1.0
C      1  0.4956600000000  0.5577910000000  0.4738470000000 1.0
C      1  0.5069230000000  0.4408360000000  0.4781820000000 1.0
C      1  0.4864430000000  0.4659600000000  0.6042240000000 1.0
C      1  0.4425240000000  0.5383280000000  0.5809000000000 1.0
C      1  0.4117010000000  0.4715140000000  0.5270660000000 1.0
C      1  0.4129910000000  0.5293870000000  0.4651970000000 1.0
C      1  0.4549710000000  0.4781190000000  0.4096890000000 1.0
C      1  0.4997680000000  0.5319900000000  0.4000600000000 1.0
C      1  0.5647440000000  0.4783510000000  0.4210160000000 1.0
C      1  0.5954610000000  0.5279170000000  0.4828280000000 1.0
C      1  0.5930530000000  0.4739730000000  0.5514230000000 1.0
C      1  0.5464420000000  0.5402170000000  0.5869020000000 1.0
C      1  0.4998290000000  0.5276440000000  0.5543020000000 1.0
C      1  0.4672340000000  0.4689880000000  0.5483080000000 1.0
C      1  0.4353130000000  0.5416900000000  0.5135160000000 1.0
C      1  0.4341310000000  0.4567010000000  0.4791400000000 1.0
C      1  0.4657150000000  0.5289600000000  0.4526480000000 1.0
C      1  0.4981500000000  0.4709860000000  0.4493070000000 1.0
C      1  0.5459680000000  0.5419830000000  0.4493110000000 1.0
C      1  0.5429010000000  0.4677120000000  0.4764250000000 1.0
C      1  0.5523770000000  0.5285650000000  0.5162710000000 1.0
C      1  0.5376770000000  0.4669250000000  0.5417400000000 1.0
C      1  0.5301780000000  0.4923690000000  0.5345900000000 1.0
C      1  0.5055910000000  0.5006830000000  0.5482780000000 1.0
C      1  0.4798900000000  0.4918800000000  0.5388320000000 1.0
C      1  0.4601320000000  0.5024670000000  0.5200250000000 1.0
C      1  0.4631410000000  0.5103050000000  0.4930380000000 1.0
C      1  0.4693460000000  0.5032290000000  0.4655150000000 1.0
C      1  0.4968100000000  0.4981640000000  0.4531910000000 1.0
C      1  0.5227150000000  0.5076960000000  0.4615920000000 1.0
C      1  0.5426040000000  0.4968670000000  0.4813390000000 1.0
C      1  0.5448710000000  0.5024770000000  0.5104360000000 1.0
C      1  0.5192140000000  0.4014170000000  0.5501580000000 1.0
C      1  0.4870090000000  0.5960830000000  0.5489340000000 1.0
C      1  0.4541430000000  0.3947710000000  0.5254850000000 1.0
C      1  0.4462280000000  0.5965400000000  0.5037590000000 1.0
C      1  0.4572130000000  0.3993140000000  0.4722350000000 1.0
C      1  0.4830970000000  0.5942640000000  0.4449690000000 1.0
C      1  0.5258990000000  0.4011830000000  0.4564800000000 1.0
C      1  0.5401360000000  0.5991390000000  0.4640990000000 1.0
C      1  0.5540250000000  0.3926700000000  0.4966280000000 1.0
C      1  0.5439230000000  0.6070370000000  0.5303770000000 1.0
C      1  0.5191650000000  0.5310050000000  0.4464860000000 1.0
C      1  0.5429540000000  0.4469720000000  0.4457590000000 1.0
C      1  0.5667130000000  0.5408780000000  0.4946010000000 1.0
C      1  0.5589690000000  0.4547350000000  0.5243420000000 1.0
C      1  0.5251280000000  0.5412560000000  0.5526490000000 1.0
C      1  0.4885260000000  0.4555380000000  0.5618740000000 1.0
C      1  0.4519140000000  0.5283120000000  0.5330980000000 1.0
C      1  0.4315690000000  0.4603630000000  0.5085880000000 1.0
C      1  0.4399440000000  0.5421370000000  0.4635930000000 1.0
C      1  0.4719660000000  0.4598740000000  0.4434270000000 1.0
C      1  0.4619510000000  0.4629400000000  0.4711520000000 1.0
C      1  0.4915920000000  0.5414870000000  0.4506850000000 1.0
C      1  0.5117910000000  0.4687800000000  0.4754070000000 1.0
C      1  0.5440180000000  0.5438170000000  0.4774180000000 1.0
C      1  0.5455590000000  0.4503630000000  0.4995440000000 1.0
C      1  0.5264820000000  0.5377240000000  0.5240350000000 1.0
C      1  0.5127950000000  0.4531960000000  0.5457430000000 1.0
C      1  0.4793770000000  0.5394470000000  0.5371640000000 1.0
C      1  0.4578990000000  0.4615060000000  0.5219050000000 1.0
C      1  0.4531770000000  0.5383040000000  0.4912560000000 1.0
C      1  0.5085180000000  0.4172780000000  0.5724910000000 1.0
C      1  0.4662110000000  0.5788500000000  0.5614810000000 1.0
C      1  0.4334250000000  0.4299620000000  0.5431020000000 1.0
C      1  0.4273310000000  0.5826750000000  0.4865830000000 1.0
C      1  0.4512920000000  0.4172880000000  0.4496150000000 1.0
C      1  0.4941340000000  0.5743610000000  0.4235610000000 1.0
C      1  0.5193580000000  0.4292390000000  0.4523100000000 1.0
C      1  0.5638540000000  0.5828220000000  0.4717790000000 1.0
C      1  0.5716370000000  0.4130940000000  0.5063600000000 1.0
C      1  0.5517480000000  0.5831920000000  0.5455440000000 1.0
C      1  0.3995820000000  0.4944080000000  0.4810450000000 1.0
C      1  0.4261900000000  0.5171630000000  0.4286070000000 1.0
C      1  0.4916460000000  0.5010300000000  0.3949990000000 1.0
C      1  0.5387940000000  0.5172130000000  0.4079790000000 1.0
C      1  0.5885920000000  0.4840410000000  0.4548470000000 1.0
C      1  0.6027020000000  0.5110460000000  0.5166870000000 1.0
C      1  0.5645050000000  0.4942320000000  0.5739510000000 1.0
C      1  0.5164350000000  0.5052950000000  0.5947940000000 1.0
C      1  0.4583720000000  0.4966520000000  0.5942710000000 1.0
C      1  0.4177920000000  0.5151510000000  0.5555210000000 1.0
C      1  0.4313260000000  0.4690980000000  0.5743010000000 1.0
C      1  0.3979200000000  0.5185050000000  0.5117060000000 1.0
C      1  0.4133440000000  0.4752810000000  0.4465390000000 1.0
C      1  0.4555970000000  0.5361880000000  0.4064060000000 1.0
C      1  0.5151210000000  0.4674180000000  0.4062440000000 1.0
C      1  0.5845170000000  0.5280180000000  0.4287800000000 1.0
C      1  0.6013800000000  0.4733200000000  0.4990610000000 1.0
C      1  0.5895000000000  0.5311390000000  0.5507190000000 1.0
C      1  0.5391830000000  0.4576470000000  0.5904820000000 1.0
C      1  0.4917640000000  0.5464420000000  0.5971870000000 1.0
C      1  0.5962350000000  0.4960190000000  0.4776000000000 1.0
C      1  0.5898410000000  0.5021030000000  0.5418900000000 1.0
C      1  0.5405700000000  0.4890290000000  0.5880250000000 1.0
C      1  0.4884150000000  0.4936700000000  0.5982340000000 1.0
C      1  0.4313610000000  0.4970410000000  0.5725510000000 1.0
C      1  0.4067700000000  0.5007150000000  0.5315110000000 1.0
C      1  0.4201670000000  0.5018210000000  0.4588530000000 1.0
C      1  0.4475220000000  0.5063020000000  0.4129490000000 1.0
C      1  0.5191190000000  0.4945200000000  0.3998580000000 1.0
C      1  0.5631320000000  0.5075420000000  0.4188550000000 1.0
C      1  0.5031770000000  0.4931680000000  0.4967670000000 1.0
C      1  0.5050920000000  0.5157730000000  0.5094950000000 1.0
END
