TITL C-2441154-10-96 0.0512035802435557 125000 -25258.6751872654 0 0 175 (C1) n - 1
REM
REM in /home/bkarasulu/work/CARBON/AIRSS/Generating-Clusters/ReaxFF-fromJPCA2015/Units_Real/with-SteepDescent/Higher-Symm
REM
REM
REM
REM
REM
REM ./C.cell (1df0a924f5614ab8850e4351716899ee)
REM
REM compiler GCC version 9.2.1 20190827 (Red Hat 9.2.1-1)
REM options -cpp -mtune=generic -march=x86-64 -g -O0 -fpre-include=/usr/include/finclude/math-vector-fortran.h
REM seed -1922086399 -2106166659 132047295 -1348162580 -1026420891 988998073 -1989735906 -74780658 -475440075 -924065389 -222558497 407336095 1258629476 1406319271 -559802427 1515969213 1985625485 -64090843 -1867930933 806992684 -990744723 872280258 -1852985763 -1055638104 -399438281 -1407406354 395687439 187882523 1436220383 1736185219 -467740772 393059549 2035431721
REM
CELL 1.54180   50.00000   50.00000   50.00000   90.00000   90.00000   90.00000
LATT -1
SFAC C  
C      1  0.5148150000000  0.4033700000000  0.4583800000000 1.0
C      1  0.5335280000000  0.4139810000000  0.4766820000000 1.0
C      1  0.5402770000000  0.4005010000000  0.5205200000000 1.0
C      1  0.5183190000000  0.4123010000000  0.5333500000000 1.0
C      1  0.4696170000000  0.4084110000000  0.5252550000000 1.0
C      1  0.4652270000000  0.3987390000000  0.4972450000000 1.0
C      1  0.4731430000000  0.4135930000000  0.4749990000000 1.0
C      1  0.5904570000000  0.4499760000000  0.4455170000000 1.0
C      1  0.5937240000000  0.4628770000000  0.5611370000000 1.0
C      1  0.5080020000000  0.4557200000000  0.6085630000000 1.0
C      1  0.4148730000000  0.4562780000000  0.5760230000000 1.0
C      1  0.3979120000000  0.4535660000000  0.5051350000000 1.0
C      1  0.4486340000000  0.4618600000000  0.4011900000000 1.0
C      1  0.5396760000000  0.4564330000000  0.3931580000000 1.0
C      1  0.4654160000000  0.4861500000000  0.5420570000000 1.0
C      1  0.4520580000000  0.4830100000000  0.5018350000000 1.0
C      1  0.4720840000000  0.4792190000000  0.4628490000000 1.0
C      1  0.5131040000000  0.4834440000000  0.4519410000000 1.0
C      1  0.5453850000000  0.4812810000000  0.4817660000000 1.0
C      1  0.5429640000000  0.4848840000000  0.5247200000000 1.0
C      1  0.5092180000000  0.4847330000000  0.5504210000000 1.0
C      1  0.4856960000000  0.5179870000000  0.5856290000000 1.0
C      1  0.4218400000000  0.5201780000000  0.5370290000000 1.0
C      1  0.4349310000000  0.5224280000000  0.4677120000000 1.0
C      1  0.4777690000000  0.5205650000000  0.4306910000000 1.0
C      1  0.5489790000000  0.5206200000000  0.4273560000000 1.0
C      1  0.5896110000000  0.4995630000000  0.5115050000000 1.0
C      1  0.5531220000000  0.5229720000000  0.5591360000000 1.0
C      1  0.4800330000000  0.5450930000000  0.5226470000000 1.0
C      1  0.4709050000000  0.5576500000000  0.4982310000000 1.0
C      1  0.4806880000000  0.5474950000000  0.4726990000000 1.0
C      1  0.5082360000000  0.5414260000000  0.4693880000000 1.0
C      1  0.5255580000000  0.5560890000000  0.4875110000000 1.0
C      1  0.5257190000000  0.5440420000000  0.5137050000000 1.0
C      1  0.5052880000000  0.5570380000000  0.5285750000000 1.0
C      1  0.4753060000000  0.4623890000000  0.5279810000000 1.0
C      1  0.4639310000000  0.4562900000000  0.5019140000000 1.0
C      1  0.4803590000000  0.4560970000000  0.4779320000000 1.0
C      1  0.5078490000000  0.4613150000000  0.4714070000000 1.0
C      1  0.5281310000000  0.4596020000000  0.4906340000000 1.0
C      1  0.5258190000000  0.4616570000000  0.5186950000000 1.0
C      1  0.5026350000000  0.4612840000000  0.5344030000000 1.0
C      1  0.4029870000000  0.4777110000000  0.4186420000000 1.0
C      1  0.5026010000000  0.4861530000000  0.3997760000000 1.0
C      1  0.5899360000000  0.4990500000000  0.4271690000000 1.0
C      1  0.6137710000000  0.4875040000000  0.5236440000000 1.0
C      1  0.5364030000000  0.4917900000000  0.5952300000000 1.0
C      1  0.4438180000000  0.4902510000000  0.5911240000000 1.0
C      1  0.3908290000000  0.4966330000000  0.5252260000000 1.0
C      1  0.4925560000000  0.4150760000000  0.5454650000000 1.0
C      1  0.4460350000000  0.4183310000000  0.5272340000000 1.0
C      1  0.4464170000000  0.4078610000000  0.4771670000000 1.0
C      1  0.4882780000000  0.4124090000000  0.4512170000000 1.0
C      1  0.5395250000000  0.4120850000000  0.4498370000000 1.0
C      1  0.5528110000000  0.4113030000000  0.4975170000000 1.0
C      1  0.5435190000000  0.4095840000000  0.5462570000000 1.0
C      1  0.3852990000000  0.4807190000000  0.5035990000000 1.0
C      1  0.4277870000000  0.4831010000000  0.4017370000000 1.0
C      1  0.5266990000000  0.4790490000000  0.3805000000000 1.0
C      1  0.6032150000000  0.4758400000000  0.4399010000000 1.0
C      1  0.6092850000000  0.4859160000000  0.5528640000000 1.0
C      1  0.5234250000000  0.4780190000000  0.6191130000000 1.0
C      1  0.4157690000000  0.4790050000000  0.5939740000000 1.0
C      1  0.4705770000000  0.5045830000000  0.5008990000000 1.0
C      1  0.4811030000000  0.5047090000000  0.4745140000000 1.0
C      1  0.5122500000000  0.5123780000000  0.4679860000000 1.0
C      1  0.5324780000000  0.5066360000000  0.4868090000000 1.0
C      1  0.5276570000000  0.5140950000000  0.5147430000000 1.0
C      1  0.5062680000000  0.5078320000000  0.5333590000000 1.0
C      1  0.4794050000000  0.5132090000000  0.5264790000000 1.0
C      1  0.5977130000000  0.5152790000000  0.4500660000000 1.0
C      1  0.5923340000000  0.5347500000000  0.5442970000000 1.0
C      1  0.5245060000000  0.5173550000000  0.6055860000000 1.0
C      1  0.4307320000000  0.5162740000000  0.5844090000000 1.0
C      1  0.3975220000000  0.5292890000000  0.4883600000000 1.0
C      1  0.4319470000000  0.5354930000000  0.4190970000000 1.0
C      1  0.5135410000000  0.5160950000000  0.3947550000000 1.0
C      1  0.4535810000000  0.5503820000000  0.5680390000000 1.0
C      1  0.4308300000000  0.5520920000000  0.5119390000000 1.0
C      1  0.4324750000000  0.5740990000000  0.4544040000000 1.0
C      1  0.4926280000000  0.5675950000000  0.4157550000000 1.0
C      1  0.5694790000000  0.5570600000000  0.4555310000000 1.0
C      1  0.5636580000000  0.5595930000000  0.5209410000000 1.0
C      1  0.5422720000000  0.5768730000000  0.5721030000000 1.0
C      1  0.5050520000000  0.5010780000000  0.6211920000000 1.0
C      1  0.4057200000000  0.5021620000000  0.5787580000000 1.0
C      1  0.3914730000000  0.5011230000000  0.4832990000000 1.0
C      1  0.4389590000000  0.5090910000000  0.4088910000000 1.0
C      1  0.5393300000000  0.5035700000000  0.3892320000000 1.0
C      1  0.6107820000000  0.4934000000000  0.4620570000000 1.0
C      1  0.5938590000000  0.5092180000000  0.5618340000000 1.0
C      1  0.5310780000000  0.5852320000000  0.4864980000000 1.0
C      1  0.5328200000000  0.5952370000000  0.5145330000000 1.0
C      1  0.5086700000000  0.5893570000000  0.5317810000000 1.0
C      1  0.4787320000000  0.5956710000000  0.5282980000000 1.0
C      1  0.4642320000000  0.5888410000000  0.5011530000000 1.0
C      1  0.4759820000000  0.5956890000000  0.4731230000000 1.0
C      1  0.5048680000000  0.5988520000000  0.4697300000000 1.0
C      1  0.4227480000000  0.5437020000000  0.4485940000000 1.0
C      1  0.4826470000000  0.5401170000000  0.4097150000000 1.0
C      1  0.5606080000000  0.5482510000000  0.4289890000000 1.0
C      1  0.6001930000000  0.5258590000000  0.5158540000000 1.0
C      1  0.5550640000000  0.5486300000000  0.5748290000000 1.0
C      1  0.4705240000000  0.5429510000000  0.5912880000000 1.0
C      1  0.4119510000000  0.5485640000000  0.5350840000000 1.0
C      1  0.5780950000000  0.4515690000000  0.5373440000000 1.0
C      1  0.5187210000000  0.4479720000000  0.5813960000000 1.0
C      1  0.4419730000000  0.4472630000000  0.5672410000000 1.0
C      1  0.4243950000000  0.4497350000000  0.4931200000000 1.0
C      1  0.4522500000000  0.4472030000000  0.4290100000000 1.0
C      1  0.5221800000000  0.4455810000000  0.4158290000000 1.0
C      1  0.5763290000000  0.4444700000000  0.4706090000000 1.0
C      1  0.4914150000000  0.4406910000000  0.4093290000000 1.0
C      1  0.5683070000000  0.4454950000000  0.4270600000000 1.0
C      1  0.5943860000000  0.4412120000000  0.5132680000000 1.0
C      1  0.5505150000000  0.4465680000000  0.5773260000000 1.0
C      1  0.4699960000000  0.4431960000000  0.5819010000000 1.0
C      1  0.4042910000000  0.4461360000000  0.5319860000000 1.0
C      1  0.4271840000000  0.4451030000000  0.4469630000000 1.0
C      1  0.4344310000000  0.5787420000000  0.5009040000000 1.0
C      1  0.4590650000000  0.5855200000000  0.4516190000000 1.0
C      1  0.5124800000000  0.5907230000000  0.4463240000000 1.0
C      1  0.5595040000000  0.5763480000000  0.4747760000000 1.0
C      1  0.5563660000000  0.5868460000000  0.5284660000000 1.0
C      1  0.5177320000000  0.5886510000000  0.5625620000000 1.0
C      1  0.4703010000000  0.5909210000000  0.5545030000000 1.0
C      1  0.5684100000000  0.5001860000000  0.5714700000000 1.0
C      1  0.4821370000000  0.4940650000000  0.6033180000000 1.0
C      1  0.4022850000000  0.4972160000000  0.5491830000000 1.0
C      1  0.4161860000000  0.4940450000000  0.4669410000000 1.0
C      1  0.4651880000000  0.4973750000000  0.4191160000000 1.0
C      1  0.5630610000000  0.4971690000000  0.4130130000000 1.0
C      1  0.5968420000000  0.4834920000000  0.4853670000000 1.0
C      1  0.5615010000000  0.4665510000000  0.4082720000000 1.0
C      1  0.6102010000000  0.4642160000000  0.5067550000000 1.0
C      1  0.5696060000000  0.4686490000000  0.5759690000000 1.0
C      1  0.4814660000000  0.4635770000000  0.6002220000000 1.0
C      1  0.4015720000000  0.4664870000000  0.5522850000000 1.0
C      1  0.4119980000000  0.4701420000000  0.4457620000000 1.0
C      1  0.4773750000000  0.4637000000000  0.3982360000000 1.0
C      1  0.5243410000000  0.5321730000000  0.4167430000000 1.0
C      1  0.5880790000000  0.5371570000000  0.4652120000000 1.0
C      1  0.5641510000000  0.5337940000000  0.5341920000000 1.0
C      1  0.5107340000000  0.5339130000000  0.5855870000000 1.0
C      1  0.4405410000000  0.5259280000000  0.5584490000000 1.0
C      1  0.4263640000000  0.5277780000000  0.4957410000000 1.0
C      1  0.4667820000000  0.5259120000000  0.4589520000000 1.0
C      1  0.4282080000000  0.4298760000000  0.4712630000000 1.0
C      1  0.4771130000000  0.4275960000000  0.4294560000000 1.0
C      1  0.5431540000000  0.4323540000000  0.4316920000000 1.0
C      1  0.5774950000000  0.4268010000000  0.4942520000000 1.0
C      1  0.5592990000000  0.4322230000000  0.5551170000000 1.0
C      1  0.4923380000000  0.4317100000000  0.5683770000000 1.0
C      1  0.4295310000000  0.4327560000000  0.5414370000000 1.0
C      1  0.5664000000000  0.5846870000000  0.5568720000000 1.0
C      1  0.4926810000000  0.5834650000000  0.5739590000000 1.0
C      1  0.4437870000000  0.5786570000000  0.5641320000000 1.0
C      1  0.4163210000000  0.5751760000000  0.4780200000000 1.0
C      1  0.4661860000000  0.5760240000000  0.4238880000000 1.0
C      1  0.5185830000000  0.5810470000000  0.4211750000000 1.0
C      1  0.5757900000000  0.5646470000000  0.4956580000000 1.0
C      1  0.4311270000000  0.4770730000000  0.4854880000000 1.0
C      1  0.4635530000000  0.4748210000000  0.4377380000000 1.0
C      1  0.5147240000000  0.4761780000000  0.4256190000000 1.0
C      1  0.5712280000000  0.4725690000000  0.4757560000000 1.0
C      1  0.5688720000000  0.4803290000000  0.5264980000000 1.0
C      1  0.5214710000000  0.4772070000000  0.5740830000000 1.0
C      1  0.4520700000000  0.4783360000000  0.5644750000000 1.0
C      1  0.4010780000000  0.5509600000000  0.4690630000000 1.0
C      1  0.4539000000000  0.5519470000000  0.4109370000000 1.0
C      1  0.5374970000000  0.5588450000000  0.4147140000000 1.0
C      1  0.5933140000000  0.5421350000000  0.4926780000000 1.0
C      1  0.5792650000000  0.5593270000000  0.5637350000000 1.0
C      1  0.4949370000000  0.5589380000000  0.5905220000000 1.0
C      1  0.4212880000000  0.5690840000000  0.5515540000000 1.0
END
