TITL C-2441169-1362-777 0.117759106105129 125000 -24562.9298097225 0 0 186 (C1) n - 1
REM
REM in /home/bkarasulu/work/CARBON/AIRSS/Generating-Clusters/ReaxFF-fromJPCA2015/Units_Real/with-SteepDescent/Higher-Symm
REM
REM
REM
REM
REM
REM ./C.cell (1df0a924f5614ab8850e4351716899ee)
REM
REM compiler GCC version 9.2.1 20190827 (Red Hat 9.2.1-1)
REM options -cpp -mtune=generic -march=x86-64 -g -O0 -fpre-include=/usr/include/finclude/math-vector-fortran.h
REM seed 317127798 -1361474459 -1385391167 -925589255 -1553300849 -1809856849 -523238264 1674544561 503617943 -2116504579 -1321751264 -979167720 -1967242693 -2067312717 -431557348 232839008 888320642 -631099605 -1178366261 387975105 1199494358 -1367100647 -470868823 -2115895329 1429169986 844295743 803631257 516210520 1754099240 -261004021 765861532 1999821854 -387082154
REM
CELL 1.54180   50.00000   50.00000   50.00000   90.00000   90.00000   90.00000
LATT -1
SFAC C  
C      1  0.4486400000000  0.5643500000000  0.5318880000000 1.0
C      1  0.4975070000000  0.5627550000000  0.4394150000000 1.0
C      1  0.5513740000000  0.5592760000000  0.5262170000000 1.0
C      1  0.4513750000000  0.5600590000000  0.4673650000000 1.0
C      1  0.4982960000000  0.5594720000000  0.5571310000000 1.0
C      1  0.5529120000000  0.5644580000000  0.4739860000000 1.0
C      1  0.5147590000000  0.4382470000000  0.4531480000000 1.0
C      1  0.5397940000000  0.4465710000000  0.5405540000000 1.0
C      1  0.4451870000000  0.4450590000000  0.5150110000000 1.0
C      1  0.5148360000000  0.4479460000000  0.5522830000000 1.0
C      1  0.5381090000000  0.4489950000000  0.4624610000000 1.0
C      1  0.4458200000000  0.4478820000000  0.4873830000000 1.0
C      1  0.4648650000000  0.4722840000000  0.4084350000000 1.0
C      1  0.5973600000000  0.4722670000000  0.5223770000000 1.0
C      1  0.4318820000000  0.4721200000000  0.5745930000000 1.0
C      1  0.4692570000000  0.4728550000000  0.5958720000000 1.0
C      1  0.5990760000000  0.4732550000000  0.4774520000000 1.0
C      1  0.4392810000000  0.4724660000000  0.4232460000000 1.0
C      1  0.4861920000000  0.4242140000000  0.5820260000000 1.0
C      1  0.4366950000000  0.4237400000000  0.4473400000000 1.0
C      1  0.5773240000000  0.4263200000000  0.4709030000000 1.0
C      1  0.4861320000000  0.4249450000000  0.4185880000000 1.0
C      1  0.4358450000000  0.4240350000000  0.5528610000000 1.0
C      1  0.5770560000000  0.4243730000000  0.5291610000000 1.0
C      1  0.5714160000000  0.4255660000000  0.5578230000000 1.0
C      1  0.4138620000000  0.4262810000000  0.5329470000000 1.0
C      1  0.5140420000000  0.4304980000000  0.4114920000000 1.0
C      1  0.5698450000000  0.4274680000000  0.4426510000000 1.0
C      1  0.4155050000000  0.4266940000000  0.4672180000000 1.0
C      1  0.5140090000000  0.4262770000000  0.5912300000000 1.0
C      1  0.3880820000000  0.5013140000000  0.5148340000000 1.0
C      1  0.5439330000000  0.4995370000000  0.3977680000000 1.0
C      1  0.5686970000000  0.5013500000000  0.5889470000000 1.0
C      1  0.3914650000000  0.5031820000000  0.4861640000000 1.0
C      1  0.5446110000000  0.5020890000000  0.6020530000000 1.0
C      1  0.5675410000000  0.5044850000000  0.4140650000000 1.0
C      1  0.4237190000000  0.4799000000000  0.5324180000000 1.0
C      1  0.5096770000000  0.4776660000000  0.4140050000000 1.0
C      1  0.5689920000000  0.4770680000000  0.5532440000000 1.0
C      1  0.4224290000000  0.4778510000000  0.4640730000000 1.0
C      1  0.5083400000000  0.4785270000000  0.5870550000000 1.0
C      1  0.5686910000000  0.4764880000000  0.4467980000000 1.0
C      1  0.5009370000000  0.5467830000000  0.5289350000000 1.0
C      1  0.4730980000000  0.5436470000000  0.4843720000000 1.0
C      1  0.5281690000000  0.5445520000000  0.4840940000000 1.0
C      1  0.5001370000000  0.5466610000000  0.4690450000000 1.0
C      1  0.4732040000000  0.5469060000000  0.5159020000000 1.0
C      1  0.5268020000000  0.5446930000000  0.5138880000000 1.0
C      1  0.5537320000000  0.5867550000000  0.5184750000000 1.0
C      1  0.4631570000000  0.5890460000000  0.5392870000000 1.0
C      1  0.4850080000000  0.5890030000000  0.4466650000000 1.0
C      1  0.5519490000000  0.5895170000000  0.4883090000000 1.0
C      1  0.4588680000000  0.5887820000000  0.4615950000000 1.0
C      1  0.4882690000000  0.5862590000000  0.5560110000000 1.0
C      1  0.4175700000000  0.4528480000000  0.4806230000000 1.0
C      1  0.5522410000000  0.4523910000000  0.4359210000000 1.0
C      1  0.5249810000000  0.4517560000000  0.5804780000000 1.0
C      1  0.4168010000000  0.4519440000000  0.5167950000000 1.0
C      1  0.5566850000000  0.4504500000000  0.5639240000000 1.0
C      1  0.5283320000000  0.4540450000000  0.4158310000000 1.0
C      1  0.5284150000000  0.4956950000000  0.4257000000000 1.0
C      1  0.5447040000000  0.4912810000000  0.5537180000000 1.0
C      1  0.4331770000000  0.4955300000000  0.5116580000000 1.0
C      1  0.5289750000000  0.4969060000000  0.5765360000000 1.0
C      1  0.5504650000000  0.4969190000000  0.4384680000000 1.0
C      1  0.4234910000000  0.4969650000000  0.4864480000000 1.0
C      1  0.4244150000000  0.5656460000000  0.5119420000000 1.0
C      1  0.5249860000000  0.5691630000000  0.4297020000000 1.0
C      1  0.5487490000000  0.5668770000000  0.5547270000000 1.0
C      1  0.4275470000000  0.5700760000000  0.4832800000000 1.0
C      1  0.5231860000000  0.5681960000000  0.5695260000000 1.0
C      1  0.5500530000000  0.5709540000000  0.4447290000000 1.0
C      1  0.4995210000000  0.4043210000000  0.5295220000000 1.0
C      1  0.4747220000000  0.4030170000000  0.4853570000000 1.0
C      1  0.5250410000000  0.4056770000000  0.4853850000000 1.0
C      1  0.4986230000000  0.4040390000000  0.4701410000000 1.0
C      1  0.4749070000000  0.4043720000000  0.5157110000000 1.0
C      1  0.5253660000000  0.4050670000000  0.5138010000000 1.0
C      1  0.4470580000000  0.4833610000000  0.5522140000000 1.0
C      1  0.4831770000000  0.4830260000000  0.4272060000000 1.0
C      1  0.5707930000000  0.4835660000000  0.5246250000000 1.0
C      1  0.4477210000000  0.4826130000000  0.4488750000000 1.0
C      1  0.4830200000000  0.4830820000000  0.5725030000000 1.0
C      1  0.5711580000000  0.4824190000000  0.4762810000000 1.0
C      1  0.4263210000000  0.4985930000000  0.4122110000000 1.0
C      1  0.6100900000000  0.4983750000000  0.4869080000000 1.0
C      1  0.4569100000000  0.4982460000000  0.6023120000000 1.0
C      1  0.4309760000000  0.4987410000000  0.5876230000000 1.0
C      1  0.6092290000000  0.4981140000000  0.5161290000000 1.0
C      1  0.4498530000000  0.4991620000000  0.3953830000000 1.0
C      1  0.4987460000000  0.6269490000000  0.5282200000000 1.0
C      1  0.4739890000000  0.6202830000000  0.4847900000000 1.0
C      1  0.5269350000000  0.6210770000000  0.4843670000000 1.0
C      1  0.4993890000000  0.6207590000000  0.4698130000000 1.0
C      1  0.4725990000000  0.6210460000000  0.5159510000000 1.0
C      1  0.5241900000000  0.6263060000000  0.5132000000000 1.0
C      1  0.5003410000000  0.4920610000000  0.5262000000000 1.0
C      1  0.4767530000000  0.4909900000000  0.4870420000000 1.0
C      1  0.5245030000000  0.4873390000000  0.4838780000000 1.0
C      1  0.4981210000000  0.4795320000000  0.4722360000000 1.0
C      1  0.4768030000000  0.4822200000000  0.5141370000000 1.0
C      1  0.5225120000000  0.4955720000000  0.5118990000000 1.0
C      1  0.4274880000000  0.4060610000000  0.5154470000000 1.0
C      1  0.5217140000000  0.4120060000000  0.4339730000000 1.0
C      1  0.5492840000000  0.4061550000000  0.5554190000000 1.0
C      1  0.4277210000000  0.4067070000000  0.4853030000000 1.0
C      1  0.5233220000000  0.4065070000000  0.5708360000000 1.0
C      1  0.5504900000000  0.4060400000000  0.4456200000000 1.0
C      1  0.4506910000000  0.4059110000000  0.5328270000000 1.0
C      1  0.4933020000000  0.4058290000000  0.4410730000000 1.0
C      1  0.5521820000000  0.4065390000000  0.5263720000000 1.0
C      1  0.4508570000000  0.4049480000000  0.4682270000000 1.0
C      1  0.4969050000000  0.4061760000000  0.5590960000000 1.0
C      1  0.5525000000000  0.4068100000000  0.4742770000000 1.0
C      1  0.4947900000000  0.5156990000000  0.5402530000000 1.0
C      1  0.4690110000000  0.5155770000000  0.4757050000000 1.0
C      1  0.5404800000000  0.5183810000000  0.4758040000000 1.0
C      1  0.4994670000000  0.5194670000000  0.4568270000000 1.0
C      1  0.4689330000000  0.5189810000000  0.5263250000000 1.0
C      1  0.5385330000000  0.5179160000000  0.5206840000000 1.0
C      1  0.4613670000000  0.5538670000000  0.4087740000000 1.0
C      1  0.6011260000000  0.5565770000000  0.5096840000000 1.0
C      1  0.4392170000000  0.5595230000000  0.5825900000000 1.0
C      1  0.4592530000000  0.5554180000000  0.5922150000000 1.0
C      1  0.6016960000000  0.5602580000000  0.4872490000000 1.0
C      1  0.4403730000000  0.5569470000000  0.4169460000000 1.0
C      1  0.4747400000000  0.5113840000000  0.3887220000000 1.0
C      1  0.6004100000000  0.5107480000000  0.5450390000000 1.0
C      1  0.4109750000000  0.5107040000000  0.5654400000000 1.0
C      1  0.4869200000000  0.5111450000000  0.6103930000000 1.0
C      1  0.6002950000000  0.5101470000000  0.4565480000000 1.0
C      1  0.4084340000000  0.5103160000000  0.4337440000000 1.0
C      1  0.4690620000000  0.5949710000000  0.5155320000000 1.0
C      1  0.5055860000000  0.5924190000000  0.4663040000000 1.0
C      1  0.5305430000000  0.6013660000000  0.5264980000000 1.0
C      1  0.4692130000000  0.5917820000000  0.4885490000000 1.0
C      1  0.5070240000000  0.6025400000000  0.5417430000000 1.0
C      1  0.5287790000000  0.5955810000000  0.4801170000000 1.0
C      1  0.4393310000000  0.5415980000000  0.4429970000000 1.0
C      1  0.5782950000000  0.5467220000000  0.4757540000000 1.0
C      1  0.4822650000000  0.5407490000000  0.5804350000000 1.0
C      1  0.4401050000000  0.5458690000000  0.5556610000000 1.0
C      1  0.5790980000000  0.5413590000000  0.5227630000000 1.0
C      1  0.4856600000000  0.5403250000000  0.4169570000000 1.0
C      1  0.3995000000000  0.4971180000000  0.5421810000000 1.0
C      1  0.5160770000000  0.5029330000000  0.3904260000000 1.0
C      1  0.5890900000000  0.4973160000000  0.5681820000000 1.0
C      1  0.3976480000000  0.4969630000000  0.4575040000000 1.0
C      1  0.5116380000000  0.4975150000000  0.6108180000000 1.0
C      1  0.5885740000000  0.4967530000000  0.4330490000000 1.0
C      1  0.5432010000000  0.5203900000000  0.5496010000000 1.0
C      1  0.4320200000000  0.5236820000000  0.5132940000000 1.0
C      1  0.5210090000000  0.5219930000000  0.4344920000000 1.0
C      1  0.5446190000000  0.5211010000000  0.4490310000000 1.0
C      1  0.4288440000000  0.5253690000000  0.4856790000000 1.0
C      1  0.5216780000000  0.5226950000000  0.5674530000000 1.0
C      1  0.4982860000000  0.5256870000000  0.3921810000000 1.0
C      1  0.5870540000000  0.5357410000000  0.5513700000000 1.0
C      1  0.4113660000000  0.5365820000000  0.5526710000000 1.0
C      1  0.5011720000000  0.5361550000000  0.6031590000000 1.0
C      1  0.5865380000000  0.5341530000000  0.4508190000000 1.0
C      1  0.4105850000000  0.5359270000000  0.4479720000000 1.0
C      1  0.4734090000000  0.4454420000000  0.4836780000000 1.0
C      1  0.5379620000000  0.4609690000000  0.4884150000000 1.0
C      1  0.5021670000000  0.4470020000000  0.5266930000000 1.0
C      1  0.4755630000000  0.4527980000000  0.5139820000000 1.0
C      1  0.5281170000000  0.4489010000000  0.5135860000000 1.0
C      1  0.4924000000000  0.4529090000000  0.4635050000000 1.0
C      1  0.4553840000000  0.5112150000000  0.4504420000000 1.0
C      1  0.5656750000000  0.5098590000000  0.4856380000000 1.0
C      1  0.4794960000000  0.5112360000000  0.5646000000000 1.0
C      1  0.4545860000000  0.5128210000000  0.5508650000000 1.0
C      1  0.5659520000000  0.5107940000000  0.5135600000000 1.0
C      1  0.4796510000000  0.5113060000000  0.4354290000000 1.0
C      1  0.5257060000000  0.5441110000000  0.5865340000000 1.0
C      1  0.4109510000000  0.5465830000000  0.4764500000000 1.0
C      1  0.5607170000000  0.5460040000000  0.4325280000000 1.0
C      1  0.5342590000000  0.5446830000000  0.4179140000000 1.0
C      1  0.4113940000000  0.5423580000000  0.5236250000000 1.0
C      1  0.5606660000000  0.5419510000000  0.5636730000000 1.0
C      1  0.5944490000000  0.4432430000000  0.5144380000000 1.0
C      1  0.4399300000000  0.4420280000000  0.5756860000000 1.0
C      1  0.4638060000000  0.4411430000000  0.4096730000000 1.0
C      1  0.5952120000000  0.4436630000000  0.4859800000000 1.0
C      1  0.4396770000000  0.4398520000000  0.4238740000000 1.0
C      1  0.4646340000000  0.4426710000000  0.5896460000000 1.0
END
