TITL C-2441154-10-1484 0.018274287581307 125000 -10890.1376468906 0 0 81 (C1) n - 1
REM
REM in /home/bkarasulu/work/CARBON/AIRSS/Generating-Clusters/ReaxFF-fromJPCA2015/Units_Real/with-SteepDescent/Higher-Symm
REM
REM
REM
REM
REM
REM ./C.cell (1df0a924f5614ab8850e4351716899ee)
REM
REM compiler GCC version 9.2.1 20190827 (Red Hat 9.2.1-1)
REM options -cpp -mtune=generic -march=x86-64 -g -O0 -fpre-include=/usr/include/finclude/math-vector-fortran.h
REM seed 604172482 -611976213 -1464081629 589865051 226025031 -1761604241 1724800926 -69125234 582335020 1884347639 1034426150 -400164744 -1855625649 -1787949116 -1052345155 -1971547539 515917427 1188637593 -1692174742 -1469377132 1830595638 -1341689218 1667589568 547472455 1664658647 609061852 -1024812577 -51330380 2131348300 -1633586410 2008150795 511067734 -1182916171
REM
CELL 1.54180   50.00000   50.00000   50.00000   90.00000   90.00000   90.00000
LATT -1
SFAC C  
C      1  0.4507270000000  0.4828810000000  0.4438460000000 1.0
C      1  0.5710260000000  0.4804260000000  0.4852650000000 1.0
C      1  0.4781350000000  0.4803380000000  0.5681710000000 1.0
C      1  0.4493940000000  0.5200940000000  0.4441150000000 1.0
C      1  0.5700100000000  0.5201180000000  0.4849730000000 1.0
C      1  0.4771480000000  0.5211470000000  0.5710990000000 1.0
C      1  0.4528010000000  0.4819430000000  0.5518760000000 1.0
C      1  0.5732130000000  0.4823950000000  0.5153820000000 1.0
C      1  0.4778810000000  0.4787520000000  0.4282790000000 1.0
C      1  0.4517940000000  0.5167560000000  0.5538860000000 1.0
C      1  0.5719280000000  0.5177630000000  0.5161050000000 1.0
C      1  0.4784730000000  0.5182550000000  0.4322010000000 1.0
C      1  0.5464600000000  0.4828270000000  0.5538810000000 1.0
C      1  0.4356220000000  0.4835460000000  0.5119750000000 1.0
C      1  0.5230600000000  0.4859430000000  0.4346180000000 1.0
C      1  0.5462260000000  0.5120370000000  0.5536070000000 1.0
C      1  0.4320580000000  0.5125540000000  0.5136120000000 1.0
C      1  0.5200190000000  0.5152770000000  0.4375830000000 1.0
C      1  0.5465910000000  0.4859150000000  0.4519130000000 1.0
C      1  0.4314680000000  0.4842360000000  0.4827190000000 1.0
C      1  0.5202890000000  0.4824960000000  0.5673030000000 1.0
C      1  0.5462550000000  0.5156130000000  0.4509970000000 1.0
C      1  0.4288100000000  0.5137790000000  0.4845650000000 1.0
C      1  0.5216080000000  0.5123920000000  0.5690280000000 1.0
C      1  0.5840870000000  0.4560850000000  0.5268950000000 1.0
C      1  0.4361530000000  0.4562960000000  0.5571020000000 1.0
C      1  0.4822180000000  0.4533340000000  0.4162090000000 1.0
C      1  0.5847420000000  0.5441220000000  0.5255690000000 1.0
C      1  0.4328450000000  0.5420920000000  0.5531950000000 1.0
C      1  0.4931760000000  0.5400410000000  0.4213360000000 1.0
C      1  0.5723390000000  0.4588240000000  0.4669300000000 1.0
C      1  0.4341630000000  0.4604610000000  0.4494470000000 1.0
C      1  0.4906060000000  0.4571280000000  0.5797870000000 1.0
C      1  0.5726990000000  0.5421170000000  0.4668220000000 1.0
C      1  0.4377600000000  0.5454070000000  0.4387150000000 1.0
C      1  0.4803330000000  0.5476610000000  0.5854620000000 1.0
C      1  0.5402810000000  0.5214080000000  0.4794770000000 1.0
C      1  0.5007830000000  0.5263560000000  0.5530120000000 1.0
C      1  0.4553450000000  0.5242620000000  0.4756850000000 1.0
C      1  0.5391310000000  0.4789020000000  0.4801560000000 1.0
C      1  0.4999340000000  0.4770460000000  0.5457890000000 1.0
C      1  0.4607360000000  0.4789870000000  0.4747770000000 1.0
C      1  0.5422680000000  0.5209750000000  0.5251680000000 1.0
C      1  0.4972570000000  0.5198810000000  0.4568850000000 1.0
C      1  0.4578800000000  0.5234240000000  0.5244050000000 1.0
C      1  0.5425900000000  0.4764680000000  0.5247910000000 1.0
C      1  0.5001650000000  0.4726990000000  0.4477610000000 1.0
C      1  0.4637770000000  0.4774840000000  0.5214530000000 1.0
C      1  0.4843400000000  0.4365970000000  0.5608810000000 1.0
C      1  0.4531090000000  0.4396900000000  0.4539770000000 1.0
C      1  0.5606380000000  0.4384410000000  0.4829250000000 1.0
C      1  0.4814060000000  0.5638240000000  0.5599180000000 1.0
C      1  0.4572270000000  0.5624160000000  0.4502410000000 1.0
C      1  0.5603050000000  0.5616990000000  0.4829890000000 1.0
C      1  0.4801670000000  0.4364240000000  0.4389840000000 1.0
C      1  0.4565640000000  0.4379880000000  0.5460560000000 1.0
C      1  0.5646310000000  0.4382550000000  0.5133830000000 1.0
C      1  0.4857280000000  0.5609760000000  0.4389830000000 1.0
C      1  0.4536670000000  0.5612350000000  0.5439050000000 1.0
C      1  0.5636410000000  0.5609600000000  0.5133410000000 1.0
C      1  0.5315770000000  0.5512430000000  0.4803450000000 1.0
C      1  0.5019300000000  0.5533490000000  0.5423530000000 1.0
C      1  0.4591180000000  0.5538550000000  0.4787380000000 1.0
C      1  0.5325070000000  0.4480730000000  0.4807190000000 1.0
C      1  0.5022640000000  0.4480780000000  0.5413150000000 1.0
C      1  0.4618390000000  0.4489670000000  0.4803950000000 1.0
C      1  0.5378960000000  0.5509310000000  0.5249440000000 1.0
C      1  0.5009570000000  0.5518790000000  0.4631210000000 1.0
C      1  0.4641460000000  0.5512590000000  0.5185940000000 1.0
C      1  0.5383660000000  0.4467030000000  0.5244400000000 1.0
C      1  0.5012900000000  0.4448340000000  0.4597910000000 1.0
C      1  0.4647560000000  0.4481410000000  0.5198550000000 1.0
C      1  0.5210970000000  0.4411310000000  0.5048880000000 1.0
C      1  0.4848670000000  0.5590650000000  0.4842050000000 1.0
C      1  0.5208480000000  0.5569920000000  0.5052420000000 1.0
C      1  0.4942610000000  0.5639890000000  0.5101960000000 1.0
C      1  0.4866590000000  0.4410070000000  0.4834490000000 1.0
C      1  0.4942890000000  0.4350930000000  0.5097450000000 1.0
C      1  0.4933710000000  0.4944750000000  0.5082020000000 1.0
C      1  0.4813150000000  0.5028840000000  0.4830840000000 1.0
C      1  0.5229610000000  0.4968040000000  0.5069690000000 1.0
END
