TITL C-2441157-2117-353 0.0314708181131508 125000 -15064.3312270595 0 0 109 (C1) n - 1
REM
REM in /home/bkarasulu/work/CARBON/AIRSS/Generating-Clusters/ReaxFF-fromJPCA2015/Units_Real/with-SteepDescent/Higher-Symm
REM
REM
REM
REM
REM
REM ./C.cell (1df0a924f5614ab8850e4351716899ee)
REM
REM compiler GCC version 9.2.1 20190827 (Red Hat 9.2.1-1)
REM options -cpp -mtune=generic -march=x86-64 -g -O0 -fpre-include=/usr/include/finclude/math-vector-fortran.h
REM seed 816327541 913251030 38012132 -1432957642 -1943479999 392754155 312744978 1748652562 -819663008 -1894914031 -1813307135 -426888845 -1159317020 -1213440917 -1740394729 783085240 1913464698 649193744 -1062516355 -1983285961 196408396 -1500112866 1472780921 236416931 -393930207 226562250 -609064103 -536506300 -1051883676 646613529 1488741190 2056766419 -2135097918
REM
CELL 1.54180   50.00000   50.00000   50.00000   90.00000   90.00000   90.00000
LATT -1
SFAC C  
C      1  0.5653240000000  0.5419860000000  0.4800830000000 1.0
C      1  0.5641880000000  0.4495670000000  0.4697560000000 1.0
C      1  0.4782770000000  0.4241620000000  0.4796440000000 1.0
C      1  0.4224010000000  0.5011770000000  0.4714580000000 1.0
C      1  0.4771310000000  0.5755790000000  0.4762120000000 1.0
C      1  0.5636710000000  0.5535220000000  0.5248770000000 1.0
C      1  0.5582260000000  0.4457170000000  0.5237010000000 1.0
C      1  0.4708140000000  0.4247940000000  0.5292520000000 1.0
C      1  0.4236560000000  0.5003030000000  0.5197560000000 1.0
C      1  0.4767980000000  0.5761090000000  0.5255310000000 1.0
C      1  0.5352480000000  0.5110960000000  0.5129560000000 1.0
C      1  0.5054360000000  0.4716910000000  0.5149510000000 1.0
C      1  0.4773840000000  0.4662770000000  0.5055870000000 1.0
C      1  0.4761920000000  0.5168610000000  0.5164450000000 1.0
C      1  0.5060360000000  0.5424090000000  0.5069300000000 1.0
C      1  0.5310840000000  0.5027860000000  0.4836940000000 1.0
C      1  0.5241880000000  0.4703420000000  0.4906950000000 1.0
C      1  0.4734250000000  0.4754900000000  0.4795400000000 1.0
C      1  0.4657120000000  0.5179900000000  0.4886270000000 1.0
C      1  0.5138970000000  0.5290650000000  0.4820430000000 1.0
C      1  0.5139800000000  0.5612090000000  0.5513770000000 1.0
C      1  0.5768200000000  0.5144170000000  0.5440580000000 1.0
C      1  0.5266000000000  0.4356530000000  0.5512120000000 1.0
C      1  0.4454500000000  0.4515850000000  0.5488650000000 1.0
C      1  0.4432720000000  0.5284510000000  0.5497990000000 1.0
C      1  0.5123270000000  0.5725220000000  0.4531820000000 1.0
C      1  0.5689310000000  0.5152470000000  0.4494990000000 1.0
C      1  0.5303910000000  0.4310720000000  0.4524020000000 1.0
C      1  0.4482760000000  0.4410390000000  0.4501570000000 1.0
C      1  0.4422760000000  0.5391090000000  0.4466890000000 1.0
C      1  0.5574730000000  0.4962360000000  0.5258800000000 1.0
C      1  0.5124070000000  0.4445240000000  0.5266330000000 1.0
C      1  0.4441640000000  0.4577020000000  0.5197030000000 1.0
C      1  0.4552720000000  0.5353330000000  0.5246160000000 1.0
C      1  0.5216010000000  0.5613660000000  0.5232850000000 1.0
C      1  0.5584850000000  0.5015540000000  0.4721610000000 1.0
C      1  0.5167570000000  0.4461810000000  0.4743120000000 1.0
C      1  0.4476120000000  0.4625810000000  0.4713850000000 1.0
C      1  0.4460500000000  0.5417580000000  0.4751710000000 1.0
C      1  0.5250800000000  0.5555390000000  0.4738160000000 1.0
C      1  0.5196670000000  0.4213250000000  0.5112320000000 1.0
C      1  0.4201330000000  0.4716640000000  0.5092420000000 1.0
C      1  0.4493930000000  0.5636770000000  0.5166950000000 1.0
C      1  0.5459150000000  0.5729740000000  0.5127270000000 1.0
C      1  0.5761880000000  0.4809780000000  0.5091870000000 1.0
C      1  0.5070610000000  0.4197850000000  0.4851420000000 1.0
C      1  0.4208500000000  0.4714250000000  0.4804140000000 1.0
C      1  0.4480560000000  0.5667910000000  0.4881320000000 1.0
C      1  0.5506950000000  0.5674690000000  0.4843020000000 1.0
C      1  0.5839310000000  0.4971270000000  0.4858040000000 1.0
C      1  0.5081680000000  0.4759990000000  0.5645610000000 1.0
C      1  0.4629140000000  0.4782040000000  0.5792330000000 1.0
C      1  0.4673550000000  0.5315880000000  0.5857280000000 1.0
C      1  0.5091720000000  0.5206010000000  0.5738020000000 1.0
C      1  0.5498810000000  0.4969760000000  0.5782860000000 1.0
C      1  0.5067800000000  0.4747500000000  0.4351720000000 1.0
C      1  0.4601270000000  0.4705200000000  0.4185810000000 1.0
C      1  0.4789580000000  0.5107730000000  0.4257580000000 1.0
C      1  0.5156210000000  0.5386780000000  0.4248980000000 1.0
C      1  0.5474570000000  0.4943970000000  0.4181210000000 1.0
C      1  0.5594760000000  0.4644560000000  0.4443260000000 1.0
C      1  0.4783000000000  0.4332570000000  0.4472480000000 1.0
C      1  0.4350270000000  0.5113480000000  0.4450550000000 1.0
C      1  0.4842320000000  0.5666660000000  0.4486450000000 1.0
C      1  0.5545090000000  0.5393950000000  0.4397120000000 1.0
C      1  0.5514300000000  0.4543330000000  0.5511510000000 1.0
C      1  0.4710910000000  0.4381530000000  0.5552620000000 1.0
C      1  0.4334300000000  0.5017150000000  0.5484060000000 1.0
C      1  0.4848610000000  0.5626550000000  0.5525250000000 1.0
C      1  0.5623530000000  0.5420970000000  0.5509420000000 1.0
C      1  0.5356930000000  0.4725410000000  0.5687170000000 1.0
C      1  0.4863260000000  0.4597130000000  0.5710530000000 1.0
C      1  0.4635160000000  0.5043520000000  0.5827340000000 1.0
C      1  0.4924380000000  0.5379950000000  0.5835670000000 1.0
C      1  0.5355440000000  0.5231620000000  0.5801350000000 1.0
C      1  0.5349740000000  0.4698050000000  0.4280320000000 1.0
C      1  0.4846490000000  0.4566050000000  0.4297310000000 1.0
C      1  0.4532400000000  0.4987180000000  0.4257410000000 1.0
C      1  0.4864670000000  0.5366250000000  0.4207890000000 1.0
C      1  0.5386100000000  0.5218460000000  0.4223310000000 1.0
C      1  0.5381280000000  0.5473180000000  0.5646930000000 1.0
C      1  0.5712310000000  0.4905940000000  0.5609090000000 1.0
C      1  0.5068840000000  0.4279220000000  0.5705140000000 1.0
C      1  0.4395660000000  0.4771510000000  0.5626710000000 1.0
C      1  0.4603180000000  0.5479000000000  0.5640100000000 1.0
C      1  0.5324300000000  0.5607020000000  0.4341990000000 1.0
C      1  0.5707910000000  0.4896560000000  0.4342730000000 1.0
C      1  0.5078710000000  0.4225710000000  0.4369770000000 1.0
C      1  0.4381570000000  0.4607060000000  0.4323600000000 1.0
C      1  0.4657770000000  0.5522020000000  0.4333310000000 1.0
C      1  0.5909060000000  0.5258400000000  0.4915200000000 1.0
C      1  0.5525890000000  0.4246840000000  0.4775560000000 1.0
C      1  0.4469300000000  0.4193120000000  0.4874960000000 1.0
C      1  0.4011980000000  0.5240500000000  0.4842280000000 1.0
C      1  0.4978660000000  0.5949950000000  0.4833830000000 1.0
C      1  0.5969110000000  0.5201310000000  0.5181060000000 1.0
C      1  0.5487580000000  0.4228700000000  0.5068760000000 1.0
C      1  0.4438680000000  0.4266140000000  0.5150640000000 1.0
C      1  0.4021270000000  0.5255270000000  0.5113160000000 1.0
C      1  0.4953170000000  0.6013300000000  0.5090220000000 1.0
C      1  0.4865830000000  0.5603860000000  0.5023770000000 1.0
C      1  0.4797950000000  0.4391750000000  0.5052170000000 1.0
C      1  0.4404120000000  0.5044520000000  0.4949970000000 1.0
C      1  0.5534400000000  0.5334720000000  0.5059140000000 1.0
C      1  0.5556970000000  0.4626840000000  0.4978940000000 1.0
C      1  0.5023140000000  0.5007860000000  0.5544990000000 1.0
C      1  0.4960260000000  0.5003890000000  0.4447500000000 1.0
C      1  0.5011350000000  0.5040610000000  0.5254400000000 1.0
C      1  0.4864250000000  0.5000310000000  0.4721100000000 1.0
END
