TITL C-2441160-1326-970 0.132915936119625 125000 -25771.3057574925 0 0 195 (C1) n - 1
REM
REM in /home/bkarasulu/work/CARBON/AIRSS/Generating-Clusters/ReaxFF-fromJPCA2015/Units_Real/with-SteepDescent/Higher-Symm
REM
REM
REM
REM
REM
REM ./C.cell (1df0a924f5614ab8850e4351716899ee)
REM
REM compiler GCC version 9.2.1 20190827 (Red Hat 9.2.1-1)
REM options -cpp -mtune=generic -march=x86-64 -g -O0 -fpre-include=/usr/include/finclude/math-vector-fortran.h
REM seed -1712389899 -1895112400 -1341147417 1412243421 509115240 1194023627 -1929147141 137897009 -65294471 677565261 2103479768 -103302916 1835804540 470577714 1772821534 1564795575 -576189829 1041633019 -1063907078 -1359286907 -1090141503 1187599361 1427798453 1210961612 1365329631 2006703731 1192797091 -43799520 -1334601786 -1682018195 -1649390489 -1776389170 -821564132
REM
CELL 1.54180   50.00000   50.00000   50.00000   90.00000   90.00000   90.00000
LATT -1
SFAC C  
C      1  0.4420450000000  0.4774420000000  0.4095750000000 1.0
C      1  0.4625560000000  0.4529260000000  0.5364490000000 1.0
C      1  0.5584440000000  0.5306150000000  0.4931610000000 1.0
C      1  0.4256570000000  0.4824870000000  0.5575350000000 1.0
C      1  0.4764420000000  0.4424240000000  0.4086770000000 1.0
C      1  0.5833080000000  0.4937180000000  0.5473960000000 1.0
C      1  0.4376890000000  0.5503880000000  0.4514690000000 1.0
C      1  0.4490110000000  0.5495770000000  0.4802990000000 1.0
C      1  0.5319320000000  0.4603420000000  0.5099400000000 1.0
C      1  0.5156320000000  0.3858080000000  0.4484550000000 1.0
C      1  0.5367510000000  0.5265060000000  0.4079250000000 1.0
C      1  0.4777390000000  0.4333850000000  0.5246890000000 1.0
C      1  0.4908760000000  0.4485510000000  0.5023030000000 1.0
C      1  0.5211980000000  0.5576380000000  0.5931730000000 1.0
C      1  0.4911740000000  0.5357320000000  0.4836740000000 1.0
C      1  0.3944690000000  0.5289700000000  0.5327330000000 1.0
C      1  0.5869800000000  0.5603000000000  0.5077500000000 1.0
C      1  0.4805310000000  0.4243200000000  0.4567210000000 1.0
C      1  0.4924910000000  0.4889050000000  0.6105100000000 1.0
C      1  0.5183730000000  0.5241360000000  0.4310690000000 1.0
C      1  0.5770490000000  0.5663780000000  0.5525030000000 1.0
C      1  0.4900790000000  0.5019550000000  0.4996150000000 1.0
C      1  0.4045310000000  0.4805890000000  0.4764060000000 1.0
C      1  0.5220080000000  0.5834730000000  0.4853710000000 1.0
C      1  0.4681670000000  0.4757210000000  0.6030770000000 1.0
C      1  0.4839470000000  0.6031160000000  0.5038540000000 1.0
C      1  0.5204860000000  0.4829170000000  0.5275650000000 1.0
C      1  0.4900720000000  0.5685600000000  0.4361820000000 1.0
C      1  0.5504970000000  0.5731640000000  0.4386060000000 1.0
C      1  0.5634120000000  0.4874070000000  0.5939940000000 1.0
C      1  0.5195000000000  0.4398790000000  0.4420840000000 1.0
C      1  0.4659470000000  0.5159230000000  0.4402370000000 1.0
C      1  0.4794870000000  0.5786840000000  0.5730210000000 1.0
C      1  0.4170830000000  0.4299710000000  0.4679150000000 1.0
C      1  0.4496570000000  0.4954060000000  0.5962880000000 1.0
C      1  0.5162060000000  0.4491790000000  0.4893760000000 1.0
C      1  0.5349090000000  0.5652820000000  0.5220830000000 1.0
C      1  0.4937140000000  0.4301170000000  0.4320520000000 1.0
C      1  0.4155720000000  0.5044140000000  0.5748200000000 1.0
C      1  0.6068680000000  0.4693780000000  0.4975640000000 1.0
C      1  0.5532690000000  0.4401320000000  0.4117730000000 1.0
C      1  0.4463190000000  0.5740980000000  0.5381980000000 1.0
C      1  0.4369840000000  0.4769070000000  0.4717590000000 1.0
C      1  0.4695710000000  0.4885330000000  0.4210410000000 1.0
C      1  0.5598370000000  0.5976570000000  0.5143910000000 1.0
C      1  0.5790570000000  0.4386020000000  0.4926610000000 1.0
C      1  0.4266570000000  0.4238810000000  0.4950950000000 1.0
C      1  0.4859070000000  0.5985580000000  0.5537020000000 1.0
C      1  0.4207860000000  0.5606310000000  0.5357240000000 1.0
C      1  0.4317060000000  0.5286660000000  0.5805890000000 1.0
C      1  0.5613570000000  0.5038810000000  0.4481810000000 1.0
C      1  0.3968830000000  0.4567890000000  0.4388690000000 1.0
C      1  0.5195860000000  0.4724040000000  0.3949360000000 1.0
C      1  0.5544440000000  0.5626000000000  0.5694970000000 1.0
C      1  0.5262730000000  0.5943070000000  0.4449550000000 1.0
C      1  0.5005260000000  0.3941510000000  0.5411590000000 1.0
C      1  0.4020420000000  0.4844930000000  0.4321030000000 1.0
C      1  0.4505350000000  0.4599900000000  0.4912250000000 1.0
C      1  0.5634620000000  0.4420650000000  0.5399760000000 1.0
C      1  0.4941450000000  0.4802850000000  0.5412790000000 1.0
C      1  0.4365730000000  0.4328100000000  0.4437510000000 1.0
C      1  0.5197900000000  0.4038420000000  0.5221920000000 1.0
C      1  0.5061760000000  0.5943580000000  0.4651430000000 1.0
C      1  0.3996230000000  0.4888680000000  0.5038130000000 1.0
C      1  0.4065760000000  0.5241970000000  0.4559490000000 1.0
C      1  0.4740450000000  0.4472520000000  0.4789270000000 1.0
C      1  0.5991900000000  0.5390340000000  0.5251230000000 1.0
C      1  0.5172720000000  0.4478840000000  0.5997490000000 1.0
C      1  0.4585150000000  0.4540270000000  0.5629940000000 1.0
C      1  0.4979380000000  0.4717930000000  0.5691080000000 1.0
C      1  0.5089220000000  0.5880420000000  0.4227420000000 1.0
C      1  0.5244980000000  0.5099460000000  0.4682010000000 1.0
C      1  0.4871730000000  0.5292750000000  0.4561460000000 1.0
C      1  0.4720930000000  0.4291220000000  0.5717920000000 1.0
C      1  0.4482190000000  0.5701690000000  0.4340170000000 1.0
C      1  0.5039750000000  0.4001600000000  0.4965210000000 1.0
C      1  0.3950630000000  0.5081160000000  0.5538980000000 1.0
C      1  0.5175210000000  0.4734370000000  0.6130710000000 1.0
C      1  0.5492990000000  0.4085390000000  0.4778180000000 1.0
C      1  0.4872650000000  0.4702910000000  0.4613230000000 1.0
C      1  0.5376280000000  0.4932410000000  0.6052990000000 1.0
C      1  0.4823100000000  0.4896420000000  0.3963430000000 1.0
C      1  0.5587410000000  0.4237520000000  0.4993850000000 1.0
C      1  0.5143790000000  0.4585770000000  0.4630230000000 1.0
C      1  0.3991560000000  0.4810190000000  0.5453120000000 1.0
C      1  0.4742560000000  0.4992640000000  0.5517680000000 1.0
C      1  0.4762540000000  0.3871420000000  0.5256720000000 1.0
C      1  0.4786320000000  0.4940690000000  0.4749210000000 1.0
C      1  0.3955480000000  0.5170840000000  0.5061020000000 1.0
C      1  0.4083050000000  0.5350320000000  0.4842640000000 1.0
C      1  0.5369090000000  0.4126690000000  0.5670150000000 1.0
C      1  0.4520030000000  0.5037950000000  0.4701010000000 1.0
C      1  0.6033750000000  0.4822420000000  0.4708470000000 1.0
C      1  0.5914350000000  0.5418060000000  0.5515820000000 1.0
C      1  0.5494960000000  0.5259320000000  0.4640650000000 1.0
C      1  0.5293540000000  0.5776230000000  0.5736350000000 1.0
C      1  0.5291640000000  0.4476470000000  0.3995250000000 1.0
C      1  0.5652780000000  0.4220380000000  0.4604640000000 1.0
C      1  0.4302130000000  0.4549970000000  0.5646650000000 1.0
C      1  0.5530750000000  0.5913660000000  0.4871060000000 1.0
C      1  0.4794480000000  0.5816720000000  0.4634760000000 1.0
C      1  0.5844820000000  0.5050410000000  0.4325590000000 1.0
C      1  0.4961340000000  0.5522640000000  0.5770810000000 1.0
C      1  0.5447620000000  0.4808890000000  0.4408350000000 1.0
C      1  0.5556920000000  0.5444380000000  0.4349830000000 1.0
C      1  0.4721700000000  0.4674460000000  0.4386980000000 1.0
C      1  0.5220120000000  0.5057870000000  0.5121040000000 1.0
C      1  0.5859300000000  0.5586040000000  0.4749560000000 1.0
C      1  0.5454740000000  0.4031050000000  0.5406730000000 1.0
C      1  0.4655630000000  0.5382860000000  0.5321970000000 1.0
C      1  0.5251980000000  0.4631770000000  0.5639910000000 1.0
C      1  0.5869910000000  0.5162050000000  0.5662490000000 1.0
C      1  0.4561230000000  0.4724230000000  0.5180740000000 1.0
C      1  0.5199770000000  0.5506240000000  0.3981220000000 1.0
C      1  0.5152520000000  0.5518410000000  0.4883190000000 1.0
C      1  0.6184710000000  0.4929350000000  0.5115030000000 1.0
C      1  0.6051920000000  0.5111090000000  0.4717140000000 1.0
C      1  0.5860400000000  0.4662140000000  0.4539850000000 1.0
C      1  0.5602520000000  0.4684550000000  0.4150550000000 1.0
C      1  0.4808250000000  0.5336380000000  0.5951320000000 1.0
C      1  0.4174980000000  0.4394020000000  0.5197670000000 1.0
C      1  0.4570430000000  0.5993220000000  0.5079500000000 1.0
C      1  0.4844880000000  0.4770260000000  0.5143380000000 1.0
C      1  0.4113250000000  0.5656340000000  0.4861790000000 1.0
C      1  0.4528100000000  0.5303930000000  0.4175520000000 1.0
C      1  0.5532730000000  0.5072440000000  0.5429610000000 1.0
C      1  0.4604980000000  0.4112600000000  0.5314080000000 1.0
C      1  0.5854210000000  0.4760010000000  0.4261420000000 1.0
C      1  0.4366790000000  0.5746350000000  0.4949710000000 1.0
C      1  0.4251900000000  0.5288300000000  0.4321720000000 1.0
C      1  0.5299450000000  0.5952770000000  0.5276620000000 1.0
C      1  0.4992830000000  0.5123860000000  0.3929930000000 1.0
C      1  0.4491010000000  0.4158770000000  0.5579640000000 1.0
C      1  0.5258510000000  0.5025800000000  0.3943950000000 1.0
C      1  0.4230010000000  0.5374030000000  0.5292950000000 1.0
C      1  0.5416770000000  0.4400400000000  0.5838780000000 1.0
C      1  0.5310980000000  0.5191680000000  0.5589290000000 1.0
C      1  0.4409180000000  0.5234250000000  0.4897700000000 1.0
C      1  0.5098380000000  0.5364890000000  0.5497140000000 1.0
C      1  0.4602180000000  0.6010470000000  0.5366720000000 1.0
C      1  0.4462760000000  0.4603460000000  0.4486440000000 1.0
C      1  0.5193020000000  0.4985060000000  0.4427810000000 1.0
C      1  0.5474030000000  0.4279910000000  0.4393030000000 1.0
C      1  0.4784240000000  0.5600120000000  0.5179870000000 1.0
C      1  0.5829620000000  0.5341620000000  0.4325040000000 1.0
C      1  0.6154980000000  0.5156800000000  0.4969050000000 1.0
C      1  0.4742990000000  0.5580840000000  0.4886260000000 1.0
C      1  0.4501830000000  0.4081260000000  0.4855370000000 1.0
C      1  0.5776900000000  0.4644180000000  0.5541760000000 1.0
C      1  0.5679800000000  0.5155240000000  0.5874200000000 1.0
C      1  0.5109590000000  0.6019060000000  0.5053470000000 1.0
C      1  0.3964340000000  0.4512230000000  0.4655790000000 1.0
C      1  0.4983930000000  0.5129630000000  0.5956870000000 1.0
C      1  0.5137000000000  0.4403700000000  0.5480150000000 1.0
C      1  0.4690710000000  0.5550410000000  0.4122590000000 1.0
C      1  0.5551100000000  0.4767530000000  0.4914470000000 1.0
C      1  0.5193380000000  0.4015650000000  0.4697530000000 1.0
C      1  0.4925670000000  0.5409820000000  0.3993030000000 1.0
C      1  0.4543910000000  0.4121130000000  0.4565490000000 1.0
C      1  0.4525260000000  0.5691750000000  0.5682120000000 1.0
C      1  0.5975320000000  0.5113050000000  0.5193290000000 1.0
C      1  0.4478020000000  0.4486900000000  0.4110710000000 1.0
C      1  0.5083210000000  0.5467370000000  0.4476090000000 1.0
C      1  0.5665130000000  0.5771890000000  0.4656810000000 1.0
C      1  0.4486830000000  0.4959990000000  0.5365280000000 1.0
C      1  0.4507760000000  0.5897040000000  0.4550520000000 1.0
C      1  0.5674230000000  0.4167160000000  0.5250200000000 1.0
C      1  0.4533120000000  0.5235170000000  0.6006710000000 1.0
C      1  0.5082890000000  0.5529430000000  0.5173630000000 1.0
C      1  0.5347620000000  0.4396460000000  0.5290330000000 1.0
C      1  0.4918290000000  0.4630580000000  0.3928930000000 1.0
C      1  0.5798390000000  0.4636260000000  0.5052120000000 1.0
C      1  0.5488720000000  0.5157570000000  0.5152030000000 1.0
C      1  0.5948920000000  0.5362340000000  0.4592770000000 1.0
C      1  0.5066660000000  0.4150240000000  0.5621430000000 1.0
C      1  0.5263900000000  0.5147440000000  0.5871290000000 1.0
C      1  0.4507910000000  0.5413560000000  0.5627930000000 1.0
C      1  0.5146760000000  0.5941860000000  0.5545820000000 1.0
C      1  0.4025850000000  0.4656820000000  0.5209520000000 1.0
C      1  0.5794960000000  0.5817140000000  0.5276890000000 1.0
C      1  0.5304920000000  0.5745360000000  0.4097150000000 1.0
C      1  0.3978400000000  0.4987780000000  0.4564770000000 1.0
C      1  0.4886850000000  0.4521310000000  0.5889690000000 1.0
C      1  0.5587290000000  0.4673800000000  0.4637510000000 1.0
C      1  0.4260520000000  0.4326850000000  0.5472010000000 1.0
C      1  0.4753020000000  0.3944610000000  0.4970660000000 1.0
C      1  0.5567990000000  0.5550570000000  0.5073130000000 1.0
C      1  0.4267430000000  0.5855170000000  0.4722250000000 1.0
C      1  0.4862720000000  0.5220790000000  0.5408590000000 1.0
C      1  0.4248050000000  0.4979190000000  0.4198590000000 1.0
C      1  0.5647350000000  0.4609890000000  0.5793900000000 1.0
C      1  0.4466280000000  0.5199860000000  0.5184580000000 1.0
C      1  0.5298290000000  0.4937340000000  0.4888660000000 1.0
C      1  0.5400400000000  0.4818450000000  0.5472650000000 1.0
C      1  0.5468770000000  0.5421310000000  0.5903040000000 1.0
END
