TITL C-2441160-1326-217 0.0299596897016829 125000 -15123.7509791938 0 0 106 (C1) n - 1
REM
REM in /home/bkarasulu/work/CARBON/AIRSS/Generating-Clusters/ReaxFF-fromJPCA2015/Units_Real/with-SteepDescent/Higher-Symm
REM
REM
REM
REM
REM
REM ./C.cell (1df0a924f5614ab8850e4351716899ee)
REM
REM compiler GCC version 9.2.1 20190827 (Red Hat 9.2.1-1)
REM options -cpp -mtune=generic -march=x86-64 -g -O0 -fpre-include=/usr/include/finclude/math-vector-fortran.h
REM seed 604588054 -103150008 -789403440 443393441 -472245745 -371354443 -751277597 -1151708407 -1573957377 615763126 -866059773 -1574672551 1267858087 -1127594285 1837222128 -751811932 1651797302 997212955 1847876739 499544104 716570445 -1071918460 98187254 1760412482 1560725586 1797667820 912763601 1173449531 -1390096497 -859378335 -284668020 -1788812143 759005708
REM
CELL 1.54180   50.00000   50.00000   50.00000   90.00000   90.00000   90.00000
LATT -1
SFAC C  
C      1  0.5736800000000  0.4552340000000  0.5051810000000 1.0
C      1  0.4534750000000  0.5082230000000  0.5727220000000 1.0
C      1  0.5113470000000  0.5726160000000  0.4505120000000 1.0
C      1  0.4291220000000  0.4563710000000  0.4897410000000 1.0
C      1  0.4268480000000  0.5475970000000  0.5057060000000 1.0
C      1  0.5716920000000  0.5459840000000  0.4891170000000 1.0
C      1  0.5449700000000  0.5109110000000  0.4265730000000 1.0
C      1  0.5485280000000  0.4890000000000  0.5696380000000 1.0
C      1  0.4561990000000  0.4915420000000  0.4287070000000 1.0
C      1  0.4964660000000  0.5749440000000  0.5473270000000 1.0
C      1  0.4893170000000  0.4296250000000  0.4523570000000 1.0
C      1  0.5092660000000  0.4272120000000  0.5461110000000 1.0
C      1  0.5381940000000  0.4337260000000  0.4691900000000 1.0
C      1  0.4408380000000  0.4636250000000  0.5463730000000 1.0
C      1  0.4606790000000  0.5511630000000  0.4452410000000 1.0
C      1  0.4543520000000  0.4404670000000  0.5371550000000 1.0
C      1  0.4637430000000  0.5680870000000  0.4700990000000 1.0
C      1  0.5471950000000  0.5585570000000  0.5309400000000 1.0
C      1  0.5605790000000  0.4682030000000  0.4521240000000 1.0
C      1  0.5550360000000  0.5391950000000  0.5483720000000 1.0
C      1  0.4415070000000  0.5335400000000  0.4515790000000 1.0
C      1  0.5317440000000  0.5373850000000  0.5673500000000 1.0
C      1  0.5403570000000  0.4510880000000  0.4447190000000 1.0
C      1  0.4636670000000  0.4540710000000  0.5602530000000 1.0
C      1  0.4916090000000  0.4552780000000  0.4353560000000 1.0
C      1  0.4550050000000  0.4379180000000  0.4895170000000 1.0
C      1  0.4393930000000  0.4906840000000  0.4543740000000 1.0
C      1  0.5109970000000  0.4551080000000  0.5644200000000 1.0
C      1  0.5089710000000  0.5512080000000  0.4310950000000 1.0
C      1  0.4830450000000  0.5402040000000  0.5660370000000 1.0
C      1  0.5356330000000  0.4311610000000  0.5147920000000 1.0
C      1  0.5437830000000  0.5607570000000  0.4865750000000 1.0
C      1  0.4693580000000  0.5631970000000  0.5146400000000 1.0
C      1  0.5646710000000  0.4901020000000  0.5443410000000 1.0
C      1  0.5645500000000  0.5122590000000  0.4522170000000 1.0
C      1  0.4360490000000  0.5114830000000  0.5459620000000 1.0
C      1  0.5375040000000  0.4238980000000  0.5433590000000 1.0
C      1  0.4298260000000  0.5414620000000  0.5337580000000 1.0
C      1  0.5366720000000  0.5383910000000  0.4273450000000 1.0
C      1  0.4621260000000  0.4286700000000  0.4600710000000 1.0
C      1  0.4678140000000  0.5728770000000  0.5424050000000 1.0
C      1  0.5388470000000  0.5731850000000  0.4592270000000 1.0
C      1  0.5735590000000  0.5406430000000  0.4613770000000 1.0
C      1  0.5702460000000  0.4621960000000  0.5334710000000 1.0
C      1  0.4291330000000  0.4631160000000  0.4621610000000 1.0
C      1  0.4555370000000  0.5366040000000  0.5739030000000 1.0
C      1  0.4628700000000  0.4637270000000  0.4271670000000 1.0
C      1  0.5409840000000  0.4614960000000  0.5716020000000 1.0
C      1  0.4821710000000  0.5402020000000  0.4264120000000 1.0
C      1  0.5551360000000  0.4355930000000  0.4930440000000 1.0
C      1  0.4260980000000  0.4847230000000  0.5366650000000 1.0
C      1  0.5078090000000  0.5554790000000  0.5660190000000 1.0
C      1  0.5195430000000  0.4624050000000  0.4265230000000 1.0
C      1  0.4842970000000  0.4637690000000  0.5760180000000 1.0
C      1  0.4635990000000  0.4259360000000  0.5156880000000 1.0
C      1  0.4477340000000  0.5656090000000  0.4943940000000 1.0
C      1  0.5394630000000  0.5773130000000  0.5140870000000 1.0
C      1  0.5797800000000  0.4844570000000  0.4594030000000 1.0
C      1  0.5722510000000  0.5172130000000  0.5362850000000 1.0
C      1  0.4226250000000  0.5163320000000  0.4589830000000 1.0
C      1  0.5293570000000  0.5105350000000  0.5783540000000 1.0
C      1  0.5113390000000  0.5858060000000  0.5230840000000 1.0
C      1  0.5830180000000  0.5261380000000  0.5097620000000 1.0
C      1  0.4752890000000  0.5123630000000  0.4188670000000 1.0
C      1  0.4761070000000  0.4911030000000  0.5819930000000 1.0
C      1  0.5268280000000  0.4889960000000  0.4171600000000 1.0
C      1  0.4906570000000  0.5803820000000  0.4717710000000 1.0
C      1  0.4908520000000  0.4173140000000  0.5231360000000 1.0
C      1  0.5112230000000  0.4204150000000  0.4709880000000 1.0
C      1  0.4146270000000  0.5256360000000  0.4880830000000 1.0
C      1  0.4176140000000  0.4762340000000  0.5095800000000 1.0
C      1  0.5873070000000  0.4760920000000  0.4881900000000 1.0
C      1  0.4897080000000  0.5175990000000  0.5511740000000 1.0
C      1  0.5198090000000  0.5395230000000  0.4876860000000 1.0
C      1  0.5387880000000  0.4938730000000  0.5126210000000 1.0
C      1  0.5128240000000  0.5163470000000  0.4484770000000 1.0
C      1  0.5089960000000  0.4784440000000  0.5456180000000 1.0
C      1  0.4956670000000  0.4815670000000  0.4585540000000 1.0
C      1  0.4853950000000  0.5386840000000  0.5116560000000 1.0
C      1  0.4806010000000  0.4563440000000  0.4925690000000 1.0
C      1  0.5198430000000  0.4550740000000  0.5151500000000 1.0
C      1  0.4586870000000  0.4999690000000  0.4834450000000 1.0
C      1  0.4557830000000  0.5111970000000  0.5236700000000 1.0
C      1  0.5462550000000  0.5079670000000  0.4755080000000 1.0
C      1  0.5287130000000  0.4729060000000  0.4951520000000 1.0
C      1  0.4739790000000  0.4892080000000  0.5283450000000 1.0
C      1  0.4984620000000  0.5289880000000  0.4707150000000 1.0
C      1  0.4673950000000  0.4792200000000  0.5023920000000 1.0
C      1  0.4625960000000  0.5256200000000  0.4999850000000 1.0
C      1  0.5373790000000  0.5208070000000  0.5010910000000 1.0
C      1  0.5257290000000  0.4950930000000  0.4614600000000 1.0
C      1  0.5210210000000  0.5005310000000  0.5329740000000 1.0
C      1  0.4820500000000  0.5043310000000  0.4682890000000 1.0
C      1  0.5068000000000  0.5259710000000  0.5278980000000 1.0
C      1  0.5044400000000  0.4664060000000  0.4799450000000 1.0
C      1  0.4955350000000  0.4635960000000  0.5275460000000 1.0
C      1  0.4153490000000  0.5010680000000  0.4975520000000 1.0
C      1  0.5030250000000  0.5051680000000  0.4240140000000 1.0
C      1  0.5009360000000  0.4162780000000  0.4969100000000 1.0
C      1  0.5862370000000  0.5013000000000  0.4982510000000 1.0
C      1  0.5008540000000  0.5051190000000  0.5752200000000 1.0
C      1  0.5015660000000  0.5842050000000  0.4974700000000 1.0
C      1  0.5562430000000  0.4455260000000  0.5531370000000 1.0
C      1  0.5550350000000  0.5552040000000  0.4436760000000 1.0
C      1  0.4459360000000  0.5555050000000  0.5527090000000 1.0
C      1  0.4461210000000  0.4466400000000  0.4439080000000 1.0
END
