TITL C-2441160-1326-1017 0.0672950068763021 125000 -19434.6467591268 0 0 141 (C1) n - 1
REM
REM in /home/bkarasulu/work/CARBON/AIRSS/Generating-Clusters/ReaxFF-fromJPCA2015/Units_Real/with-SteepDescent/Higher-Symm
REM
REM
REM
REM
REM
REM ./C.cell (1df0a924f5614ab8850e4351716899ee)
REM
REM compiler GCC version 9.2.1 20190827 (Red Hat 9.2.1-1)
REM options -cpp -mtune=generic -march=x86-64 -g -O0 -fpre-include=/usr/include/finclude/math-vector-fortran.h
REM seed 801264566 -574477983 1125149394 1320796125 -1031299086 1534865221 358213257 -525561264 774875767 -759541206 2064911622 1369166353 -1063380092 662995092 -1873541925 -440538631 1466133155 613439943 1995068475 1879498316 -798073276 163637897 503579042 -682475004 -12228322 1844930262 -1121774141 1025784771 215526898 -1116070074 -1314940555 -1503913085 -1698582340
REM
CELL 1.54180   50.00000   50.00000   50.00000   90.00000   90.00000   90.00000
LATT -1
SFAC C  
C      1  0.4836760000000  0.5279820000000  0.5635190000000 1.0
C      1  0.4862010000000  0.4410300000000  0.5186390000000 1.0
C      1  0.4800520000000  0.4743280000000  0.4415850000000 1.0
C      1  0.4793910000000  0.5663980000000  0.4738130000000 1.0
C      1  0.5143260000000  0.5249310000000  0.5639150000000 1.0
C      1  0.5127360000000  0.4472270000000  0.5169390000000 1.0
C      1  0.5081740000000  0.4783240000000  0.4430660000000 1.0
C      1  0.5060010000000  0.5561750000000  0.4777990000000 1.0
C      1  0.4127550000000  0.4870370000000  0.4632370000000 1.0
C      1  0.4145590000000  0.5353600000000  0.4862450000000 1.0
C      1  0.4171700000000  0.5140620000000  0.5350700000000 1.0
C      1  0.4162950000000  0.4666410000000  0.5116390000000 1.0
C      1  0.5875400000000  0.4855220000000  0.4646780000000 1.0
C      1  0.5891890000000  0.5350420000000  0.4862270000000 1.0
C      1  0.5850760000000  0.5139760000000  0.5341600000000 1.0
C      1  0.5874480000000  0.4644790000000  0.5134850000000 1.0
C      1  0.5271580000000  0.4035630000000  0.5018550000000 1.0
C      1  0.5266880000000  0.4985420000000  0.4043320000000 1.0
C      1  0.5233720000000  0.5939460000000  0.4959780000000 1.0
C      1  0.5257610000000  0.4997940000000  0.5976470000000 1.0
C      1  0.4777680000000  0.4065890000000  0.4964150000000 1.0
C      1  0.4772810000000  0.5008160000000  0.4062200000000 1.0
C      1  0.4780850000000  0.5953150000000  0.5066860000000 1.0
C      1  0.4772490000000  0.4951720000000  0.5944180000000 1.0
C      1  0.4877120000000  0.5532500000000  0.5794300000000 1.0
C      1  0.4805050000000  0.4230490000000  0.5417380000000 1.0
C      1  0.4829340000000  0.4555570000000  0.4192400000000 1.0
C      1  0.4876770000000  0.5797760000000  0.4494990000000 1.0
C      1  0.5181160000000  0.5495360000000  0.5804660000000 1.0
C      1  0.5193810000000  0.4305680000000  0.5400630000000 1.0
C      1  0.5181620000000  0.4567300000000  0.4252890000000 1.0
C      1  0.5169190000000  0.5721700000000  0.4548110000000 1.0
C      1  0.5381600000000  0.5889530000000  0.4739930000000 1.0
C      1  0.5382600000000  0.5247740000000  0.5965070000000 1.0
C      1  0.5382550000000  0.4102440000000  0.5264310000000 1.0
C      1  0.5384760000000  0.4743000000000  0.4095470000000 1.0
C      1  0.4661070000000  0.5954320000000  0.4812850000000 1.0
C      1  0.4666710000000  0.5208730000000  0.5907320000000 1.0
C      1  0.4643940000000  0.4073850000000  0.5209230000000 1.0
C      1  0.4631830000000  0.4773500000000  0.4060220000000 1.0
C      1  0.4531030000000  0.4529920000000  0.5793730000000 1.0
C      1  0.4513190000000  0.4243280000000  0.4499700000000 1.0
C      1  0.4510790000000  0.5479040000000  0.4253130000000 1.0
C      1  0.4490740000000  0.5764690000000  0.5504500000000 1.0
C      1  0.5493560000000  0.4548880000000  0.5753290000000 1.0
C      1  0.5486520000000  0.4197740000000  0.4574180000000 1.0
C      1  0.5482420000000  0.5442200000000  0.4213860000000 1.0
C      1  0.5510310000000  0.5738810000000  0.5457850000000 1.0
C      1  0.5550080000000  0.5642320000000  0.5152920000000 1.0
C      1  0.5603810000000  0.4833330000000  0.5785900000000 1.0
C      1  0.5610920000000  0.4224070000000  0.4835400000000 1.0
C      1  0.5610990000000  0.5180430000000  0.4223370000000 1.0
C      1  0.4417540000000  0.5774090000000  0.5203270000000 1.0
C      1  0.4440420000000  0.4816620000000  0.5760060000000 1.0
C      1  0.4444100000000  0.4240410000000  0.4786300000000 1.0
C      1  0.4439130000000  0.5182680000000  0.4262950000000 1.0
C      1  0.4334540000000  0.4503280000000  0.4472960000000 1.0
C      1  0.4290820000000  0.5537000000000  0.4435400000000 1.0
C      1  0.4286260000000  0.5553680000000  0.5545090000000 1.0
C      1  0.4293430000000  0.4462160000000  0.5647920000000 1.0
C      1  0.5718210000000  0.4510950000000  0.4481760000000 1.0
C      1  0.5718070000000  0.5525830000000  0.4486160000000 1.0
C      1  0.5732960000000  0.5567360000000  0.5526350000000 1.0
C      1  0.5673050000000  0.4516830000000  0.5511580000000 1.0
C      1  0.5633110000000  0.4186140000000  0.5133140000000 1.0
C      1  0.5631860000000  0.4878910000000  0.4189030000000 1.0
C      1  0.5608470000000  0.5778950000000  0.4883640000000 1.0
C      1  0.5617690000000  0.5119090000000  0.5848220000000 1.0
C      1  0.4395350000000  0.4160760000000  0.5067480000000 1.0
C      1  0.4395910000000  0.4900830000000  0.4184060000000 1.0
C      1  0.4413740000000  0.5859860000000  0.4929020000000 1.0
C      1  0.4410300000000  0.5106270000000  0.5805280000000 1.0
C      1  0.4558740000000  0.5511010000000  0.4779830000000 1.0
C      1  0.4674070000000  0.5358500000000  0.5382280000000 1.0
C      1  0.4314180000000  0.4367320000000  0.5415730000000 1.0
C      1  0.4563770000000  0.4708090000000  0.4572980000000 1.0
C      1  0.5493810000000  0.5393380000000  0.4626900000000 1.0
C      1  0.5383930000000  0.5217540000000  0.5499280000000 1.0
C      1  0.5496880000000  0.4654430000000  0.5347560000000 1.0
C      1  0.5511890000000  0.4613860000000  0.4643120000000 1.0
C      1  0.5363880000000  0.4760680000000  0.4800840000000 1.0
C      1  0.5275310000000  0.5206020000000  0.4644630000000 1.0
C      1  0.5311320000000  0.5387870000000  0.5126190000000 1.0
C      1  0.5304190000000  0.4850890000000  0.5298490000000 1.0
C      1  0.4709320000000  0.4687470000000  0.4823880000000 1.0
C      1  0.4722740000000  0.5146520000000  0.4646720000000 1.0
C      1  0.4635870000000  0.5198650000000  0.5151600000000 1.0
C      1  0.4727970000000  0.4790950000000  0.5316240000000 1.0
C      1  0.4121340000000  0.5152390000000  0.4666620000000 1.0
C      1  0.4136530000000  0.5338080000000  0.5141990000000 1.0
C      1  0.4165250000000  0.4853900000000  0.5331470000000 1.0
C      1  0.4140860000000  0.4673240000000  0.4840010000000 1.0
C      1  0.5891450000000  0.5143410000000  0.4660610000000 1.0
C      1  0.5909900000000  0.5328300000000  0.5142840000000 1.0
C      1  0.5880150000000  0.4861030000000  0.5337530000000 1.0
C      1  0.5885870000000  0.4643170000000  0.4850090000000 1.0
C      1  0.5380140000000  0.5130340000000  0.5233350000000 1.0
C      1  0.5215390000000  0.4730860000000  0.5052920000000 1.0
C      1  0.5259200000000  0.4926930000000  0.4608410000000 1.0
C      1  0.5156250000000  0.5317970000000  0.4897370000000 1.0
C      1  0.4832750000000  0.5023900000000  0.5228700000000 1.0
C      1  0.4670130000000  0.4613590000000  0.5104770000000 1.0
C      1  0.4849000000000  0.4932180000000  0.4778930000000 1.0
C      1  0.4592910000000  0.5255370000000  0.4877330000000 1.0
C      1  0.4272350000000  0.5262790000000  0.5593310000000 1.0
C      1  0.4254280000000  0.4392850000000  0.5183580000000 1.0
C      1  0.4213980000000  0.4759470000000  0.4373170000000 1.0
C      1  0.4284810000000  0.5600010000000  0.4741090000000 1.0
C      1  0.5689050000000  0.5267660000000  0.5572420000000 1.0
C      1  0.5796020000000  0.4392510000000  0.5267000000000 1.0
C      1  0.5807220000000  0.4754060000000  0.4385420000000 1.0
C      1  0.5814250000000  0.5613340000000  0.4751470000000 1.0
C      1  0.5823310000000  0.5271280000000  0.4408040000000 1.0
C      1  0.5824940000000  0.5570110000000  0.5252940000000 1.0
C      1  0.5813060000000  0.4751180000000  0.5597170000000 1.0
C      1  0.5837950000000  0.4377780000000  0.4715090000000 1.0
C      1  0.4202390000000  0.5264580000000  0.4421770000000 1.0
C      1  0.4195000000000  0.5587990000000  0.5271230000000 1.0
C      1  0.4220660000000  0.4724810000000  0.5587310000000 1.0
C      1  0.4224660000000  0.4427990000000  0.4723160000000 1.0
C      1  0.5093980000000  0.4727640000000  0.5615720000000 1.0
C      1  0.5124360000000  0.4336510000000  0.4705200000000 1.0
C      1  0.5103800000000  0.5295880000000  0.4339270000000 1.0
C      1  0.5121070000000  0.5618860000000  0.5301050000000 1.0
C      1  0.4846900000000  0.4670010000000  0.5522340000000 1.0
C      1  0.4863200000000  0.4440790000000  0.4663210000000 1.0
C      1  0.4841300000000  0.5325060000000  0.4454670000000 1.0
C      1  0.4832370000000  0.5592430000000  0.5349510000000 1.0
C      1  0.5266300000000  0.4329400000000  0.4446050000000 1.0
C      1  0.5245810000000  0.5548060000000  0.4316050000000 1.0
C      1  0.5256330000000  0.5667520000000  0.5563780000000 1.0
C      1  0.5237550000000  0.4473930000000  0.5639730000000 1.0
C      1  0.4764780000000  0.4344950000000  0.4405540000000 1.0
C      1  0.4769310000000  0.5576920000000  0.4335230000000 1.0
C      1  0.4762680000000  0.5724650000000  0.5602590000000 1.0
C      1  0.4744790000000  0.4431950000000  0.5624970000000 1.0
C      1  0.5031640000000  0.4840810000000  0.5903250000000 1.0
C      1  0.5043390000000  0.4066330000000  0.4855460000000 1.0
C      1  0.5029950000000  0.5130900000000  0.4069170000000 1.0
C      1  0.5043440000000  0.5910140000000  0.5157380000000 1.0
C      1  0.5019870000000  0.5012310000000  0.4995730000000 1.0
END
