TITL C-2441161-5029-357 0.0119383427342859 125000 -5904.3612259669 0 0 43 (C1) n - 1
REM
REM in /home/bkarasulu/work/CARBON/AIRSS/Generating-Clusters/ReaxFF-fromJPCA2015/Units_Real/with-SteepDescent/Higher-Symm
REM
REM
REM
REM
REM
REM ./C.cell (1df0a924f5614ab8850e4351716899ee)
REM
REM compiler GCC version 9.2.1 20190827 (Red Hat 9.2.1-1)
REM options -cpp -mtune=generic -march=x86-64 -g -O0 -fpre-include=/usr/include/finclude/math-vector-fortran.h
REM seed -620865500 -1104848626 -1595208502 1351291666 995273421 1402828826 -1300181673 -89553135 -1487479865 -497636504 1744083136 237364100 -780572028 -1863097229 226790857 -1286554831 -1514060578 729278158 -1486995924 1981948119 1279664030 -146466133 -2046916951 -1119994162 -2023824375 156390763 -1633322779 1548486158 -1953167760 1268405940 1079271604 1722873074 -699361876
REM
CELL 1.54180   50.00000   50.00000   50.00000   90.00000   90.00000   90.00000
LATT -1
SFAC C  
C      1  0.4699510000000  0.5242530000000  0.4653190000000 1.0
C      1  0.5220430000000  0.5248120000000  0.4607320000000 1.0
C      1  0.5417280000000  0.5246560000000  0.5092030000000 1.0
C      1  0.5020920000000  0.5251170000000  0.5437610000000 1.0
C      1  0.4581840000000  0.5245570000000  0.5168120000000 1.0
C      1  0.4526770000000  0.4493760000000  0.5153210000000 1.0
C      1  0.4690440000000  0.4493320000000  0.4602590000000 1.0
C      1  0.5268830000000  0.4487810000000  0.4587880000000 1.0
C      1  0.5463400000000  0.4484360000000  0.5128010000000 1.0
C      1  0.5004140000000  0.4488630000000  0.5481740000000 1.0
C      1  0.5167240000000  0.5624500000000  0.5163870000000 1.0
C      1  0.4879180000000  0.5624680000000  0.5219390000000 1.0
C      1  0.4742550000000  0.5629140000000  0.4957470000000 1.0
C      1  0.4944740000000  0.5623770000000  0.4742840000000 1.0
C      1  0.5207500000000  0.5625580000000  0.4873000000000 1.0
C      1  0.5046240000000  0.4771810000000  0.5562630000000 1.0
C      1  0.4448590000000  0.4772010000000  0.5221930000000 1.0
C      1  0.4602780000000  0.4770630000000  0.4540730000000 1.0
C      1  0.5286900000000  0.4766910000000  0.4485230000000 1.0
C      1  0.5561980000000  0.4762790000000  0.5117240000000 1.0
C      1  0.5369150000000  0.4790550000000  0.4886700000000 1.0
C      1  0.5212980000000  0.4799730000000  0.5327140000000 1.0
C      1  0.4699230000000  0.4802230000000  0.5350460000000 1.0
C      1  0.4537280000000  0.4802350000000  0.4818110000000 1.0
C      1  0.5008660000000  0.4788790000000  0.4630410000000 1.0
C      1  0.4789650000000  0.4990350000000  0.4544510000000 1.0
C      1  0.5367030000000  0.5000410000000  0.4631770000000 1.0
C      1  0.5431530000000  0.4993560000000  0.5242270000000 1.0
C      1  0.4881930000000  0.4998280000000  0.5485710000000 1.0
C      1  0.4491810000000  0.4994070000000  0.5042640000000 1.0
C      1  0.5266780000000  0.4504690000000  0.5341870000000 1.0
C      1  0.4742000000000  0.4519520000000  0.5356140000000 1.0
C      1  0.4552450000000  0.4519280000000  0.4863100000000 1.0
C      1  0.4975380000000  0.4498010000000  0.4544000000000 1.0
C      1  0.5425510000000  0.4492880000000  0.4833600000000 1.0
C      1  0.5363790000000  0.5378920000000  0.4822600000000 1.0
C      1  0.5261040000000  0.5374880000000  0.5295920000000 1.0
C      1  0.4782010000000  0.5383650000000  0.5360030000000 1.0
C      1  0.4585000000000  0.5381800000000  0.4908630000000 1.0
C      1  0.4943360000000  0.5377810000000  0.4580860000000 1.0
C      1  0.5062040000000  0.4763940000000  0.4956400000000 1.0
C      1  0.4956340000000  0.5241160000000  0.4996280000000 1.0
C      1  0.5009220000000  0.5000980000000  0.4976310000000 1.0
END
