TITL C-2441164-471-1245 0.059567514942837 125000 -14379.4513016 0 0 107 (C1) n - 1
REM
REM in /home/bkarasulu/work/CARBON/AIRSS/Generating-Clusters/ReaxFF-fromJPCA2015/Units_Real/with-SteepDescent/Higher-Symm
REM
REM
REM
REM
REM
REM ./C.cell (1df0a924f5614ab8850e4351716899ee)
REM
REM compiler GCC version 9.2.1 20190827 (Red Hat 9.2.1-1)
REM options -cpp -mtune=generic -march=x86-64 -g -O0 -fpre-include=/usr/include/finclude/math-vector-fortran.h
REM seed -320680718 -1417966300 -300524897 -18403278 -1610638638 -585817385 -492114391 -1500897562 2015359063 1914734498 246795293 -2005437581 1793638868 -107722656 885489245 -1359369715 -585685703 931765496 334575772 -649051488 -1177503446 1328545271 -1287349735 2079239743 -592199612 2061217185 1778851203 -1846529794 -171807507 -1377050541 295444126 377246398 79385762
REM
CELL 1.54180   50.00000   50.00000   50.00000   90.00000   90.00000   90.00000
LATT -1
SFAC C  
C      1  0.5627840000000  0.4338570000000  0.4823750000000 1.0
C      1  0.5272980000000  0.4236830000000  0.5552850000000 1.0
C      1  0.4345290000000  0.5371030000000  0.5171990000000 1.0
C      1  0.5301480000000  0.5373830000000  0.4778460000000 1.0
C      1  0.5388480000000  0.5656670000000  0.4769700000000 1.0
C      1  0.4878440000000  0.4952470000000  0.5584970000000 1.0
C      1  0.4066910000000  0.4776370000000  0.5161500000000 1.0
C      1  0.5203980000000  0.4780130000000  0.5011440000000 1.0
C      1  0.5296570000000  0.5236070000000  0.5044500000000 1.0
C      1  0.4449910000000  0.4777370000000  0.4899310000000 1.0
C      1  0.4590730000000  0.5273800000000  0.5062060000000 1.0
C      1  0.5148020000000  0.5493360000000  0.5498840000000 1.0
C      1  0.4678370000000  0.5772320000000  0.4928060000000 1.0
C      1  0.5201390000000  0.5001340000000  0.5443560000000 1.0
C      1  0.5622440000000  0.5625500000000  0.5348310000000 1.0
C      1  0.4366380000000  0.4771940000000  0.5546820000000 1.0
C      1  0.4758770000000  0.5491930000000  0.5783600000000 1.0
C      1  0.4581160000000  0.5764300000000  0.4660840000000 1.0
C      1  0.4954820000000  0.4697020000000  0.4511630000000 1.0
C      1  0.4818660000000  0.4757360000000  0.5823910000000 1.0
C      1  0.5654880000000  0.5623010000000  0.4826600000000 1.0
C      1  0.4990560000000  0.4364370000000  0.5501300000000 1.0
C      1  0.5338420000000  0.5533500000000  0.4340740000000 1.0
C      1  0.4621030000000  0.4208600000000  0.5145540000000 1.0
C      1  0.4448820000000  0.5018800000000  0.4378270000000 1.0
C      1  0.4920820000000  0.5140160000000  0.4239090000000 1.0
C      1  0.5199920000000  0.4489420000000  0.4789090000000 1.0
C      1  0.5387710000000  0.4252770000000  0.5280510000000 1.0
C      1  0.5712840000000  0.4457620000000  0.4569680000000 1.0
C      1  0.4622210000000  0.4627520000000  0.5485210000000 1.0
C      1  0.4487810000000  0.4579370000000  0.4681450000000 1.0
C      1  0.4663940000000  0.4995770000000  0.5099980000000 1.0
C      1  0.4217590000000  0.4683250000000  0.4352690000000 1.0
C      1  0.4190500000000  0.4924910000000  0.4486600000000 1.0
C      1  0.4778690000000  0.4202830000000  0.4642320000000 1.0
C      1  0.4486300000000  0.4584160000000  0.4377990000000 1.0
C      1  0.4130200000000  0.5179080000000  0.5246870000000 1.0
C      1  0.4796010000000  0.4505870000000  0.5684850000000 1.0
C      1  0.4982170000000  0.4404640000000  0.4600020000000 1.0
C      1  0.4347850000000  0.5598960000000  0.4757360000000 1.0
C      1  0.4947220000000  0.4958160000000  0.4948060000000 1.0
C      1  0.5704280000000  0.5525990000000  0.5087660000000 1.0
C      1  0.5188240000000  0.5256360000000  0.5309920000000 1.0
C      1  0.4594730000000  0.4827000000000  0.4254420000000 1.0
C      1  0.4489760000000  0.5290880000000  0.4432380000000 1.0
C      1  0.4616800000000  0.4109730000000  0.4872400000000 1.0
C      1  0.5782930000000  0.5250790000000  0.5048730000000 1.0
C      1  0.5416110000000  0.4963810000000  0.4189600000000 1.0
C      1  0.5189790000000  0.5795200000000  0.4944010000000 1.0
C      1  0.5352030000000  0.4234970000000  0.4852930000000 1.0
C      1  0.5673680000000  0.5031310000000  0.5223430000000 1.0
C      1  0.4381170000000  0.4370000000000  0.5220100000000 1.0
C      1  0.5586060000000  0.4645830000000  0.5551900000000 1.0
C      1  0.5208070000000  0.5156550000000  0.4282130000000 1.0
C      1  0.4855540000000  0.5777440000000  0.4516450000000 1.0
C      1  0.5743280000000  0.5446940000000  0.4627890000000 1.0
C      1  0.4689480000000  0.5023840000000  0.5806610000000 1.0
C      1  0.4521680000000  0.5776300000000  0.5174140000000 1.0
C      1  0.4665680000000  0.5663680000000  0.5409400000000 1.0
C      1  0.5647970000000  0.4560790000000  0.5007750000000 1.0
C      1  0.5418780000000  0.4974130000000  0.5033510000000 1.0
C      1  0.4796860000000  0.5481930000000  0.4929930000000 1.0
C      1  0.5841080000000  0.4709920000000  0.4645810000000 1.0
C      1  0.4679520000000  0.5047130000000  0.5395410000000 1.0
C      1  0.4852830000000  0.5355230000000  0.4661880000000 1.0
C      1  0.5579430000000  0.4918870000000  0.5661820000000 1.0
C      1  0.5075110000000  0.5628690000000  0.4374330000000 1.0
C      1  0.4239740000000  0.5047120000000  0.4776810000000 1.0
C      1  0.5657030000000  0.5146430000000  0.5506050000000 1.0
C      1  0.4791980000000  0.4546790000000  0.4988400000000 1.0
C      1  0.5225880000000  0.4746880000000  0.5297880000000 1.0
C      1  0.4835540000000  0.4744650000000  0.4793660000000 1.0
C      1  0.5514480000000  0.4544870000000  0.5273840000000 1.0
C      1  0.4900570000000  0.4335830000000  0.5163800000000 1.0
C      1  0.5359660000000  0.4682360000000  0.4237220000000 1.0
C      1  0.5188850000000  0.4191250000000  0.5086900000000 1.0
C      1  0.4491670000000  0.4287050000000  0.4671340000000 1.0
C      1  0.5806000000000  0.5201840000000  0.4767230000000 1.0
C      1  0.5228670000000  0.5183300000000  0.4579380000000 1.0
C      1  0.5365140000000  0.4496630000000  0.5661510000000 1.0
C      1  0.4050740000000  0.5028710000000  0.5006730000000 1.0
C      1  0.4278150000000  0.4595880000000  0.5062240000000 1.0
C      1  0.4324930000000  0.5321760000000  0.4668770000000 1.0
C      1  0.4983580000000  0.5117530000000  0.4710250000000 1.0
C      1  0.5166110000000  0.5195960000000  0.5842890000000 1.0
C      1  0.4540530000000  0.5186690000000  0.5611280000000 1.0
C      1  0.4772210000000  0.5353270000000  0.4385380000000 1.0
C      1  0.5477070000000  0.4478080000000  0.4398890000000 1.0
C      1  0.5626040000000  0.5431760000000  0.5560690000000 1.0
C      1  0.4167500000000  0.4924820000000  0.5399660000000 1.0
C      1  0.4948520000000  0.5651630000000  0.5357280000000 1.0
C      1  0.5734470000000  0.4973530000000  0.4591090000000 1.0
C      1  0.5029370000000  0.5429700000000  0.5817580000000 1.0
C      1  0.5294550000000  0.4679940000000  0.4533940000000 1.0
C      1  0.5411150000000  0.5608700000000  0.5518010000000 1.0
C      1  0.5040380000000  0.5861900000000  0.4709930000000 1.0
C      1  0.5862600000000  0.4756920000000  0.4940840000000 1.0
C      1  0.5022330000000  0.5604900000000  0.5089430000000 1.0
C      1  0.4302170000000  0.5635140000000  0.5049150000000 1.0
C      1  0.4537180000000  0.5489830000000  0.5617210000000 1.0
C      1  0.5914250000000  0.4800500000000  0.5224710000000 1.0
C      1  0.5620500000000  0.5095540000000  0.4346440000000 1.0
C      1  0.5144720000000  0.4606100000000  0.5511920000000 1.0
C      1  0.4867540000000  0.4860330000000  0.4272360000000 1.0
C      1  0.5587750000000  0.5386820000000  0.4385360000000 1.0
C      1  0.5297290000000  0.4980450000000  0.5740880000000 1.0
C      1  0.4364140000000  0.4484340000000  0.5488190000000 1.0
END
