TITL C-2441158-471-1331 0.0201199192426864 125000 -10237.0931920295 0 0 73 (C1) n - 1
REM
REM in /home/bkarasulu/work/CARBON/AIRSS/Generating-Clusters/ReaxFF-fromJPCA2015/Units_Real/with-SteepDescent/Higher-Symm
REM
REM
REM
REM
REM
REM ./C.cell (1df0a924f5614ab8850e4351716899ee)
REM
REM compiler GCC version 9.2.1 20190827 (Red Hat 9.2.1-1)
REM options -cpp -mtune=generic -march=x86-64 -g -O0 -fpre-include=/usr/include/finclude/math-vector-fortran.h
REM seed -308131099 -284621346 1709912037 1413456173 -1233256682 1219125284 -895182484 1438337538 1943077335 -44952703 72750589 -935250214 1857451334 192268610 719533847 1348088650 -1492963395 658870125 -684754506 645190083 -1089447981 -1082628319 1444853357 -26424660 1644800228 716085877 654711603 1653646343 -1308780730 751362329 424868246 -567067261 -1757478888
REM
CELL 1.54180   50.00000   50.00000   50.00000   90.00000   90.00000   90.00000
LATT -1
SFAC C  
C      1  0.4804370000000  0.4214250000000  0.5213380000000 1.0
C      1  0.4827130000000  0.5763950000000  0.4774970000000 1.0
C      1  0.5119270000000  0.5852840000000  0.5222140000000 1.0
C      1  0.5192110000000  0.4209570000000  0.4784200000000 1.0
C      1  0.4946070000000  0.5233890000000  0.4322280000000 1.0
C      1  0.5082640000000  0.4908160000000  0.5629020000000 1.0
C      1  0.4999040000000  0.4866250000000  0.4550160000000 1.0
C      1  0.4852320000000  0.5044640000000  0.5549150000000 1.0
C      1  0.4802900000000  0.4824960000000  0.4335330000000 1.0
C      1  0.4745640000000  0.5183570000000  0.5804280000000 1.0
C      1  0.5232770000000  0.5200530000000  0.4225470000000 1.0
C      1  0.5301240000000  0.4837530000000  0.5783350000000 1.0
C      1  0.4461130000000  0.5333310000000  0.4721740000000 1.0
C      1  0.4428430000000  0.4639210000000  0.5218340000000 1.0
C      1  0.5564600000000  0.4640350000000  0.4764050000000 1.0
C      1  0.5579100000000  0.5290570000000  0.5308380000000 1.0
C      1  0.5348650000000  0.5310090000000  0.4866820000000 1.0
C      1  0.5327570000000  0.4693950000000  0.5137370000000 1.0
C      1  0.4653090000000  0.4695280000000  0.4824050000000 1.0
C      1  0.4636410000000  0.5320230000000  0.5142530000000 1.0
C      1  0.5358070000000  0.4428740000000  0.4679910000000 1.0
C      1  0.5308870000000  0.5627880000000  0.5261170000000 1.0
C      1  0.4692580000000  0.5517560000000  0.4677590000000 1.0
C      1  0.4627870000000  0.4435610000000  0.5302770000000 1.0
C      1  0.5505490000000  0.5330850000000  0.4624630000000 1.0
C      1  0.5472380000000  0.4623580000000  0.5373070000000 1.0
C      1  0.4486050000000  0.4623880000000  0.4610500000000 1.0
C      1  0.4494620000000  0.5336240000000  0.5394820000000 1.0
C      1  0.4762600000000  0.5737500000000  0.5038420000000 1.0
C      1  0.4760210000000  0.4247110000000  0.4953940000000 1.0
C      1  0.5227520000000  0.4265600000000  0.5046190000000 1.0
C      1  0.5271130000000  0.5772560000000  0.4987850000000 1.0
C      1  0.5390760000000  0.5305640000000  0.5543660000000 1.0
C      1  0.5240070000000  0.4770700000000  0.4401710000000 1.0
C      1  0.4656890000000  0.4801730000000  0.5577750000000 1.0
C      1  0.4476070000000  0.5215050000000  0.4440410000000 1.0
C      1  0.4284600000000  0.5086410000000  0.4602940000000 1.0
C      1  0.4401220000000  0.4846220000000  0.5405450000000 1.0
C      1  0.5697400000000  0.4859190000000  0.4623420000000 1.0
C      1  0.5689670000000  0.5055400000000  0.5386290000000 1.0
C      1  0.5076540000000  0.5241190000000  0.4911800000000 1.0
C      1  0.5060630000000  0.4785910000000  0.5059090000000 1.0
C      1  0.4925300000000  0.4754780000000  0.4803870000000 1.0
C      1  0.4905300000000  0.5278860000000  0.5124470000000 1.0
C      1  0.5700040000000  0.4788990000000  0.5296740000000 1.0
C      1  0.5702940000000  0.5142990000000  0.4732130000000 1.0
C      1  0.4325480000000  0.5114820000000  0.5306600000000 1.0
C      1  0.4288280000000  0.4816880000000  0.4698520000000 1.0
C      1  0.5415620000000  0.5118070000000  0.5779290000000 1.0
C      1  0.5333270000000  0.4936640000000  0.4200350000000 1.0
C      1  0.4634160000000  0.4933660000000  0.5891420000000 1.0
C      1  0.4700600000000  0.5091840000000  0.4288330000000 1.0
C      1  0.4673250000000  0.4568680000000  0.4391380000000 1.0
C      1  0.4662090000000  0.5411100000000  0.5624680000000 1.0
C      1  0.5365370000000  0.5414600000000  0.4386520000000 1.0
C      1  0.5325670000000  0.4575880000000  0.5621290000000 1.0
C      1  0.4806320000000  0.4549380000000  0.5505090000000 1.0
C      1  0.4908680000000  0.5461870000000  0.4483320000000 1.0
C      1  0.5165760000000  0.5494980000000  0.5473710000000 1.0
C      1  0.5181970000000  0.4475040000000  0.4453070000000 1.0
C      1  0.5104540000000  0.4254030000000  0.5291170000000 1.0
C      1  0.5132040000000  0.5759490000000  0.4736300000000 1.0
C      1  0.4836340000000  0.5770810000000  0.5303680000000 1.0
C      1  0.4878970000000  0.4224270000000  0.4708700000000 1.0
C      1  0.5567530000000  0.4818030000000  0.5022050000000 1.0
C      1  0.5563670000000  0.5161320000000  0.5007680000000 1.0
C      1  0.4438340000000  0.5141010000000  0.5030620000000 1.0
C      1  0.4449850000000  0.4829100000000  0.4970620000000 1.0
C      1  0.5080310000000  0.4454270000000  0.5514060000000 1.0
C      1  0.5167670000000  0.5598820000000  0.4496690000000 1.0
C      1  0.4885080000000  0.5565720000000  0.5519260000000 1.0
C      1  0.4896800000000  0.4396450000000  0.4472080000000 1.0
C      1  0.5057610000000  0.5058320000000  0.5120620000000 1.0
END
