TITL C-2441154-10-677 0.0303897423257654 125000 -12964.5009449945 0 0 95 (C1) n - 1
REM
REM in /home/bkarasulu/work/CARBON/AIRSS/Generating-Clusters/ReaxFF-fromJPCA2015/Units_Real/with-SteepDescent/Higher-Symm
REM
REM
REM
REM
REM
REM ./C.cell (1df0a924f5614ab8850e4351716899ee)
REM
REM compiler GCC version 9.2.1 20190827 (Red Hat 9.2.1-1)
REM options -cpp -mtune=generic -march=x86-64 -g -O0 -fpre-include=/usr/include/finclude/math-vector-fortran.h
REM seed -1487331462 -348725440 201417892 -219229840 -735191189 -1392433017 1954180776 976330011 14487806 -740135987 -1077720051 522533404 1533977068 1022821618 1638226638 -1999901991 1735202013 -1058817663 -971586093 -1691378230 -300437206 2139393954 199378217 104850363 -2117176387 -1088711299 95893592 -901524733 -169280012 707240576 -1178997433 45351513 -694401883
REM
CELL 1.54180   50.00000   50.00000   50.00000   90.00000   90.00000   90.00000
LATT -1
SFAC C  
C      1  0.5024550000000  0.4123830000000  0.4747580000000 1.0
C      1  0.5019460000000  0.4409170000000  0.4307910000000 1.0
C      1  0.5063050000000  0.4900280000000  0.4139630000000 1.0
C      1  0.5022770000000  0.5401480000000  0.4169170000000 1.0
C      1  0.5056740000000  0.5818520000000  0.4491100000000 1.0
C      1  0.5050180000000  0.5914950000000  0.5014200000000 1.0
C      1  0.5012320000000  0.5771530000000  0.5520630000000 1.0
C      1  0.5007540000000  0.5323960000000  0.5815340000000 1.0
C      1  0.5041570000000  0.4891170000000  0.5904540000000 1.0
C      1  0.4994340000000  0.4377220000000  0.5737050000000 1.0
C      1  0.5050840000000  0.4121890000000  0.5255080000000 1.0
C      1  0.4907600000000  0.5129400000000  0.4234870000000 1.0
C      1  0.4934500000000  0.5556080000000  0.4410020000000 1.0
C      1  0.4947020000000  0.5781600000000  0.4769710000000 1.0
C      1  0.4910890000000  0.5761670000000  0.5235310000000 1.0
C      1  0.4904860000000  0.5500610000000  0.5609240000000 1.0
C      1  0.4838960000000  0.5081640000000  0.5819780000000 1.0
C      1  0.4938980000000  0.4672230000000  0.5745330000000 1.0
C      1  0.4929920000000  0.4310380000000  0.5450740000000 1.0
C      1  0.4906100000000  0.4211240000000  0.5006410000000 1.0
C      1  0.4915720000000  0.4348040000000  0.4579600000000 1.0
C      1  0.4924250000000  0.4694970000000  0.4295300000000 1.0
C      1  0.4572980000000  0.4502470000000  0.5204070000000 1.0
C      1  0.4576350000000  0.4443680000000  0.4900340000000 1.0
C      1  0.4577430000000  0.4583550000000  0.4625850000000 1.0
C      1  0.4579390000000  0.4847780000000  0.4471510000000 1.0
C      1  0.4575850000000  0.5157350000000  0.4478980000000 1.0
C      1  0.4568450000000  0.5395070000000  0.4669320000000 1.0
C      1  0.4570530000000  0.5518480000000  0.4942000000000 1.0
C      1  0.4581160000000  0.5509370000000  0.5241460000000 1.0
C      1  0.4590930000000  0.5309160000000  0.5477770000000 1.0
C      1  0.4640910000000  0.5035200000000  0.5588050000000 1.0
C      1  0.4582580000000  0.4692390000000  0.5422400000000 1.0
C      1  0.4975790000000  0.4496190000000  0.5015470000000 1.0
C      1  0.4981610000000  0.4584020000000  0.4742630000000 1.0
C      1  0.4987350000000  0.4805040000000  0.4562930000000 1.0
C      1  0.4984100000000  0.5086170000000  0.4518190000000 1.0
C      1  0.4981380000000  0.5349140000000  0.4621100000000 1.0
C      1  0.4989280000000  0.5502210000000  0.4857460000000 1.0
C      1  0.4991340000000  0.5496140000000  0.5141250000000 1.0
C      1  0.4990150000000  0.5316380000000  0.5370430000000 1.0
C      1  0.5018870000000  0.5043660000000  0.5374480000000 1.0
C      1  0.4997430000000  0.4783770000000  0.5464580000000 1.0
C      1  0.4975320000000  0.4553920000000  0.5292350000000 1.0
C      1  0.5312670000000  0.5717520000000  0.4527400000000 1.0
C      1  0.5341960000000  0.5873440000000  0.5004070000000 1.0
C      1  0.5282250000000  0.5717470000000  0.5486720000000 1.0
C      1  0.5297850000000  0.5273090000000  0.5787050000000 1.0
C      1  0.5317180000000  0.4992940000000  0.5836070000000 1.0
C      1  0.5264470000000  0.4396890000000  0.5672930000000 1.0
C      1  0.5341770000000  0.4169810000000  0.5257400000000 1.0
C      1  0.5299840000000  0.4176550000000  0.4786330000000 1.0
C      1  0.5299810000000  0.4431310000000  0.4321010000000 1.0
C      1  0.5353700000000  0.4924040000000  0.4196300000000 1.0
C      1  0.5288450000000  0.5332100000000  0.4216200000000 1.0
C      1  0.4281800000000  0.5153120000000  0.4491450000000 1.0
C      1  0.4280560000000  0.5391170000000  0.4671210000000 1.0
C      1  0.4279630000000  0.5503870000000  0.4950220000000 1.0
C      1  0.4289930000000  0.5463120000000  0.5244980000000 1.0
C      1  0.4301850000000  0.5264490000000  0.5464150000000 1.0
C      1  0.4344450000000  0.4991840000000  0.5564370000000 1.0
C      1  0.4306920000000  0.4719990000000  0.5435770000000 1.0
C      1  0.4280780000000  0.4522770000000  0.5199870000000 1.0
C      1  0.4283960000000  0.4470340000000  0.4909490000000 1.0
C      1  0.4284400000000  0.4596590000000  0.4638590000000 1.0
C      1  0.4287320000000  0.4854110000000  0.4484200000000 1.0
C      1  0.5487970000000  0.5386740000000  0.5588720000000 1.0
C      1  0.5496210000000  0.4863710000000  0.5645830000000 1.0
C      1  0.5442170000000  0.4584690000000  0.5564860000000 1.0
C      1  0.5501990000000  0.4415020000000  0.5319220000000 1.0
C      1  0.5502730000000  0.4360870000000  0.4770000000000 1.0
C      1  0.5402060000000  0.4552350000000  0.4550260000000 1.0
C      1  0.5524080000000  0.4722850000000  0.4334140000000 1.0
C      1  0.5499750000000  0.5170720000000  0.4281160000000 1.0
C      1  0.5484440000000  0.5523800000000  0.4622670000000 1.0
C      1  0.5509650000000  0.5655980000000  0.4886970000000 1.0
C      1  0.5439700000000  0.5544060000000  0.5341070000000 1.0
C      1  0.5754000000000  0.4468300000000  0.4918760000000 1.0
C      1  0.5792120000000  0.4678840000000  0.4740900000000 1.0
C      1  0.5740320000000  0.4848980000000  0.4523810000000 1.0
C      1  0.5700940000000  0.5137550000000  0.4513030000000 1.0
C      1  0.5722240000000  0.5356980000000  0.4688740000000 1.0
C      1  0.5727260000000  0.5478540000000  0.4955520000000 1.0
C      1  0.5690100000000  0.5439920000000  0.5230720000000 1.0
C      1  0.5721830000000  0.5263170000000  0.5461330000000 1.0
C      1  0.5718710000000  0.4970810000000  0.5493150000000 1.0
C      1  0.5816350000000  0.4804610000000  0.5274880000000 1.0
C      1  0.5746630000000  0.4531330000000  0.5205230000000 1.0
C      1  0.4680150000000  0.4998480000000  0.4989830000000 1.0
C      1  0.5742300000000  0.4975830000000  0.5028280000000 1.0
C      1  0.5193440000000  0.5001900000000  0.4998290000000 1.0
C      1  0.4422290000000  0.4996570000000  0.5002120000000 1.0
C      1  0.5444050000000  0.4992450000000  0.4998780000000 1.0
C      1  0.4175560000000  0.4995680000000  0.5008920000000 1.0
C      1  0.4935210000000  0.4999890000000  0.4970690000000 1.0
END
