TITL C-2441154-10-1279 0.117926185471447 125000 -16895.1796683678 0 0 135 (C1) n - 1
REM
REM in /home/bkarasulu/work/CARBON/AIRSS/Generating-Clusters/ReaxFF-fromJPCA2015/Units_Real/with-SteepDescent/Higher-Symm
REM
REM
REM
REM
REM
REM ./C.cell (1df0a924f5614ab8850e4351716899ee)
REM
REM compiler GCC version 9.2.1 20190827 (Red Hat 9.2.1-1)
REM options -cpp -mtune=generic -march=x86-64 -g -O0 -fpre-include=/usr/include/finclude/math-vector-fortran.h
REM seed 1983301024 1792088883 1425136498 -357498234 -907567431 -418431577 -805895755 255887333 1099390232 1186557528 -583774092 -1539602203 -7257489 203276735 1603525220 421193379 1208727962 -1728084446 741220110 1827951797 2106197521 858375338 491040420 1869266741 1572829063 -1287452735 -612991886 400841893 178726484 -1689150994 178449957 -1272235429 643378647
REM
CELL 1.54180   50.00000   50.00000   50.00000   90.00000   90.00000   90.00000
LATT -1
SFAC C  
C      1  0.4982060000000  0.4963920000000  0.4730450000000 1.0
C      1  0.4854060000000  0.5193890000000  0.4708530000000 1.0
C      1  0.4904460000000  0.5309600000000  0.5062280000000 1.0
C      1  0.4910860000000  0.5175220000000  0.5301820000000 1.0
C      1  0.4903980000000  0.4879930000000  0.5286120000000 1.0
C      1  0.4873560000000  0.4694860000000  0.5066360000000 1.0
C      1  0.4836330000000  0.4744780000000  0.4797170000000 1.0
C      1  0.5406070000000  0.5635980000000  0.4644510000000 1.0
C      1  0.5495770000000  0.5744720000000  0.5365230000000 1.0
C      1  0.5498930000000  0.5144030000000  0.5795980000000 1.0
C      1  0.5502510000000  0.4490920000000  0.5655160000000 1.0
C      1  0.5479960000000  0.4190510000000  0.4973270000000 1.0
C      1  0.5496700000000  0.4487670000000  0.4356140000000 1.0
C      1  0.5500860000000  0.5143270000000  0.4195930000000 1.0
C      1  0.4207590000000  0.4894260000000  0.4754770000000 1.0
C      1  0.4156630000000  0.5169390000000  0.4665460000000 1.0
C      1  0.4204760000000  0.5352670000000  0.4899820000000 1.0
C      1  0.4198740000000  0.5300490000000  0.5201510000000 1.0
C      1  0.4198110000000  0.5038130000000  0.5360430000000 1.0
C      1  0.4207340000000  0.4739440000000  0.5273500000000 1.0
C      1  0.4197110000000  0.4660420000000  0.4984620000000 1.0
C      1  0.5933890000000  0.4711710000000  0.4857680000000 1.0
C      1  0.5935410000000  0.4936560000000  0.4682950000000 1.0
C      1  0.5916920000000  0.5218690000000  0.4736700000000 1.0
C      1  0.5919520000000  0.5342560000000  0.4995440000000 1.0
C      1  0.5943710000000  0.5204680000000  0.5247280000000 1.0
C      1  0.5920330000000  0.4925500000000  0.5311260000000 1.0
C      1  0.5936150000000  0.4687430000000  0.5145310000000 1.0
C      1  0.5454920000000  0.5851010000000  0.4858760000000 1.0
C      1  0.5445300000000  0.5557080000000  0.5583580000000 1.0
C      1  0.5524160000000  0.4861400000000  0.5838360000000 1.0
C      1  0.5397890000000  0.4303820000000  0.5464100000000 1.0
C      1  0.5514050000000  0.4233000000000  0.4682560000000 1.0
C      1  0.5401410000000  0.4698440000000  0.4170040000000 1.0
C      1  0.5440650000000  0.5416680000000  0.4257590000000 1.0
C      1  0.4417220000000  0.4631730000000  0.5735710000000 1.0
C      1  0.4434640000000  0.4200270000000  0.5122480000000 1.0
C      1  0.4440890000000  0.4316880000000  0.4456750000000 1.0
C      1  0.4419560000000  0.4953140000000  0.4244520000000 1.0
C      1  0.4448410000000  0.5678520000000  0.4517900000000 1.0
C      1  0.4386470000000  0.5803520000000  0.5194050000000 1.0
C      1  0.4336150000000  0.5342150000000  0.5774810000000 1.0
C      1  0.4664560000000  0.5577680000000  0.4361220000000 1.0
C      1  0.4796320000000  0.5726050000000  0.5020110000000 1.0
C      1  0.4732790000000  0.5519730000000  0.5546380000000 1.0
C      1  0.4738590000000  0.4900240000000  0.5712330000000 1.0
C      1  0.4642270000000  0.4252740000000  0.5324300000000 1.0
C      1  0.4754800000000  0.4300640000000  0.4696430000000 1.0
C      1  0.4693360000000  0.4968160000000  0.4179640000000 1.0
C      1  0.4439670000000  0.5559480000000  0.5595150000000 1.0
C      1  0.4468670000000  0.4888520000000  0.5784830000000 1.0
C      1  0.4473720000000  0.4306970000000  0.5510730000000 1.0
C      1  0.4474210000000  0.4243770000000  0.4719460000000 1.0
C      1  0.4429190000000  0.4669190000000  0.4252050000000 1.0
C      1  0.4504730000000  0.5356180000000  0.4265700000000 1.0
C      1  0.4420820000000  0.5838530000000  0.4896910000000 1.0
C      1  0.4600010000000  0.5856010000000  0.5371640000000 1.0
C      1  0.4580940000000  0.5263560000000  0.5882250000000 1.0
C      1  0.4641820000000  0.4437630000000  0.5706260000000 1.0
C      1  0.4633730000000  0.4047830000000  0.4984710000000 1.0
C      1  0.4639670000000  0.4447230000000  0.4270540000000 1.0
C      1  0.4734770000000  0.5241910000000  0.4142440000000 1.0
C      1  0.4627430000000  0.5832960000000  0.4677950000000 1.0
C      1  0.4969430000000  0.4133830000000  0.4570500000000 1.0
C      1  0.4928350000000  0.4839850000000  0.4089580000000 1.0
C      1  0.4972530000000  0.5689720000000  0.4334280000000 1.0
C      1  0.5007660000000  0.5922290000000  0.4996670000000 1.0
C      1  0.4976920000000  0.5579530000000  0.5710470000000 1.0
C      1  0.4945740000000  0.4800450000000  0.5878660000000 1.0
C      1  0.4924720000000  0.4169980000000  0.5337000000000 1.0
C      1  0.5641630000000  0.4683880000000  0.4811120000000 1.0
C      1  0.5634930000000  0.4940190000000  0.4629010000000 1.0
C      1  0.5625180000000  0.5261760000000  0.4698650000000 1.0
C      1  0.5641380000000  0.5417460000000  0.5056810000000 1.0
C      1  0.5662670000000  0.5253820000000  0.5312340000000 1.0
C      1  0.5637230000000  0.4869340000000  0.5360190000000 1.0
C      1  0.5631900000000  0.4633870000000  0.5155360000000 1.0
C      1  0.5159480000000  0.5504330000000  0.4209240000000 1.0
C      1  0.5190410000000  0.5951530000000  0.4770870000000 1.0
C      1  0.5109670000000  0.5795460000000  0.5604070000000 1.0
C      1  0.5035080000000  0.5064060000000  0.5959800000000 1.0
C      1  0.5109550000000  0.4257890000000  0.5536290000000 1.0
C      1  0.5105150000000  0.4007900000000  0.4775970000000 1.0
C      1  0.5093220000000  0.4620080000000  0.4155250000000 1.0
C      1  0.5069470000000  0.4313290000000  0.5109150000000 1.0
C      1  0.5115950000000  0.4422650000000  0.4555620000000 1.0
C      1  0.5102960000000  0.5003420000000  0.4272160000000 1.0
C      1  0.4998170000000  0.5404900000000  0.4631680000000 1.0
C      1  0.5173110000000  0.5736610000000  0.5140450000000 1.0
C      1  0.5203870000000  0.5384310000000  0.5628670000000 1.0
C      1  0.5106770000000  0.4696450000000  0.5659340000000 1.0
C      1  0.4309410000000  0.4546090000000  0.5481810000000 1.0
C      1  0.4308900000000  0.4390060000000  0.4932490000000 1.0
C      1  0.4360650000000  0.4592630000000  0.4525010000000 1.0
C      1  0.4308460000000  0.5177010000000  0.4400060000000 1.0
C      1  0.4307140000000  0.5604410000000  0.4779030000000 1.0
C      1  0.4304940000000  0.5548390000000  0.5330200000000 1.0
C      1  0.4294810000000  0.5078430000000  0.5637500000000 1.0
C      1  0.5662330000000  0.4734060000000  0.5619240000000 1.0
C      1  0.5528310000000  0.4355070000000  0.5208070000000 1.0
C      1  0.5651950000000  0.4473420000000  0.4602430000000 1.0
C      1  0.5600230000000  0.4918820000000  0.4338320000000 1.0
C      1  0.5576300000000  0.5468910000000  0.4499210000000 1.0
C      1  0.5564200000000  0.5705070000000  0.5085520000000 1.0
C      1  0.5608620000000  0.5321930000000  0.5591790000000 1.0
C      1  0.5187050000000  0.4872600000000  0.4569760000000 1.0
C      1  0.5251980000000  0.5411070000000  0.4782070000000 1.0
C      1  0.5159020000000  0.5454980000000  0.5051910000000 1.0
C      1  0.5197780000000  0.5127740000000  0.5387560000000 1.0
C      1  0.5165170000000  0.4834780000000  0.5375760000000 1.0
C      1  0.5158580000000  0.4613680000000  0.5057320000000 1.0
C      1  0.5203310000000  0.4645930000000  0.4760760000000 1.0
C      1  0.5157410000000  0.5817090000000  0.4509990000000 1.0
C      1  0.5246740000000  0.5889730000000  0.5380900000000 1.0
C      1  0.5245100000000  0.5235900000000  0.5870890000000 1.0
C      1  0.5335370000000  0.4639560000000  0.5835490000000 1.0
C      1  0.5229590000000  0.4049760000000  0.5013770000000 1.0
C      1  0.5330830000000  0.4274180000000  0.4456380000000 1.0
C      1  0.5305080000000  0.4983530000000  0.4079180000000 1.0
C      1  0.4987990000000  0.5274520000000  0.4289900000000 1.0
C      1  0.4836330000000  0.5638490000000  0.4751320000000 1.0
C      1  0.4808240000000  0.5671760000000  0.5308840000000 1.0
C      1  0.4826990000000  0.5172760000000  0.5770620000000 1.0
C      1  0.4925950000000  0.4465290000000  0.5619530000000 1.0
C      1  0.4827100000000  0.4258050000000  0.4948570000000 1.0
C      1  0.4915410000000  0.4516110000000  0.4343250000000 1.0
C      1  0.4575480000000  0.4685900000000  0.5114730000000 1.0
C      1  0.4572400000000  0.4707230000000  0.4770950000000 1.0
C      1  0.4487340000000  0.4955870000000  0.4707040000000 1.0
C      1  0.4593880000000  0.5205020000000  0.4769430000000 1.0
C      1  0.4596090000000  0.5311220000000  0.5041640000000 1.0
C      1  0.4581190000000  0.5156000000000  0.5292070000000 1.0
C      1  0.4622210000000  0.4866750000000  0.5343470000000 1.0
C      1  0.5375950000000  0.5061720000000  0.5091940000000 1.0
C      1  0.5169390000000  0.5023580000000  0.4941890000000 1.0
END
