TITL C-2441164-471-950 -0.000476220605143734 125000 -2006.71729311995 0 0 15 (C1) n - 1
REM
REM in /home/bkarasulu/work/CARBON/AIRSS/Generating-Clusters/ReaxFF-fromJPCA2015/Units_Real/with-SteepDescent/Higher-Symm
REM
REM
REM
REM
REM
REM ./C.cell (1df0a924f5614ab8850e4351716899ee)
REM
REM compiler GCC version 9.2.1 20190827 (Red Hat 9.2.1-1)
REM options -cpp -mtune=generic -march=x86-64 -g -O0 -fpre-include=/usr/include/finclude/math-vector-fortran.h
REM seed 1366762963 1281172841 -1143931819 -1576289561 2046010935 1044982842 816156723 -2009448076 -268464884 -1744435425 -302754848 1527489768 570868971 986321568 1548336855 -1288396696 -560479583 906297494 1522852377 649681498 -518151888 1182854372 -2029513782 -1470129856 1205277077 -781102849 193720258 -1245213570 646618991 -1405943637 930481139 -996966276 89140638
REM
CELL 1.54180   50.00000   50.00000   50.00000   90.00000   90.00000   90.00000
LATT -1
SFAC C  
C      1  0.4908130000000  0.5182240000000  0.4811810000000 1.0
C      1  0.5196070000000  0.5238560000000  0.4792370000000 1.0
C      1  0.5195580000000  0.5313650000000  0.5066540000000 1.0
C      1  0.5029200000000  0.5215340000000  0.5273360000000 1.0
C      1  0.4820820000000  0.5152290000000  0.5073320000000 1.0
C      1  0.5434340000000  0.4848850000000  0.4964800000000 1.0
C      1  0.5133370000000  0.4967660000000  0.5406860000000 1.0
C      1  0.4628000000000  0.4878950000000  0.5303600000000 1.0
C      1  0.4611290000000  0.4917260000000  0.4741130000000 1.0
C      1  0.5142150000000  0.4840310000000  0.4540670000000 1.0
C      1  0.5352570000000  0.4848310000000  0.5252400000000 1.0
C      1  0.4874030000000  0.4836210000000  0.5469070000000 1.0
C      1  0.4506820000000  0.4907160000000  0.5028290000000 1.0
C      1  0.4839520000000  0.4878090000000  0.4554370000000 1.0
C      1  0.5328110000000  0.4975110000000  0.4721420000000 1.0
END
