TITL C-2441156-4686-564 0.00062959500723771 125000 -1695.78932748305 0 0 13 (C1) n - 1
REM
REM in /home/bkarasulu/work/CARBON/AIRSS/Generating-Clusters/ReaxFF-fromJPCA2015/Units_Real/with-SteepDescent/Higher-Symm
REM
REM
REM
REM
REM
REM ./C.cell (1df0a924f5614ab8850e4351716899ee)
REM
REM compiler GCC version 9.2.1 20190827 (Red Hat 9.2.1-1)
REM options -cpp -mtune=generic -march=x86-64 -g -O0 -fpre-include=/usr/include/finclude/math-vector-fortran.h
REM seed -2108642671 1869068254 77832620 -2085942855 1529767463 1688481394 -2098086030 2110389594 1794683621 -735836088 -1918022161 -656427324 395527139 -1832072364 -298135004 1818293818 -837026532 268840196 1929100568 -237149126 -151255402 273026720 -1307752477 -1781237462 586156921 -1426381695 -656660492 1852527075 1509913887 -909669915 -1872195092 -1741835504 -1736693886
REM
CELL 1.54180   50.00000   50.00000   50.00000   90.00000   90.00000   90.00000
LATT -1
SFAC C  
C      1  0.4755440000000  0.4866790000000  0.5324720000000 1.0
C      1  0.4850530000000  0.4733620000000  0.4622340000000 1.0
C      1  0.4994470000000  0.4696310000000  0.5338410000000 1.0
C      1  0.5146910000000  0.4705530000000  0.4644600000000 1.0
C      1  0.5277940000000  0.4801800000000  0.5334890000000 1.0
C      1  0.5304730000000  0.4963610000000  0.4640570000000 1.0
C      1  0.5304550000000  0.5098990000000  0.5353940000000 1.0
C      1  0.5179860000000  0.5229760000000  0.4630230000000 1.0
C      1  0.5066380000000  0.5278250000000  0.5349910000000 1.0
C      1  0.4884000000000  0.5232740000000  0.4714420000000 1.0
C      1  0.4809120000000  0.5157390000000  0.5239080000000 1.0
C      1  0.4717110000000  0.5000260000000  0.4606860000000 1.0
C      1  0.4846540000000  0.5195050000000  0.4976870000000 1.0
END
