TITL C-2441160-1326-360 0.033889776493731 125000 -7539.83239531959 0 0 59 (C1) n - 1
REM
REM in /home/bkarasulu/work/CARBON/AIRSS/Generating-Clusters/ReaxFF-fromJPCA2015/Units_Real/with-SteepDescent/Higher-Symm
REM
REM
REM
REM
REM
REM ./C.cell (1df0a924f5614ab8850e4351716899ee)
REM
REM compiler GCC version 9.2.1 20190827 (Red Hat 9.2.1-1)
REM options -cpp -mtune=generic -march=x86-64 -g -O0 -fpre-include=/usr/include/finclude/math-vector-fortran.h
REM seed -1513201525 1799732691 -113744799 1261927130 -325848492 444906348 -696647041 192326381 2095305748 -973954361 -1351484713 -540935011 1229346194 -60294035 -209611272 -615992164 1384656475 -1968806632 1234240644 1768686786 -192285849 -426959693 252772901 -1174381740 -344551006 -998524779 -1083483136 -1676343881 826631985 1226448504 261139043 -214055641 847986039
REM
CELL 1.54180   50.00000   50.00000   50.00000   90.00000   90.00000   90.00000
LATT -1
SFAC C  
C      1  0.5252790000000  0.4505870000000  0.5140600000000 1.0
C      1  0.4803610000000  0.4986720000000  0.4865010000000 1.0
C      1  0.5092210000000  0.4846180000000  0.4333980000000 1.0
C      1  0.5617670000000  0.4646570000000  0.4622580000000 1.0
C      1  0.4698260000000  0.4655720000000  0.5442630000000 1.0
C      1  0.5382050000000  0.5462660000000  0.4695030000000 1.0
C      1  0.5420320000000  0.4925880000000  0.5318790000000 1.0
C      1  0.5247710000000  0.5338890000000  0.5573380000000 1.0
C      1  0.5662330000000  0.5233550000000  0.5112990000000 1.0
C      1  0.5318090000000  0.4779660000000  0.5568330000000 1.0
C      1  0.4507120000000  0.4533700000000  0.4955490000000 1.0
C      1  0.4906230000000  0.5051750000000  0.4365200000000 1.0
C      1  0.5093610000000  0.4933500000000  0.4824110000000 1.0
C      1  0.5456580000000  0.5585950000000  0.5163090000000 1.0
C      1  0.4803610000000  0.5630590000000  0.4845680000000 1.0
C      1  0.5327900000000  0.5651590000000  0.4905520000000 1.0
C      1  0.5365140000000  0.4386020000000  0.4823630000000 1.0
C      1  0.5689080000000  0.4835860000000  0.5227300000000 1.0
C      1  0.4992920000000  0.4377990000000  0.5140480000000 1.0
C      1  0.4557860000000  0.5327690000000  0.4613340000000 1.0
C      1  0.4364530000000  0.5399890000000  0.5047670000000 1.0
C      1  0.5180170000000  0.4808900000000  0.5106390000000 1.0
C      1  0.4986790000000  0.5244600000000  0.5586640000000 1.0
C      1  0.4372790000000  0.5229160000000  0.5283860000000 1.0
C      1  0.4556180000000  0.5364860000000  0.5474520000000 1.0
C      1  0.4397370000000  0.4881950000000  0.4620500000000 1.0
C      1  0.4513300000000  0.4626510000000  0.5225290000000 1.0
C      1  0.5363140000000  0.5067690000000  0.5571970000000 1.0
C      1  0.5819610000000  0.5020510000000  0.5035040000000 1.0
C      1  0.4715600000000  0.4582480000000  0.4479550000000 1.0
C      1  0.5264460000000  0.5231330000000  0.4707200000000 1.0
C      1  0.5398460000000  0.5304290000000  0.5129690000000 1.0
C      1  0.5129110000000  0.4278950000000  0.4721890000000 1.0
C      1  0.5015890000000  0.5637260000000  0.5291940000000 1.0
C      1  0.4841770000000  0.5457400000000  0.5472410000000 1.0
C      1  0.4331530000000  0.5249940000000  0.4802060000000 1.0
C      1  0.4557790000000  0.4842380000000  0.4408870000000 1.0
C      1  0.4634970000000  0.5503030000000  0.5030040000000 1.0
C      1  0.4656610000000  0.5150110000000  0.4408130000000 1.0
C      1  0.4955750000000  0.4564480000000  0.4316080000000 1.0
C      1  0.5211880000000  0.4544220000000  0.5448350000000 1.0
C      1  0.5743770000000  0.4796670000000  0.4814690000000 1.0
C      1  0.4982720000000  0.4948610000000  0.5265040000000 1.0
C      1  0.4656670000000  0.4446580000000  0.4735470000000 1.0
C      1  0.5047630000000  0.5681110000000  0.5000330000000 1.0
C      1  0.4740220000000  0.5476550000000  0.4643860000000 1.0
C      1  0.4896470000000  0.4363050000000  0.4864050000000 1.0
C      1  0.5275110000000  0.5584260000000  0.5392680000000 1.0
C      1  0.4973300000000  0.5206120000000  0.5148870000000 1.0
C      1  0.5200540000000  0.4781150000000  0.4599480000000 1.0
C      1  0.5160680000000  0.5293310000000  0.4967990000000 1.0
C      1  0.4927200000000  0.4487080000000  0.5395250000000 1.0
C      1  0.4797160000000  0.4934220000000  0.5498390000000 1.0
C      1  0.4531980000000  0.5080780000000  0.5480290000000 1.0
C      1  0.5392650000000  0.4582500000000  0.4603690000000 1.0
C      1  0.4731260000000  0.5218110000000  0.5014900000000 1.0
C      1  0.4308910000000  0.4965850000000  0.4861010000000 1.0
C      1  0.4560680000000  0.4813500000000  0.4989430000000 1.0
C      1  0.5610230000000  0.4654270000000  0.5019350000000 1.0
END
