TITL C-2441166-8118-821 0.0232403034599244 125000 -14400.3008166689 0 0 104 (C1) n - 1
REM
REM in /home/bkarasulu/work/CARBON/AIRSS/Generating-Clusters/ReaxFF-fromJPCA2015/Units_Real/with-SteepDescent/Higher-Symm
REM
REM
REM
REM
REM
REM ./C.cell (1df0a924f5614ab8850e4351716899ee)
REM
REM compiler GCC version 9.2.1 20190827 (Red Hat 9.2.1-1)
REM options -cpp -mtune=generic -march=x86-64 -g -O0 -fpre-include=/usr/include/finclude/math-vector-fortran.h
REM seed 1268473961 172747010 148564777 -594000266 -449586786 1055683643 1306012948 -1071570632 -437841161 -1003838575 919859086 93509233 924607020 -114418127 -1511195507 1685215217 77446819 1149929333 66492569 -591402723 1389715160 61530364 1634328514 1092804382 -1310940918 259328373 -1100505086 -1415606162 -216912439 575026515 -1729140560 -1338806827 -1521725466
REM
CELL 1.54180   50.00000   50.00000   50.00000   90.00000   90.00000   90.00000
LATT -1
SFAC C  
C      1  0.4851990000000  0.5518280000000  0.4305930000000 1.0
C      1  0.4843910000000  0.4307730000000  0.4480580000000 1.0
C      1  0.4851900000000  0.4477650000000  0.5693080000000 1.0
C      1  0.4851540000000  0.5691830000000  0.5519860000000 1.0
C      1  0.5155270000000  0.5518080000000  0.4306500000000 1.0
C      1  0.5149400000000  0.4307310000000  0.4479970000000 1.0
C      1  0.5159840000000  0.4480030000000  0.5693520000000 1.0
C      1  0.5158230000000  0.5693780000000  0.5516930000000 1.0
C      1  0.4743040000000  0.5371650000000  0.4951690000000 1.0
C      1  0.4755700000000  0.4941680000000  0.4633010000000 1.0
C      1  0.4732480000000  0.4636730000000  0.5054940000000 1.0
C      1  0.4746900000000  0.5048730000000  0.5372640000000 1.0
C      1  0.5251650000000  0.5357820000000  0.4934140000000 1.0
C      1  0.5262800000000  0.4941770000000  0.4637220000000 1.0
C      1  0.5245640000000  0.4636870000000  0.5060860000000 1.0
C      1  0.5254430000000  0.5065790000000  0.5357910000000 1.0
C      1  0.5147940000000  0.5144810000000  0.4483150000000 1.0
C      1  0.5131510000000  0.4439190000000  0.4901450000000 1.0
C      1  0.5143330000000  0.4860870000000  0.5515210000000 1.0
C      1  0.5142100000000  0.5514160000000  0.5139950000000 1.0
C      1  0.4875240000000  0.5085230000000  0.4425670000000 1.0
C      1  0.4851560000000  0.4484950000000  0.4852950000000 1.0
C      1  0.4871070000000  0.4906950000000  0.5576450000000 1.0
C      1  0.4870190000000  0.5577340000000  0.5091630000000 1.0
C      1  0.5477170000000  0.5057610000000  0.4233190000000 1.0
C      1  0.5482530000000  0.4241270000000  0.4946250000000 1.0
C      1  0.5476450000000  0.4941420000000  0.5765450000000 1.0
C      1  0.5479210000000  0.5760190000000  0.5057630000000 1.0
C      1  0.4519000000000  0.5056090000000  0.4228870000000 1.0
C      1  0.4525200000000  0.4225270000000  0.4938520000000 1.0
C      1  0.4518290000000  0.4942610000000  0.5771840000000 1.0
C      1  0.4516390000000  0.5770090000000  0.5054260000000 1.0
C      1  0.5468820000000  0.4280890000000  0.5254490000000 1.0
C      1  0.5466180000000  0.5256860000000  0.5722010000000 1.0
C      1  0.5467580000000  0.5719350000000  0.4742560000000 1.0
C      1  0.5469700000000  0.4750300000000  0.4276610000000 1.0
C      1  0.4524560000000  0.4276180000000  0.5247920000000 1.0
C      1  0.4522900000000  0.5246400000000  0.5720230000000 1.0
C      1  0.4521620000000  0.5718650000000  0.4751850000000 1.0
C      1  0.4529770000000  0.4744950000000  0.4280900000000 1.0
C      1  0.4322840000000  0.4859520000000  0.5584770000000 1.0
C      1  0.4323250000000  0.5585950000000  0.5144590000000 1.0
C      1  0.4322330000000  0.5136700000000  0.4412560000000 1.0
C      1  0.4321630000000  0.4413690000000  0.4870210000000 1.0
C      1  0.5691300000000  0.4879510000000  0.5579230000000 1.0
C      1  0.5690300000000  0.5574420000000  0.5129280000000 1.0
C      1  0.5690480000000  0.5124610000000  0.4420930000000 1.0
C      1  0.5691930000000  0.4425250000000  0.4870640000000 1.0
C      1  0.4517230000000  0.5027040000000  0.5209000000000 1.0
C      1  0.4518950000000  0.5201190000000  0.4980690000000 1.0
C      1  0.4524070000000  0.4980240000000  0.4794690000000 1.0
C      1  0.4517220000000  0.4806580000000  0.5026980000000 1.0
C      1  0.5479100000000  0.5029170000000  0.5197500000000 1.0
C      1  0.5480050000000  0.5201440000000  0.4968640000000 1.0
C      1  0.5481960000000  0.4971770000000  0.4800020000000 1.0
C      1  0.5479010000000  0.4795410000000  0.5026820000000 1.0
C      1  0.5265860000000  0.5765490000000  0.5253180000000 1.0
C      1  0.5265270000000  0.5256110000000  0.4231360000000 1.0
C      1  0.5259070000000  0.4235530000000  0.4749090000000 1.0
C      1  0.5265350000000  0.4744400000000  0.5767860000000 1.0
C      1  0.4745360000000  0.5772700000000  0.5253510000000 1.0
C      1  0.4747330000000  0.5250810000000  0.4232020000000 1.0
C      1  0.4739900000000  0.4229530000000  0.4742460000000 1.0
C      1  0.4746180000000  0.4744550000000  0.5773010000000 1.0
C      1  0.5701370000000  0.4452950000000  0.5233530000000 1.0
C      1  0.5700210000000  0.5229240000000  0.5554570000000 1.0
C      1  0.5700310000000  0.5549930000000  0.4767050000000 1.0
C      1  0.5700540000000  0.4769860000000  0.4445060000000 1.0
C      1  0.4292130000000  0.4441290000000  0.5216600000000 1.0
C      1  0.4290070000000  0.5217260000000  0.5555550000000 1.0
C      1  0.4290920000000  0.5553080000000  0.4778900000000 1.0
C      1  0.4295990000000  0.4778160000000  0.4447080000000 1.0
C      1  0.4299080000000  0.5350730000000  0.4582260000000 1.0
C      1  0.4300650000000  0.4584670000000  0.4653200000000 1.0
C      1  0.4302060000000  0.4647490000000  0.5413020000000 1.0
C      1  0.4298960000000  0.5415210000000  0.5353940000000 1.0
C      1  0.5697370000000  0.5342590000000  0.4585810000000 1.0
C      1  0.5697210000000  0.4587760000000  0.4652640000000 1.0
C      1  0.5698260000000  0.4660540000000  0.5413120000000 1.0
C      1  0.5696370000000  0.5411810000000  0.5347710000000 1.0
C      1  0.5810550000000  0.5021590000000  0.5206560000000 1.0
C      1  0.5811720000000  0.5211750000000  0.4978050000000 1.0
C      1  0.5812760000000  0.4980150000000  0.4791030000000 1.0
C      1  0.5811670000000  0.4790180000000  0.5019880000000 1.0
C      1  0.4177630000000  0.5043750000000  0.5204430000000 1.0
C      1  0.4181100000000  0.5206800000000  0.4956800000000 1.0
C      1  0.4183270000000  0.4958610000000  0.4794280000000 1.0
C      1  0.4182060000000  0.4796560000000  0.5041620000000 1.0
C      1  0.5261240000000  0.4358640000000  0.5444720000000 1.0
C      1  0.5260640000000  0.5446900000000  0.5643680000000 1.0
C      1  0.5260440000000  0.5643720000000  0.4553830000000 1.0
C      1  0.5257790000000  0.4556570000000  0.4356000000000 1.0
C      1  0.4736180000000  0.4351600000000  0.5444450000000 1.0
C      1  0.4736530000000  0.5443510000000  0.5643170000000 1.0
C      1  0.4737800000000  0.5637390000000  0.4554670000000 1.0
C      1  0.4737450000000  0.4554750000000  0.4358090000000 1.0
C      1  0.4853990000000  0.5425470000000  0.4702350000000 1.0
C      1  0.4862560000000  0.4683400000000  0.4608190000000 1.0
C      1  0.4848360000000  0.4570400000000  0.5298760000000 1.0
C      1  0.4856030000000  0.5300880000000  0.5427220000000 1.0
C      1  0.5135170000000  0.5394460000000  0.4683750000000 1.0
C      1  0.5150080000000  0.4695640000000  0.4582290000000 1.0
C      1  0.5135400000000  0.4609410000000  0.5316890000000 1.0
C      1  0.5139040000000  0.5316330000000  0.5392400000000 1.0
END
