TITL C-2441162-9305-459 0.00221563341245521 125000 -10413.7198401449 0 0 71 (C1) n - 1
REM
REM in /home/bkarasulu/work/CARBON/AIRSS/Generating-Clusters/ReaxFF-fromJPCA2015/Units_Real/with-SteepDescent/Higher-Symm
REM
REM
REM
REM
REM
REM ./C.cell (1df0a924f5614ab8850e4351716899ee)
REM
REM compiler GCC version 9.2.1 20190827 (Red Hat 9.2.1-1)
REM options -cpp -mtune=generic -march=x86-64 -g -O0 -fpre-include=/usr/include/finclude/math-vector-fortran.h
REM seed 1088681108 -2022403386 -715460741 -1636585579 -153963502 174166845 -1312076603 -1082967729 -672920389 844557266 -1495877354 191159741 489311596 1917406199 1181453047 -1496958091 -1082700217 -467151801 810809797 -573043688 81481360 -1694038693 1549797461 519603592 -604463902 620956065 1887595778 -329489553 -965869820 563511178 316696782 -1860055180 470351050
REM
CELL 1.54180   50.00000   50.00000   50.00000   90.00000   90.00000   90.00000
LATT -1
SFAC C  
C      1  0.4589010000000  0.4850280000000  0.5528740000000 1.0
C      1  0.4548380000000  0.5102850000000  0.5568370000000 1.0
C      1  0.4668890000000  0.5328660000000  0.5582870000000 1.0
C      1  0.4886510000000  0.5468130000000  0.5580490000000 1.0
C      1  0.5148060000000  0.5466320000000  0.5581370000000 1.0
C      1  0.5352220000000  0.5305090000000  0.5589110000000 1.0
C      1  0.5442420000000  0.5064450000000  0.5585010000000 1.0
C      1  0.5409650000000  0.4815300000000  0.5547010000000 1.0
C      1  0.5272200000000  0.4588740000000  0.5461650000000 1.0
C      1  0.5000190000000  0.4638630000000  0.5576990000000 1.0
C      1  0.4729630000000  0.4612460000000  0.5463550000000 1.0
C      1  0.4328730000000  0.4571930000000  0.4970040000000 1.0
C      1  0.4188490000000  0.4989050000000  0.5006500000000 1.0
C      1  0.4306010000000  0.5411990000000  0.5011860000000 1.0
C      1  0.4625370000000  0.5739190000000  0.5014870000000 1.0
C      1  0.5103660000000  0.5811830000000  0.4977340000000 1.0
C      1  0.5505640000000  0.5606510000000  0.4957050000000 1.0
C      1  0.5770400000000  0.5241170000000  0.5011040000000 1.0
C      1  0.5753390000000  0.4790370000000  0.4980010000000 1.0
C      1  0.5533580000000  0.4388280000000  0.5021000000000 1.0
C      1  0.5112410000000  0.4218640000000  0.4972070000000 1.0
C      1  0.4663430000000  0.4260150000000  0.5013940000000 1.0
C      1  0.4671880000000  0.4636900000000  0.4495590000000 1.0
C      1  0.4521700000000  0.4889560000000  0.4475130000000 1.0
C      1  0.4515480000000  0.5190420000000  0.4502630000000 1.0
C      1  0.4667160000000  0.5444520000000  0.4516590000000 1.0
C      1  0.4952630000000  0.5528960000000  0.4531390000000 1.0
C      1  0.5224920000000  0.5465030000000  0.4416000000000 1.0
C      1  0.5460990000000  0.5279020000000  0.4452810000000 1.0
C      1  0.5545400000000  0.4994260000000  0.4472070000000 1.0
C      1  0.5459960000000  0.4713010000000  0.4461460000000 1.0
C      1  0.5225590000000  0.4529500000000  0.4486530000000 1.0
C      1  0.4934370000000  0.4497070000000  0.4462330000000 1.0
C      1  0.4157010000000  0.4761960000000  0.4828760000000 1.0
C      1  0.4134610000000  0.5232480000000  0.4859360000000 1.0
C      1  0.4367290000000  0.5669620000000  0.4889490000000 1.0
C      1  0.4700340000000  0.5867430000000  0.4750820000000 1.0
C      1  0.5372500000000  0.5814750000000  0.4797770000000 1.0
C      1  0.5740410000000  0.5476690000000  0.4842900000000 1.0
C      1  0.5888720000000  0.5023280000000  0.4859110000000 1.0
C      1  0.5730850000000  0.4517960000000  0.4859340000000 1.0
C      1  0.5384850000000  0.4205850000000  0.4857040000000 1.0
C      1  0.4858960000000  0.4141470000000  0.4840500000000 1.0
C      1  0.4438840000000  0.4327050000000  0.4848020000000 1.0
C      1  0.5496770000000  0.5158670000000  0.5099650000000 1.0
C      1  0.5498060000000  0.4875420000000  0.5075530000000 1.0
C      1  0.5338330000000  0.4597360000000  0.5156810000000 1.0
C      1  0.5072730000000  0.4473360000000  0.5095980000000 1.0
C      1  0.4773820000000  0.4514670000000  0.5166870000000 1.0
C      1  0.4552180000000  0.4721190000000  0.5082190000000 1.0
C      1  0.4470260000000  0.4998180000000  0.5106630000000 1.0
C      1  0.4554660000000  0.5281780000000  0.5094680000000 1.0
C      1  0.4766240000000  0.5487710000000  0.5094360000000 1.0
C      1  0.5057630000000  0.5518750000000  0.5100920000000 1.0
C      1  0.5321270000000  0.5403890000000  0.5064800000000 1.0
C      1  0.4809630000000  0.4244460000000  0.4563950000000 1.0
C      1  0.4547910000000  0.4375250000000  0.4573720000000 1.0
C      1  0.4239160000000  0.4877080000000  0.4567300000000 1.0
C      1  0.4228950000000  0.5170660000000  0.4584260000000 1.0
C      1  0.4513180000000  0.5674660000000  0.4622030000000 1.0
C      1  0.4970350000000  0.5785160000000  0.4680660000000 1.0
C      1  0.5346580000000  0.5682420000000  0.4545010000000 1.0
C      1  0.5723930000000  0.5363040000000  0.4568510000000 1.0
C      1  0.5811800000000  0.5082090000000  0.4580590000000 1.0
C      1  0.5635460000000  0.4500300000000  0.4577680000000 1.0
C      1  0.5409670000000  0.4312710000000  0.4580340000000 1.0
C      1  0.4975790000000  0.4927800000000  0.5665280000000 1.0
C      1  0.5014180000000  0.5062030000000  0.5163730000000 1.0
C      1  0.5001690000000  0.4983610000000  0.4668120000000 1.0
C      1  0.5026400000000  0.5119650000000  0.5431080000000 1.0
C      1  0.5003800000000  0.5011300000000  0.4910140000000 1.0
END
