TITL C-2441169-1362-314 4.54112578810983e-08 125000 -7720.54112183082 0 0 48 (D8h) n - 1
REM
REM in /home/bkarasulu/work/CARBON/AIRSS/Generating-Clusters/ReaxFF-fromJPCA2015/Units_Real/with-SteepDescent/Higher-Symm
REM
REM
REM
REM
REM
REM ./C.cell (1df0a924f5614ab8850e4351716899ee)
REM
REM compiler GCC version 9.2.1 20190827 (Red Hat 9.2.1-1)
REM options -cpp -mtune=generic -march=x86-64 -g -O0 -fpre-include=/usr/include/finclude/math-vector-fortran.h
REM seed -749803999 -1491891601 1985091922 -1534149185 -1865427380 72367309 225154310 935650767 -1732257363 -660507663 618267383 -1860067483 -1465049910 1409128487 230372342 -1686586281 -572887637 1871746499 1712235112 1300914130 -38089642 1462022534 -1123317426 -1339921492 116452078 -1721514035 1622311215 578943743 -1398192669 951281464 913649488 -1012789565 -598848780
REM
CELL 1.54180   50.00000   50.00000   50.00000   90.00000   90.00000   90.00000
LATT -1
SFAC C  
C      1  0.5269440000000  0.4403180000000  0.4854090000000 1.0
C      1  0.4768510000000  0.4387460000000  0.4854090000000 1.0
C      1  0.4403180000000  0.4730560000000  0.4854090000000 1.0
C      1  0.4387460000000  0.5231490000000  0.4854090000000 1.0
C      1  0.4730560000000  0.5596820000000  0.4854090000000 1.0
C      1  0.5231490000000  0.5612540000000  0.4854090000000 1.0
C      1  0.5596820000000  0.5269440000000  0.4854090000000 1.0
C      1  0.5612540000000  0.4768510000000  0.4854090000000 1.0
C      1  0.5231490000000  0.5612540000000  0.5145910000000 1.0
C      1  0.5596820000000  0.5269440000000  0.5145910000000 1.0
C      1  0.5612540000000  0.4768510000000  0.5145910000000 1.0
C      1  0.5269440000000  0.4403180000000  0.5145910000000 1.0
C      1  0.4768510000000  0.4387460000000  0.5145910000000 1.0
C      1  0.4403180000000  0.4730560000000  0.5145910000000 1.0
C      1  0.4387460000000  0.5231490000000  0.5145910000000 1.0
C      1  0.4730560000000  0.5596820000000  0.5145910000000 1.0
C      1  0.5403710000000  0.5429880000000  0.5281540000000 1.0
C      1  0.5589440000000  0.5018500000000  0.5281540000000 1.0
C      1  0.5429880000000  0.4596290000000  0.5281550000000 1.0
C      1  0.5018500000000  0.4410560000000  0.5281550000000 1.0
C      1  0.4596290000000  0.4570130000000  0.5281550000000 1.0
C      1  0.4410560000000  0.4981500000000  0.5281550000000 1.0
C      1  0.4570120000000  0.5403720000000  0.5281540000000 1.0
C      1  0.4981500000000  0.5589440000000  0.5281540000000 1.0
C      1  0.4988140000000  0.5377890000000  0.5473870000000 1.0
C      1  0.5258820000000  0.5275600000000  0.5473870000000 1.0
C      1  0.5377890000000  0.5011860000000  0.5473870000000 1.0
C      1  0.5275600000000  0.4741180000000  0.5473870000000 1.0
C      1  0.5011860000000  0.4622110000000  0.5473870000000 1.0
C      1  0.4741180000000  0.4724410000000  0.5473870000000 1.0
C      1  0.4622110000000  0.4988140000000  0.5473870000000 1.0
C      1  0.4724400000000  0.5258830000000  0.5473870000000 1.0
C      1  0.4724400000000  0.5258820000000  0.4526130000000 1.0
C      1  0.4988140000000  0.5377890000000  0.4526130000000 1.0
C      1  0.5258820000000  0.5275590000000  0.4526130000000 1.0
C      1  0.5377890000000  0.5011860000000  0.4526130000000 1.0
C      1  0.5275600000000  0.4741170000000  0.4526130000000 1.0
C      1  0.5011860000000  0.4622110000000  0.4526130000000 1.0
C      1  0.4741180000000  0.4724400000000  0.4526130000000 1.0
C      1  0.4622110000000  0.4988140000000  0.4526130000000 1.0
C      1  0.5018500000000  0.4410560000000  0.4718460000000 1.0
C      1  0.4596290000000  0.4570120000000  0.4718460000000 1.0
C      1  0.4410560000000  0.4981500000000  0.4718460000000 1.0
C      1  0.4570120000000  0.5403710000000  0.4718450000000 1.0
C      1  0.4981500000000  0.5589440000000  0.4718450000000 1.0
C      1  0.5403710000000  0.5429870000000  0.4718450000000 1.0
C      1  0.5589440000000  0.5018500000000  0.4718450000000 1.0
C      1  0.5429880000000  0.4596280000000  0.4718460000000 1.0
END
