TITL C-2441164-471-1240 0.206639230405309 125000 -21924.8338295808 0 0 180 (C1) n - 1
REM
REM in /home/bkarasulu/work/CARBON/AIRSS/Generating-Clusters/ReaxFF-fromJPCA2015/Units_Real/with-SteepDescent/Higher-Symm
REM
REM
REM
REM
REM
REM ./C.cell (1df0a924f5614ab8850e4351716899ee)
REM
REM compiler GCC version 9.2.1 20190827 (Red Hat 9.2.1-1)
REM options -cpp -mtune=generic -march=x86-64 -g -O0 -fpre-include=/usr/include/finclude/math-vector-fortran.h
REM seed 913499681 671693467 -1858465573 -49256677 -1886130234 -531553675 -2748068 -74953569 -2093159732 -454168689 -2032571523 -625506398 1743955382 -1808901464 567949869 1468625995 -1034547496 -1602364447 2078640092 1418155953 1935671406 993993569 2050641895 -585668179 1464023322 -135995802 -848526157 -390989409 -1509041861 387343409 -230690213 -1402015212 1155088459
REM
CELL 1.54180   50.00000   50.00000   50.00000   90.00000   90.00000   90.00000
LATT -1
SFAC C  
C      1  0.5177050000000  0.4882100000000  0.5926400000000 1.0
C      1  0.5971340000000  0.4875950000000  0.4790780000000 1.0
C      1  0.4825340000000  0.4871830000000  0.4106410000000 1.0
C      1  0.4072500000000  0.4917700000000  0.5172580000000 1.0
C      1  0.4259210000000  0.4618590000000  0.5653750000000 1.0
C      1  0.5646280000000  0.4614690000000  0.5737210000000 1.0
C      1  0.5817520000000  0.4595320000000  0.4459400000000 1.0
C      1  0.4355890000000  0.4611040000000  0.4254230000000 1.0
C      1  0.5199770000000  0.5595890000000  0.4136690000000 1.0
C      1  0.4154180000000  0.5612080000000  0.4835880000000 1.0
C      1  0.4851150000000  0.5582180000000  0.5898130000000 1.0
C      1  0.5811610000000  0.5664570000000  0.5182460000000 1.0
C      1  0.5292340000000  0.4553740000000  0.4640160000000 1.0
C      1  0.4564480000000  0.4635640000000  0.4768950000000 1.0
C      1  0.4817790000000  0.4626010000000  0.5397950000000 1.0
C      1  0.5431050000000  0.4602730000000  0.5265770000000 1.0
C      1  0.5592570000000  0.5860390000000  0.4704300000000 1.0
C      1  0.4714010000000  0.5851450000000  0.4402940000000 1.0
C      1  0.4382800000000  0.5824080000000  0.5287780000000 1.0
C      1  0.5261620000000  0.5826940000000  0.5601600000000 1.0
C      1  0.5617070000000  0.5768170000000  0.5393490000000 1.0
C      1  0.5376130000000  0.5770480000000  0.4349540000000 1.0
C      1  0.4360730000000  0.5760120000000  0.4605100000000 1.0
C      1  0.4640990000000  0.5830870000000  0.5611520000000 1.0
C      1  0.4955210000000  0.4575710000000  0.5139080000000 1.0
C      1  0.5238950000000  0.4533170000000  0.5067180000000 1.0
C      1  0.5021450000000  0.4575790000000  0.4557210000000 1.0
C      1  0.4720710000000  0.4530320000000  0.4972810000000 1.0
C      1  0.5115880000000  0.5976540000000  0.4781560000000 1.0
C      1  0.4796780000000  0.5989960000000  0.4848450000000 1.0
C      1  0.4852750000000  0.6008370000000  0.5181220000000 1.0
C      1  0.5182800000000  0.6000100000000  0.5141480000000 1.0
C      1  0.5386950000000  0.5381270000000  0.5224570000000 1.0
C      1  0.5287260000000  0.5381360000000  0.4548430000000 1.0
C      1  0.4612590000000  0.5403070000000  0.4710540000000 1.0
C      1  0.4718670000000  0.5394470000000  0.5391360000000 1.0
C      1  0.5117660000000  0.4279780000000  0.4229920000000 1.0
C      1  0.4231080000000  0.4273820000000  0.4895460000000 1.0
C      1  0.4884870000000  0.4280790000000  0.5770520000000 1.0
C      1  0.5753310000000  0.4256380000000  0.5126450000000 1.0
C      1  0.5582520000000  0.5030330000000  0.5069940000000 1.0
C      1  0.5111000000000  0.5030100000000  0.4438310000000 1.0
C      1  0.4408370000000  0.5043100000000  0.4944660000000 1.0
C      1  0.4945770000000  0.5025770000000  0.5597800000000 1.0
C      1  0.4768190000000  0.4965040000000  0.5111200000000 1.0
C      1  0.5170430000000  0.4962830000000  0.5192310000000 1.0
C      1  0.5199250000000  0.4955550000000  0.4898280000000 1.0
C      1  0.4871430000000  0.4941360000000  0.4843140000000 1.0
C      1  0.5148460000000  0.5089020000000  0.3952440000000 1.0
C      1  0.3971910000000  0.5109540000000  0.4787980000000 1.0
C      1  0.4831150000000  0.5089320000000  0.6032180000000 1.0
C      1  0.6033340000000  0.5103860000000  0.5219180000000 1.0
C      1  0.5289300000000  0.4276330000000  0.4746400000000 1.0
C      1  0.4774490000000  0.4236020000000  0.4707490000000 1.0
C      1  0.4720670000000  0.4228030000000  0.5240060000000 1.0
C      1  0.5230380000000  0.4285850000000  0.5390430000000 1.0
C      1  0.4622220000000  0.4810700000000  0.5296050000000 1.0
C      1  0.5297310000000  0.4823540000000  0.5393900000000 1.0
C      1  0.5400570000000  0.4786020000000  0.4753390000000 1.0
C      1  0.4739810000000  0.4801640000000  0.4614860000000 1.0
C      1  0.4037490000000  0.4720830000000  0.5518160000000 1.0
C      1  0.5543210000000  0.4756230000000  0.5962920000000 1.0
C      1  0.5934050000000  0.4848340000000  0.4351700000000 1.0
C      1  0.4477460000000  0.4722140000000  0.4026930000000 1.0
C      1  0.4365280000000  0.5262560000000  0.5125360000000 1.0
C      1  0.5126520000000  0.5250170000000  0.5613720000000 1.0
C      1  0.5655000000000  0.5231510000000  0.4891360000000 1.0
C      1  0.4919980000000  0.5240850000000  0.4363790000000 1.0
C      1  0.5374270000000  0.4221620000000  0.5645870000000 1.0
C      1  0.5657180000000  0.4200870000000  0.4617760000000 1.0
C      1  0.4605900000000  0.4205820000000  0.4329250000000 1.0
C      1  0.4338280000000  0.4225360000000  0.5387270000000 1.0
C      1  0.5583980000000  0.5630240000000  0.4517420000000 1.0
C      1  0.4529710000000  0.5580320000000  0.4465650000000 1.0
C      1  0.4461590000000  0.5612470000000  0.5475510000000 1.0
C      1  0.5480130000000  0.5630730000000  0.5608110000000 1.0
C      1  0.5159700000000  0.4087070000000  0.4437840000000 1.0
C      1  0.4441070000000  0.4081910000000  0.4842890000000 1.0
C      1  0.4828730000000  0.4059920000000  0.5578320000000 1.0
C      1  0.5507350000000  0.4096380000000  0.5133220000000 1.0
C      1  0.5774310000000  0.4351190000000  0.4852600000000 1.0
C      1  0.4823350000000  0.4356520000000  0.4197210000000 1.0
C      1  0.4210700000000  0.4380150000000  0.5171850000000 1.0
C      1  0.5146200000000  0.4414290000000  0.5783430000000 1.0
C      1  0.4837670000000  0.5242660000000  0.5151660000000 1.0
C      1  0.5137260000000  0.5236790000000  0.5259320000000 1.0
C      1  0.5174600000000  0.5243160000000  0.4781020000000 1.0
C      1  0.4881900000000  0.5257090000000  0.4816410000000 1.0
C      1  0.5682120000000  0.5291590000000  0.4194970000000 1.0
C      1  0.4142670000000  0.5325230000000  0.4343930000000 1.0
C      1  0.4365880000000  0.5333060000000  0.5866040000000 1.0
C      1  0.5847060000000  0.5289810000000  0.5664290000000 1.0
C      1  0.5795110000000  0.4383420000000  0.5387950000000 1.0
C      1  0.5386400000000  0.4404480000000  0.4213190000000 1.0
C      1  0.4195460000000  0.4383310000000  0.4623380000000 1.0
C      1  0.4616590000000  0.4393310000000  0.5814380000000 1.0
C      1  0.4127930000000  0.5411290000000  0.5052770000000 1.0
C      1  0.5096720000000  0.5446900000000  0.5863150000000 1.0
C      1  0.5861340000000  0.5438980000000  0.4972220000000 1.0
C      1  0.4929750000000  0.5474310000000  0.4167650000000 1.0
C      1  0.5603610000000  0.5204700000000  0.5303190000000 1.0
C      1  0.5407570000000  0.5292070000000  0.4291680000000 1.0
C      1  0.4423910000000  0.5185570000000  0.4695570000000 1.0
C      1  0.4707730000000  0.5183820000000  0.5601610000000 1.0
C      1  0.4572090000000  0.4655740000000  0.5924160000000 1.0
C      1  0.5919930000000  0.4642830000000  0.5419200000000 1.0
C      1  0.5430970000000  0.4663260000000  0.4093810000000 1.0
C      1  0.4084930000000  0.4646400000000  0.4572450000000 1.0
C      1  0.4327240000000  0.4775500000000  0.4877680000000 1.0
C      1  0.4930010000000  0.4740630000000  0.5650470000000 1.0
C      1  0.5655850000000  0.4761210000000  0.5130100000000 1.0
C      1  0.5076640000000  0.4771240000000  0.4307710000000 1.0
C      1  0.4577780000000  0.5945590000000  0.4640700000000 1.0
C      1  0.4617850000000  0.5979690000000  0.5364970000000 1.0
C      1  0.5370880000000  0.5955390000000  0.5369660000000 1.0
C      1  0.5338360000000  0.5959750000000  0.4579040000000 1.0
C      1  0.4723480000000  0.4588510000000  0.4057100000000 1.0
C      1  0.4063220000000  0.4630680000000  0.5244640000000 1.0
C      1  0.5282010000000  0.4612670000000  0.5944450000000 1.0
C      1  0.5886170000000  0.4590870000000  0.4735410000000 1.0
C      1  0.5108150000000  0.5093320000000  0.6096810000000 1.0
C      1  0.6065040000000  0.5093600000000  0.4940370000000 1.0
C      1  0.4865160000000  0.5082630000000  0.3912140000000 1.0
C      1  0.3956580000000  0.5175010000000  0.5070910000000 1.0
C      1  0.4419540000000  0.5393230000000  0.4275230000000 1.0
C      1  0.4288660000000  0.5408010000000  0.5595470000000 1.0
C      1  0.5586650000000  0.5396130000000  0.5729890000000 1.0
C      1  0.5752950000000  0.5407920000000  0.4447400000000 1.0
C      1  0.4042670000000  0.5001710000000  0.5438040000000 1.0
C      1  0.5385910000000  0.5041010000000  0.5982210000000 1.0
C      1  0.5937700000000  0.5021410000000  0.4570490000000 1.0
C      1  0.4598690000000  0.5018370000000  0.4038630000000 1.0
C      1  0.5896050000000  0.5317900000000  0.5372270000000 1.0
C      1  0.5303080000000  0.5333560000000  0.4033070000000 1.0
C      1  0.4119150000000  0.5321810000000  0.4646110000000 1.0
C      1  0.4679710000000  0.5323340000000  0.5912240000000 1.0
C      1  0.4992930000000  0.5818500000000  0.4420190000000 1.0
C      1  0.4353500000000  0.5756650000000  0.5007100000000 1.0
C      1  0.4935070000000  0.5769550000000  0.5657120000000 1.0
C      1  0.5621820000000  0.5776580000000  0.4981530000000 1.0
C      1  0.5427100000000  0.4963150000000  0.4524620000000 1.0
C      1  0.4523110000000  0.4984720000000  0.4505610000000 1.0
C      1  0.4513680000000  0.4982740000000  0.5509950000000 1.0
C      1  0.5506680000000  0.4996810000000  0.5500670000000 1.0
C      1  0.4384690000000  0.4368530000000  0.5632560000000 1.0
C      1  0.5626250000000  0.4364180000000  0.5618580000000 1.0
C      1  0.5629930000000  0.4375060000000  0.4386770000000 1.0
C      1  0.4365720000000  0.4355450000000  0.4384770000000 1.0
C      1  0.4806430000000  0.5691830000000  0.4945040000000 1.0
C      1  0.4924750000000  0.5710540000000  0.5196830000000 1.0
C      1  0.5192690000000  0.5711140000000  0.5048310000000 1.0
C      1  0.5065720000000  0.5687500000000  0.4803890000000 1.0
C      1  0.5325750000000  0.4283750000000  0.5002310000000 1.0
C      1  0.5018630000000  0.4264720000000  0.4630910000000 1.0
C      1  0.4663070000000  0.4249760000000  0.4968920000000 1.0
C      1  0.4971610000000  0.4162670000000  0.5346820000000 1.0
C      1  0.4225600000000  0.5087240000000  0.5854920000000 1.0
C      1  0.5820820000000  0.5030690000000  0.5815240000000 1.0
C      1  0.5774550000000  0.5009390000000  0.4167450000000 1.0
C      1  0.4161120000000  0.5071290000000  0.4209990000000 1.0
C      1  0.4581000000000  0.4059070000000  0.5412500000000 1.0
C      1  0.5391650000000  0.4047990000000  0.5390710000000 1.0
C      1  0.5413430000000  0.4051510000000  0.4573460000000 1.0
C      1  0.4593240000000  0.4059650000000  0.4588710000000 1.0
C      1  0.5406030000000  0.5176510000000  0.5711570000000 1.0
C      1  0.5692040000000  0.5166100000000  0.4606200000000 1.0
C      1  0.4606940000000  0.5164420000000  0.4295230000000 1.0
C      1  0.4303170000000  0.5174950000000  0.5418610000000 1.0
C      1  0.5203940000000  0.4815050000000  0.4039210000000 1.0
C      1  0.4054110000000  0.4826380000000  0.4781430000000 1.0
C      1  0.4794820000000  0.4818090000000  0.5920750000000 1.0
C      1  0.5930280000000  0.4814290000000  0.5201780000000 1.0
C      1  0.5749530000000  0.4826650000000  0.5583710000000 1.0
C      1  0.5537390000000  0.4874610000000  0.4266230000000 1.0
C      1  0.4261910000000  0.4835330000000  0.4411620000000 1.0
C      1  0.4407450000000  0.4828680000000  0.5751650000000 1.0
C      1  0.5063380000000  0.5565620000000  0.4542190000000 1.0
C      1  0.4557420000000  0.5550760000000  0.4952480000000 1.0
C      1  0.4940130000000  0.5565310000000  0.5442480000000 1.0
C      1  0.5428190000000  0.5581160000000  0.5054840000000 1.0
END
