TITL C-2441164-471-1274 0.0933507080434813 125000 -14530.1179901682 0 0 117 (C1) n - 1
REM
REM in /home/bkarasulu/work/CARBON/AIRSS/Generating-Clusters/ReaxFF-fromJPCA2015/Units_Real/with-SteepDescent/Higher-Symm
REM
REM
REM
REM
REM
REM ./C.cell (1df0a924f5614ab8850e4351716899ee)
REM
REM compiler GCC version 9.2.1 20190827 (Red Hat 9.2.1-1)
REM options -cpp -mtune=generic -march=x86-64 -g -O0 -fpre-include=/usr/include/finclude/math-vector-fortran.h
REM seed -814169588 -888370261 1539450927 1070683761 -1246518981 -989947915 1170855849 -1193609450 1449042723 952200718 280738524 1111884927 -496652445 -1954260276 -724499554 -46146647 -913488387 -1244983958 -1088824475 -165879527 1681516438 -836530102 1822835121 1360893796 -170609272 -2079481289 1959944225 -56979107 -1354302123 1062025274 1948631791 2116957494 -1061602476
REM
CELL 1.54180   50.00000   50.00000   50.00000   90.00000   90.00000   90.00000
LATT -1
SFAC C  
C      1  0.4154560000000  0.4976100000000  0.4667980000000 1.0
C      1  0.5859120000000  0.4947660000000  0.5335290000000 1.0
C      1  0.4234190000000  0.5506330000000  0.5048520000000 1.0
C      1  0.5736440000000  0.5592670000000  0.4874660000000 1.0
C      1  0.5329440000000  0.4894210000000  0.4559810000000 1.0
C      1  0.4676030000000  0.4963450000000  0.5427890000000 1.0
C      1  0.4669270000000  0.5702820000000  0.5218350000000 1.0
C      1  0.5281030000000  0.5711300000000  0.4875150000000 1.0
C      1  0.4399730000000  0.5153620000000  0.5717720000000 1.0
C      1  0.5608940000000  0.5080600000000  0.4314280000000 1.0
C      1  0.5835610000000  0.5112210000000  0.4656720000000 1.0
C      1  0.4192710000000  0.5123950000000  0.5358460000000 1.0
C      1  0.4957920000000  0.4769050000000  0.4856910000000 1.0
C      1  0.4969240000000  0.4836000000000  0.5143020000000 1.0
C      1  0.5585630000000  0.5459210000000  0.4663490000000 1.0
C      1  0.4457380000000  0.5524000000000  0.5296620000000 1.0
C      1  0.5100140000000  0.4756480000000  0.5639280000000 1.0
C      1  0.4894320000000  0.4783350000000  0.4342820000000 1.0
C      1  0.4381390000000  0.4685550000000  0.5605560000000 1.0
C      1  0.5547330000000  0.4692620000000  0.4450450000000 1.0
C      1  0.5056660000000  0.5814810000000  0.5345290000000 1.0
C      1  0.4946650000000  0.5841440000000  0.4622200000000 1.0
C      1  0.4217690000000  0.4731510000000  0.5096920000000 1.0
C      1  0.5795300000000  0.4735240000000  0.4847180000000 1.0
C      1  0.5509610000000  0.5629820000000  0.5026050000000 1.0
C      1  0.4434410000000  0.5458710000000  0.4847760000000 1.0
C      1  0.4309860000000  0.4454740000000  0.5144830000000 1.0
C      1  0.5728390000000  0.4432360000000  0.4855170000000 1.0
C      1  0.4839650000000  0.5584900000000  0.5703790000000 1.0
C      1  0.5121190000000  0.5575280000000  0.4338810000000 1.0
C      1  0.4239700000000  0.5628180000000  0.4765990000000 1.0
C      1  0.5749110000000  0.5638110000000  0.5148580000000 1.0
C      1  0.4637180000000  0.5112290000000  0.4556860000000 1.0
C      1  0.5349850000000  0.5067060000000  0.5461300000000 1.0
C      1  0.5608860000000  0.4336420000000  0.5119580000000 1.0
C      1  0.4368630000000  0.4353650000000  0.4877560000000 1.0
C      1  0.5953190000000  0.4911110000000  0.5055570000000 1.0
C      1  0.4075960000000  0.4940160000000  0.4946510000000 1.0
C      1  0.5213260000000  0.5395930000000  0.5266510000000 1.0
C      1  0.4811120000000  0.5318900000000  0.4708190000000 1.0
C      1  0.4946700000000  0.5323860000000  0.5342180000000 1.0
C      1  0.5100700000000  0.5306380000000  0.4635790000000 1.0
C      1  0.5790240000000  0.4897370000000  0.4457920000000 1.0
C      1  0.4246170000000  0.4944280000000  0.5579740000000 1.0
C      1  0.4131140000000  0.5198880000000  0.5083120000000 1.0
C      1  0.5847380000000  0.5149440000000  0.4937320000000 1.0
C      1  0.5255080000000  0.5340650000000  0.4366920000000 1.0
C      1  0.4760490000000  0.5353360000000  0.5569600000000 1.0
C      1  0.5210420000000  0.5740370000000  0.4583810000000 1.0
C      1  0.4800280000000  0.5765720000000  0.5466210000000 1.0
C      1  0.4744990000000  0.5184010000000  0.4292450000000 1.0
C      1  0.5236240000000  0.5198040000000  0.5696380000000 1.0
C      1  0.5122180000000  0.5105140000000  0.4176830000000 1.0
C      1  0.4879940000000  0.5090810000000  0.5885950000000 1.0
C      1  0.5314720000000  0.4350840000000  0.4729830000000 1.0
C      1  0.4671180000000  0.4328350000000  0.5293210000000 1.0
C      1  0.4645330000000  0.4574430000000  0.4570800000000 1.0
C      1  0.5325810000000  0.4606760000000  0.5384290000000 1.0
C      1  0.4881890000000  0.4522220000000  0.4211430000000 1.0
C      1  0.5077670000000  0.4599900000000  0.5848720000000 1.0
C      1  0.4847540000000  0.5472230000000  0.4294710000000 1.0
C      1  0.5120250000000  0.5477790000000  0.5731820000000 1.0
C      1  0.5106830000000  0.4097990000000  0.5081140000000 1.0
C      1  0.4896890000000  0.4055010000000  0.4873840000000 1.0
C      1  0.4484870000000  0.4524110000000  0.5364220000000 1.0
C      1  0.5566700000000  0.4431300000000  0.4620240000000 1.0
C      1  0.4226570000000  0.4735360000000  0.4512710000000 1.0
C      1  0.5757940000000  0.4719200000000  0.5486200000000 1.0
C      1  0.5383260000000  0.4692390000000  0.4193970000000 1.0
C      1  0.4599490000000  0.4691110000000  0.5782270000000 1.0
C      1  0.5499010000000  0.4682880000000  0.5610530000000 1.0
C      1  0.4486410000000  0.4702940000000  0.4361730000000 1.0
C      1  0.4251480000000  0.4555210000000  0.4725790000000 1.0
C      1  0.5698820000000  0.4592190000000  0.5225070000000 1.0
C      1  0.5186960000000  0.5137620000000  0.4843590000000 1.0
C      1  0.4909420000000  0.5129790000000  0.5141150000000 1.0
C      1  0.4343380000000  0.5205620000000  0.4602730000000 1.0
C      1  0.5646150000000  0.5150000000000  0.5367130000000 1.0
C      1  0.4662020000000  0.4232120000000  0.4797820000000 1.0
C      1  0.5353160000000  0.4204540000000  0.5216170000000 1.0
C      1  0.5097420000000  0.4949220000000  0.4417450000000 1.0
C      1  0.4907740000000  0.4983170000000  0.5600270000000 1.0
C      1  0.4480930000000  0.5137810000000  0.5310090000000 1.0
C      1  0.5545350000000  0.5174250000000  0.4612480000000 1.0
C      1  0.4665170000000  0.4882920000000  0.4210760000000 1.0
C      1  0.5313450000000  0.4809240000000  0.5790760000000 1.0
C      1  0.5182540000000  0.4336690000000  0.5413930000000 1.0
C      1  0.4836150000000  0.4373220000000  0.4478690000000 1.0
C      1  0.4482020000000  0.5416660000000  0.5583180000000 1.0
C      1  0.5505370000000  0.5506240000000  0.4397690000000 1.0
C      1  0.5394230000000  0.5544770000000  0.5425520000000 1.0
C      1  0.4668760000000  0.5588770000000  0.4742110000000 1.0
C      1  0.4699480000000  0.4816140000000  0.4733580000000 1.0
C      1  0.5229320000000  0.4858930000000  0.5289650000000 1.0
C      1  0.4484900000000  0.5111090000000  0.5033300000000 1.0
C      1  0.5577330000000  0.5107460000000  0.5072690000000 1.0
C      1  0.4500280000000  0.4817700000000  0.5012560000000 1.0
C      1  0.5564070000000  0.4778540000000  0.5022920000000 1.0
C      1  0.4240130000000  0.5489100000000  0.4512730000000 1.0
C      1  0.5707650000000  0.5473290000000  0.5420310000000 1.0
C      1  0.4682750000000  0.4763440000000  0.5237940000000 1.0
C      1  0.5228990000000  0.4850310000000  0.4806930000000 1.0
C      1  0.4594480000000  0.4983080000000  0.5866460000000 1.0
C      1  0.5384880000000  0.4980190000000  0.4137670000000 1.0
C      1  0.5127570000000  0.4374500000000  0.4512080000000 1.0
C      1  0.4891620000000  0.4355900000000  0.5488010000000 1.0
C      1  0.4821050000000  0.5761670000000  0.4924380000000 1.0
C      1  0.5071940000000  0.5744140000000  0.5055900000000 1.0
C      1  0.4829900000000  0.4497970000000  0.5737330000000 1.0
C      1  0.5175710000000  0.4501070000000  0.4256020000000 1.0
C      1  0.4737060000000  0.5210880000000  0.4963370000000 1.0
C      1  0.5325450000000  0.5254820000000  0.5048340000000 1.0
C      1  0.5218360000000  0.5706160000000  0.5573240000000 1.0
C      1  0.4757090000000  0.5694200000000  0.4464610000000 1.0
C      1  0.4753550000000  0.4405060000000  0.5020350000000 1.0
C      1  0.5269660000000  0.4530140000000  0.4959740000000 1.0
C      1  0.5032970000000  0.4395950000000  0.5040250000000 1.0
END
