TITL C-2441155-8282-73 0.153241031004091 125000 -18506.9445595914 0 0 144 (C1) n - 1
REM
REM in /home/bkarasulu/work/CARBON/AIRSS/Generating-Clusters/ReaxFF-fromJPCA2015/Units_Real/with-SteepDescent/Higher-Symm
REM
REM
REM
REM
REM
REM ./C.cell (1df0a924f5614ab8850e4351716899ee)
REM
REM compiler GCC version 9.2.1 20190827 (Red Hat 9.2.1-1)
REM options -cpp -mtune=generic -march=x86-64 -g -O0 -fpre-include=/usr/include/finclude/math-vector-fortran.h
REM seed -1031784529 816024388 1935575609 680543818 447148891 -1055643483 1330899012 -779749521 2023587736 1681137767 -1768195172 -1811695761 159600820 1170048054 -418599211 -7162903 160505465 1565902206 -367035955 851743047 1459170964 -1780261325 -1902093797 1600324613 -859756368 -2036208059 -1960850951 -1008716523 966270686 -953100647 -760040247 2133754335 -383285326
REM
CELL 1.54180   50.00000   50.00000   50.00000   90.00000   90.00000   90.00000
LATT -1
SFAC C  
C      1  0.5580060000000  0.4871910000000  0.4344310000000 1.0
C      1  0.5569580000000  0.4366830000000  0.4783800000000 1.0
C      1  0.5577840000000  0.4502490000000  0.5440930000000 1.0
C      1  0.5587650000000  0.5152010000000  0.5675650000000 1.0
C      1  0.5598930000000  0.5644920000000  0.5200770000000 1.0
C      1  0.5568680000000  0.5489460000000  0.4538520000000 1.0
C      1  0.5589830000000  0.5136890000000  0.4336800000000 1.0
C      1  0.5527280000000  0.5618420000000  0.4787240000000 1.0
C      1  0.5574720000000  0.5505270000000  0.5436660000000 1.0
C      1  0.5569470000000  0.4877110000000  0.5656440000000 1.0
C      1  0.5551650000000  0.4367710000000  0.5203560000000 1.0
C      1  0.5573080000000  0.4502380000000  0.4549240000000 1.0
C      1  0.4376250000000  0.4852990000000  0.4059490000000 1.0
C      1  0.4375820000000  0.4114230000000  0.4656700000000 1.0
C      1  0.4374280000000  0.4264550000000  0.5595260000000 1.0
C      1  0.4374150000000  0.5150670000000  0.5955270000000 1.0
C      1  0.4373150000000  0.5891300000000  0.5344090000000 1.0
C      1  0.4374380000000  0.5735910000000  0.4403700000000 1.0
C      1  0.4373000000000  0.5151400000000  0.4046340000000 1.0
C      1  0.4372380000000  0.5900460000000  0.4653070000000 1.0
C      1  0.4372630000000  0.5737520000000  0.5596150000000 1.0
C      1  0.4378130000000  0.4850200000000  0.5954540000000 1.0
C      1  0.4373560000000  0.4100150000000  0.5344270000000 1.0
C      1  0.4372770000000  0.4252180000000  0.4392560000000 1.0
C      1  0.4436600000000  0.4663970000000  0.4659700000000 1.0
C      1  0.4439810000000  0.4550040000000  0.5114960000000 1.0
C      1  0.4381600000000  0.4866830000000  0.5484480000000 1.0
C      1  0.4324900000000  0.5334020000000  0.5333290000000 1.0
C      1  0.4444330000000  0.5457010000000  0.4873450000000 1.0
C      1  0.4442100000000  0.5127520000000  0.4534090000000 1.0
C      1  0.4314280000000  0.5326070000000  0.4673930000000 1.0
C      1  0.4360890000000  0.5480080000000  0.5134040000000 1.0
C      1  0.4454360000000  0.5121060000000  0.5458330000000 1.0
C      1  0.4318790000000  0.4666600000000  0.5328680000000 1.0
C      1  0.4311180000000  0.4548980000000  0.4873750000000 1.0
C      1  0.4323570000000  0.4884190000000  0.4541360000000 1.0
C      1  0.5582770000000  0.5890360000000  0.4661040000000 1.0
C      1  0.5577790000000  0.5155060000000  0.4048420000000 1.0
C      1  0.5599120000000  0.4252940000000  0.4401640000000 1.0
C      1  0.5585800000000  0.4102730000000  0.5342440000000 1.0
C      1  0.5578540000000  0.4847030000000  0.5947720000000 1.0
C      1  0.5573490000000  0.5744300000000  0.5602620000000 1.0
C      1  0.5586140000000  0.4108300000000  0.4659180000000 1.0
C      1  0.5574630000000  0.4853490000000  0.4051730000000 1.0
C      1  0.5590130000000  0.5744440000000  0.4411310000000 1.0
C      1  0.5574190000000  0.5895640000000  0.5343250000000 1.0
C      1  0.5587180000000  0.5143830000000  0.5963810000000 1.0
C      1  0.5585040000000  0.4259280000000  0.5594950000000 1.0
C      1  0.4872020000000  0.5361570000000  0.5927630000000 1.0
C      1  0.4869630000000  0.5980620000000  0.5147770000000 1.0
C      1  0.4875260000000  0.5618560000000  0.4222090000000 1.0
C      1  0.4874110000000  0.4635560000000  0.4076750000000 1.0
C      1  0.4874380000000  0.4020470000000  0.4851380000000 1.0
C      1  0.4874400000000  0.4382920000000  0.5771830000000 1.0
C      1  0.4872200000000  0.4635540000000  0.5927290000000 1.0
C      1  0.4876460000000  0.4024630000000  0.5153110000000 1.0
C      1  0.4878650000000  0.4378770000000  0.4232480000000 1.0
C      1  0.4875910000000  0.5355740000000  0.4078380000000 1.0
C      1  0.4877460000000  0.5969520000000  0.4848240000000 1.0
C      1  0.4870310000000  0.5619610000000  0.5776420000000 1.0
C      1  0.5133360000000  0.5878880000000  0.5221950000000 1.0
C      1  0.5130880000000  0.5627810000000  0.4352380000000 1.0
C      1  0.5131550000000  0.4751890000000  0.4126300000000 1.0
C      1  0.5133520000000  0.4118830000000  0.4776480000000 1.0
C      1  0.5135270000000  0.4370290000000  0.5639790000000 1.0
C      1  0.5138140000000  0.5242990000000  0.5892770000000 1.0
C      1  0.5144030000000  0.4111910000000  0.5228170000000 1.0
C      1  0.5140000000000  0.4367970000000  0.4368030000000 1.0
C      1  0.5139080000000  0.5235440000000  0.4137740000000 1.0
C      1  0.5142720000000  0.5878280000000  0.4769410000000 1.0
C      1  0.5132200000000  0.5633460000000  0.5649120000000 1.0
C      1  0.5131580000000  0.4757240000000  0.5875080000000 1.0
C      1  0.5384230000000  0.5372200000000  0.4055280000000 1.0
C      1  0.5400620000000  0.4372450000000  0.4221120000000 1.0
C      1  0.5397310000000  0.3988770000000  0.5153420000000 1.0
C      1  0.5385320000000  0.4626640000000  0.5942250000000 1.0
C      1  0.5382930000000  0.5637530000000  0.5794280000000 1.0
C      1  0.5391950000000  0.6009530000000  0.4845190000000 1.0
C      1  0.5382730000000  0.4634560000000  0.4054460000000 1.0
C      1  0.5388060000000  0.5630850000000  0.4217170000000 1.0
C      1  0.5382850000000  0.6005740000000  0.5147950000000 1.0
C      1  0.5397710000000  0.5370950000000  0.5945780000000 1.0
C      1  0.5387800000000  0.4372060000000  0.5785950000000 1.0
C      1  0.5383190000000  0.3997420000000  0.4847400000000 1.0
C      1  0.5839380000000  0.4604400000000  0.5388900000000 1.0
C      1  0.5843100000000  0.5131660000000  0.5519060000000 1.0
C      1  0.5847430000000  0.5517630000000  0.5127620000000 1.0
C      1  0.5838450000000  0.5399350000000  0.4612430000000 1.0
C      1  0.5822220000000  0.4857870000000  0.4502930000000 1.0
C      1  0.5811250000000  0.4496530000000  0.4865840000000 1.0
C      1  0.5825040000000  0.5365660000000  0.5365210000000 1.0
C      1  0.5803550000000  0.4853710000000  0.5499770000000 1.0
C      1  0.5828230000000  0.4484560000000  0.5136460000000 1.0
C      1  0.5852060000000  0.4604870000000  0.4601840000000 1.0
C      1  0.5828970000000  0.5142720000000  0.4494330000000 1.0
C      1  0.5782630000000  0.5493800000000  0.4870700000000 1.0
C      1  0.4669920000000  0.4260750000000  0.5601190000000 1.0
C      1  0.4674380000000  0.5149680000000  0.5953420000000 1.0
C      1  0.4668820000000  0.5897050000000  0.5343020000000 1.0
C      1  0.4668580000000  0.5742500000000  0.4397310000000 1.0
C      1  0.4669700000000  0.4850550000000  0.4055030000000 1.0
C      1  0.4669440000000  0.4107770000000  0.4656570000000 1.0
C      1  0.4667960000000  0.5741510000000  0.5603210000000 1.0
C      1  0.4672200000000  0.4849520000000  0.5953580000000 1.0
C      1  0.4674360000000  0.4101230000000  0.5348190000000 1.0
C      1  0.4674080000000  0.4249470000000  0.4392370000000 1.0
C      1  0.4674380000000  0.5150210000000  0.4044920000000 1.0
C      1  0.4673240000000  0.5899310000000  0.4650250000000 1.0
C      1  0.5111890000000  0.4441960000000  0.4833390000000 1.0
C      1  0.5118540000000  0.4533450000000  0.5391480000000 1.0
C      1  0.5170260000000  0.5161090000000  0.5612060000000 1.0
C      1  0.5124260000000  0.5597430000000  0.5116320000000 1.0
C      1  0.5113960000000  0.5404470000000  0.4580350000000 1.0
C      1  0.5128680000000  0.4845700000000  0.4441020000000 1.0
C      1  0.5223890000000  0.5593900000000  0.4838350000000 1.0
C      1  0.5128280000000  0.5399040000000  0.5455910000000 1.0
C      1  0.5106430000000  0.4885270000000  0.5606070000000 1.0
C      1  0.5218270000000  0.4395240000000  0.5153910000000 1.0
C      1  0.5166630000000  0.4569490000000  0.4572110000000 1.0
C      1  0.5152520000000  0.5152390000000  0.4417640000000 1.0
C      1  0.4234670000000  0.4758830000000  0.4300590000000 1.0
C      1  0.4231680000000  0.4274210000000  0.4859210000000 1.0
C      1  0.4220890000000  0.4510660000000  0.5554330000000 1.0
C      1  0.4252010000000  0.5243810000000  0.5715380000000 1.0
C      1  0.4236460000000  0.5732950000000  0.5137220000000 1.0
C      1  0.4232840000000  0.5480240000000  0.4444660000000 1.0
C      1  0.4248310000000  0.5246880000000  0.4285160000000 1.0
C      1  0.4252650000000  0.5741060000000  0.4856360000000 1.0
C      1  0.4230790000000  0.5480060000000  0.5564440000000 1.0
C      1  0.4244700000000  0.4759130000000  0.5711550000000 1.0
C      1  0.4249640000000  0.4254150000000  0.5139370000000 1.0
C      1  0.4248250000000  0.4506870000000  0.4428330000000 1.0
C      1  0.4847100000000  0.4873910000000  0.5488530000000 1.0
C      1  0.4867870000000  0.5344430000000  0.5348060000000 1.0
C      1  0.4731260000000  0.5455880000000  0.4866510000000 1.0
C      1  0.4751270000000  0.5134740000000  0.4515940000000 1.0
C      1  0.4731720000000  0.4660400000000  0.4659330000000 1.0
C      1  0.4727250000000  0.4550540000000  0.5109650000000 1.0
C      1  0.4731540000000  0.5125140000000  0.5448460000000 1.0
C      1  0.4865550000000  0.4649460000000  0.5330050000000 1.0
C      1  0.4850270000000  0.4532340000000  0.4872010000000 1.0
C      1  0.4861640000000  0.4874460000000  0.4535460000000 1.0
C      1  0.4856260000000  0.5349100000000  0.4657420000000 1.0
C      1  0.4858090000000  0.5491040000000  0.5114850000000 1.0
END
