TITL C-2441159-1093-1169 0.0686451901518011 125000 -21501.3057607632 0 0 153 (C1) n - 1
REM
REM in /home/bkarasulu/work/CARBON/AIRSS/Generating-Clusters/ReaxFF-fromJPCA2015/Units_Real/with-SteepDescent/Higher-Symm
REM
REM
REM
REM
REM
REM ./C.cell (1df0a924f5614ab8850e4351716899ee)
REM
REM compiler GCC version 9.2.1 20190827 (Red Hat 9.2.1-1)
REM options -cpp -mtune=generic -march=x86-64 -g -O0 -fpre-include=/usr/include/finclude/math-vector-fortran.h
REM seed -701696277 -870634588 1064027394 -167667871 1612069710 -1536521884 -1876723402 -1106922343 1071743474 1845107306 -393610588 1112585078 1722894854 264916388 355735962 -986314486 -2037364549 -1384937511 606383151 432882271 -1356654478 -339035417 -666810942 2099212707 1741306300 1476434875 -1245778885 1175591236 2098740280 -505354927 -1060954804 -276327461 -524401663
REM
CELL 1.54180   50.00000   50.00000   50.00000   90.00000   90.00000   90.00000
LATT -1
SFAC C  
C      1  0.4209810000000  0.5692320000000  0.4867360000000 1.0
C      1  0.4772850000000  0.3952970000000  0.4899080000000 1.0
C      1  0.6027890000000  0.5372820000000  0.4849400000000 1.0
C      1  0.4204680000000  0.5664320000000  0.5141490000000 1.0
C      1  0.4828850000000  0.3930590000000  0.5160850000000 1.0
C      1  0.5994440000000  0.5322250000000  0.5127350000000 1.0
C      1  0.4196090000000  0.4328750000000  0.4860510000000 1.0
C      1  0.4863380000000  0.6050480000000  0.4865270000000 1.0
C      1  0.5994230000000  0.4652190000000  0.4865390000000 1.0
C      1  0.4233120000000  0.4291950000000  0.5122720000000 1.0
C      1  0.4749160000000  0.6031110000000  0.5117500000000 1.0
C      1  0.5961490000000  0.4599890000000  0.5130010000000 1.0
C      1  0.4769040000000  0.5688100000000  0.4270930000000 1.0
C      1  0.4526350000000  0.4452090000000  0.4283490000000 1.0
C      1  0.5712960000000  0.4861020000000  0.4290630000000 1.0
C      1  0.4814620000000  0.5655750000000  0.5731670000000 1.0
C      1  0.4510200000000  0.4479170000000  0.5712470000000 1.0
C      1  0.5703810000000  0.4849390000000  0.5721160000000 1.0
C      1  0.4775620000000  0.4311620000000  0.4280780000000 1.0
C      1  0.4520660000000  0.5546030000000  0.4279220000000 1.0
C      1  0.5708820000000  0.5145940000000  0.4287710000000 1.0
C      1  0.4753360000000  0.4322190000000  0.5736570000000 1.0
C      1  0.4558670000000  0.5526010000000  0.5728990000000 1.0
C      1  0.5628040000000  0.5125200000000  0.5707210000000 1.0
C      1  0.5630750000000  0.5179860000000  0.4827010000000 1.0
C      1  0.4554500000000  0.5489710000000  0.4887700000000 1.0
C      1  0.4794850000000  0.4357600000000  0.4835080000000 1.0
C      1  0.5601660000000  0.5226390000000  0.5111030000000 1.0
C      1  0.4618350000000  0.5498750000000  0.5162050000000 1.0
C      1  0.4871460000000  0.4360820000000  0.5132370000000 1.0
C      1  0.5675310000000  0.4899480000000  0.4861590000000 1.0
C      1  0.4560420000000  0.4514140000000  0.4884760000000 1.0
C      1  0.4776820000000  0.5654310000000  0.4830640000000 1.0
C      1  0.5661670000000  0.4915510000000  0.5156190000000 1.0
C      1  0.4606600000000  0.4495800000000  0.5163270000000 1.0
C      1  0.4877310000000  0.5637540000000  0.5127920000000 1.0
C      1  0.5209020000000  0.5195520000000  0.5292370000000 1.0
C      1  0.4765410000000  0.5141700000000  0.5376510000000 1.0
C      1  0.5004990000000  0.4681710000000  0.5429680000000 1.0
C      1  0.5211120000000  0.5134800000000  0.4640960000000 1.0
C      1  0.4696170000000  0.5161130000000  0.4630990000000 1.0
C      1  0.5005880000000  0.4711910000000  0.4642510000000 1.0
C      1  0.5234640000000  0.4784020000000  0.5303130000000 1.0
C      1  0.4769470000000  0.4845440000000  0.5381180000000 1.0
C      1  0.4995170000000  0.5312270000000  0.5434680000000 1.0
C      1  0.5245820000000  0.4849430000000  0.4663440000000 1.0
C      1  0.4748720000000  0.4873940000000  0.4696000000000 1.0
C      1  0.4964580000000  0.5269790000000  0.4626730000000 1.0
C      1  0.5476150000000  0.4717920000000  0.4250550000000 1.0
C      1  0.5016400000000  0.5555520000000  0.4227190000000 1.0
C      1  0.4512110000000  0.4728920000000  0.4236570000000 1.0
C      1  0.5471410000000  0.4677450000000  0.5777040000000 1.0
C      1  0.5076770000000  0.5527450000000  0.5834330000000 1.0
C      1  0.4490330000000  0.4754150000000  0.5778650000000 1.0
C      1  0.5475490000000  0.5294310000000  0.4252490000000 1.0
C      1  0.5021070000000  0.4444430000000  0.4236170000000 1.0
C      1  0.4515630000000  0.5268640000000  0.4228620000000 1.0
C      1  0.5378790000000  0.5434070000000  0.5814570000000 1.0
C      1  0.5002220000000  0.4446810000000  0.5789110000000 1.0
C      1  0.4514150000000  0.5249330000000  0.5777890000000 1.0
C      1  0.5801460000000  0.5280930000000  0.5533540000000 1.0
C      1  0.4336540000000  0.5588350000000  0.5531550000000 1.0
C      1  0.4814370000000  0.4097220000000  0.5547260000000 1.0
C      1  0.5868360000000  0.5292260000000  0.4475270000000 1.0
C      1  0.4306440000000  0.5601130000000  0.4476880000000 1.0
C      1  0.4842200000000  0.4103800000000  0.4468290000000 1.0
C      1  0.5854040000000  0.4679000000000  0.5524300000000 1.0
C      1  0.4306120000000  0.4418270000000  0.5507270000000 1.0
C      1  0.4835920000000  0.5871080000000  0.5540850000000 1.0
C      1  0.5867730000000  0.4691280000000  0.4477020000000 1.0
C      1  0.4307820000000  0.4393810000000  0.4470080000000 1.0
C      1  0.4830100000000  0.5890270000000  0.4453520000000 1.0
C      1  0.5995350000000  0.5157530000000  0.5348510000000 1.0
C      1  0.4359270000000  0.5797610000000  0.5339660000000 1.0
C      1  0.4624210000000  0.4023700000000  0.5346070000000 1.0
C      1  0.6033860000000  0.5145230000000  0.4653820000000 1.0
C      1  0.4363250000000  0.5806860000000  0.4668330000000 1.0
C      1  0.4636240000000  0.4030310000000  0.4664270000000 1.0
C      1  0.5974850000000  0.4836960000000  0.5308150000000 1.0
C      1  0.4363460000000  0.4185270000000  0.5338220000000 1.0
C      1  0.4619350000000  0.5952980000000  0.5354820000000 1.0
C      1  0.6035680000000  0.4840610000000  0.4661950000000 1.0
C      1  0.4358800000000  0.4199460000000  0.4670690000000 1.0
C      1  0.4661670000000  0.5932690000000  0.4676010000000 1.0
C      1  0.5286430000000  0.5133940000000  0.5795620000000 1.0
C      1  0.4767520000000  0.5129660000000  0.5848120000000 1.0
C      1  0.4996390000000  0.4719720000000  0.5873880000000 1.0
C      1  0.5247640000000  0.5143920000000  0.4162100000000 1.0
C      1  0.4754280000000  0.5139330000000  0.4139950000000 1.0
C      1  0.5003770000000  0.4717280000000  0.4156420000000 1.0
C      1  0.5248740000000  0.4846500000000  0.5852410000000 1.0
C      1  0.4748900000000  0.4858820000000  0.5852310000000 1.0
C      1  0.5021250000000  0.5242960000000  0.5853520000000 1.0
C      1  0.5246350000000  0.4859110000000  0.4163030000000 1.0
C      1  0.4754480000000  0.4857880000000  0.4151120000000 1.0
C      1  0.5002140000000  0.5281250000000  0.4147550000000 1.0
C      1  0.4510560000000  0.4795840000000  0.4891750000000 1.0
C      1  0.5446200000000  0.4726720000000  0.4840940000000 1.0
C      1  0.5025980000000  0.5511970000000  0.4767940000000 1.0
C      1  0.4553530000000  0.4776700000000  0.5185580000000 1.0
C      1  0.5454980000000  0.4710720000000  0.5135590000000 1.0
C      1  0.5138600000000  0.5529640000000  0.5033040000000 1.0
C      1  0.4527570000000  0.5203430000000  0.4868160000000 1.0
C      1  0.5423560000000  0.5320130000000  0.4688690000000 1.0
C      1  0.5059950000000  0.4470660000000  0.4784790000000 1.0
C      1  0.4565920000000  0.5216650000000  0.5175600000000 1.0
C      1  0.5365890000000  0.5393140000000  0.5161490000000 1.0
C      1  0.5149720000000  0.4423640000000  0.5063840000000 1.0
C      1  0.5099910000000  0.5885300000000  0.4552240000000 1.0
C      1  0.4187980000000  0.4649610000000  0.4581620000000 1.0
C      1  0.5712580000000  0.4459170000000  0.4583970000000 1.0
C      1  0.5102460000000  0.5864870000000  0.5417430000000 1.0
C      1  0.4173070000000  0.4665910000000  0.5409960000000 1.0
C      1  0.5690550000000  0.4459930000000  0.5409300000000 1.0
C      1  0.5119540000000  0.4107150000000  0.4562660000000 1.0
C      1  0.4188650000000  0.5345840000000  0.4587040000000 1.0
C      1  0.5834110000000  0.5518690000000  0.4669170000000 1.0
C      1  0.5085460000000  0.4111170000000  0.5426320000000 1.0
C      1  0.4194120000000  0.5354980000000  0.5420190000000 1.0
C      1  0.5702140000000  0.5544790000000  0.5420660000000 1.0
C      1  0.5455640000000  0.4464540000000  0.5584010000000 1.0
C      1  0.5149580000000  0.5576580000000  0.5506640000000 1.0
C      1  0.4288920000000  0.4863050000000  0.5594550000000 1.0
C      1  0.5473450000000  0.4478070000000  0.4416410000000 1.0
C      1  0.5223210000000  0.5671060000000  0.4398380000000 1.0
C      1  0.4311770000000  0.4851570000000  0.4406970000000 1.0
C      1  0.5452490000000  0.5557300000000  0.5567990000000 1.0
C      1  0.5160660000000  0.4404370000000  0.5539380000000 1.0
C      1  0.4308850000000  0.5147270000000  0.5594720000000 1.0
C      1  0.5458400000000  0.5503670000000  0.4461760000000 1.0
C      1  0.5230000000000  0.4326800000000  0.4397560000000 1.0
C      1  0.4336950000000  0.5142250000000  0.4427060000000 1.0
C      1  0.4047680000000  0.4749350000000  0.5152720000000 1.0
C      1  0.5661690000000  0.4328810000000  0.5134250000000 1.0
C      1  0.5240840000000  0.5955010000000  0.5174340000000 1.0
C      1  0.4039430000000  0.4717640000000  0.4829960000000 1.0
C      1  0.5696810000000  0.4289870000000  0.4832250000000 1.0
C      1  0.5193920000000  0.6001370000000  0.4840610000000 1.0
C      1  0.4055600000000  0.5290540000000  0.5161030000000 1.0
C      1  0.5711680000000  0.5702570000000  0.5164150000000 1.0
C      1  0.5201230000000  0.4029220000000  0.5171110000000 1.0
C      1  0.4050670000000  0.5263950000000  0.4834590000000 1.0
C      1  0.5668170000000  0.5693050000000  0.4854750000000 1.0
C      1  0.5228000000000  0.4026210000000  0.4829100000000 1.0
C      1  0.4029180000000  0.4993530000000  0.4777400000000 1.0
C      1  0.5466590000000  0.4139480000000  0.4791600000000 1.0
C      1  0.4046910000000  0.5014980000000  0.5203200000000 1.0
C      1  0.5370070000000  0.4273920000000  0.5174140000000 1.0
C      1  0.5434770000000  0.5845890000000  0.4803890000000 1.0
C      1  0.5487560000000  0.5849320000000  0.5230820000000 1.0
C      1  0.5089280000000  0.4839000000000  0.5059830000000 1.0
C      1  0.5105180000000  0.5101450000000  0.5045060000000 1.0
C      1  0.4887450000000  0.4971940000000  0.4957360000000 1.0
END
