TITL C-2441159-1093-1234 -4.2918064915332e-11 125000 -616.374127352702 0 0 5 (D(inf)h) n - 1
REM
REM in /home/bkarasulu/work/CARBON/AIRSS/Generating-Clusters/ReaxFF-fromJPCA2015/Units_Real/with-SteepDescent/Higher-Symm
REM
REM
REM
REM
REM
REM ./C.cell (1df0a924f5614ab8850e4351716899ee)
REM
REM compiler GCC version 9.2.1 20190827 (Red Hat 9.2.1-1)
REM options -cpp -mtune=generic -march=x86-64 -g -O0 -fpre-include=/usr/include/finclude/math-vector-fortran.h
REM seed 1642772610 1959492934 -1246779462 1912806331 -189386151 -974702580 -178786840 1858715918 1256602889 387438107 134020453 -1521898486 416671744 1032888167 -1156806979 -40192323 765312911 -621609493 -369035055 557424787 -1573104471 1405971536 -1876593420 1973962489 1487462675 -1058733916 635633763 -1904035266 1688437205 -1692725640 939175899 379135953 204577577
REM
CELL 1.54180   50.00000   50.00000   50.00000   90.00000   90.00000   90.00000
LATT -1
SFAC C  
C      1  0.4995740000000  0.4991640000000  0.5257130000000 1.0
C      1  0.4995740000000  0.4991640000000  0.5501350000000 1.0
C      1  0.4995740000000  0.4991640000000  0.4742870000000 1.0
C      1  0.4995740000000  0.4991640000000  0.5000000000000 1.0
C      1  0.4995740000000  0.4991640000000  0.4498650000000 1.0
END
