TITL C-2441157-2117-382 0.112052009700574 125000 -13133.7374648889 0 0 111 (C1) n - 1
REM
REM in /home/bkarasulu/work/CARBON/AIRSS/Generating-Clusters/ReaxFF-fromJPCA2015/Units_Real/with-SteepDescent/Higher-Symm
REM
REM
REM
REM
REM
REM ./C.cell (1df0a924f5614ab8850e4351716899ee)
REM
REM compiler GCC version 9.2.1 20190827 (Red Hat 9.2.1-1)
REM options -cpp -mtune=generic -march=x86-64 -g -O0 -fpre-include=/usr/include/finclude/math-vector-fortran.h
REM seed -59526479 30734052 -703874225 1494504777 1563052526 1693654162 2050333917 1213791378 -522423237 825245817 -333379007 -2018654831 2120565410 -713897223 -504915803 -407384719 -911781377 936707776 342919687 -1205373972 -260252212 1322490612 -1573415406 517334942 166494531 677971059 564449036 950050370 1856156486 -242616285 -196133267 803509904 -1950846294
REM
CELL 1.54180   50.00000   50.00000   50.00000   90.00000   90.00000   90.00000
LATT -1
SFAC C  
C      1  0.5684490000000  0.4420530000000  0.5125740000000 1.0
C      1  0.5681750000000  0.5575380000000  0.4877000000000 1.0
C      1  0.4305040000000  0.5568440000000  0.5129510000000 1.0
C      1  0.4299540000000  0.4472070000000  0.4882150000000 1.0
C      1  0.5680310000000  0.5111380000000  0.4444570000000 1.0
C      1  0.5692180000000  0.4886400000000  0.5541210000000 1.0
C      1  0.4298980000000  0.5132970000000  0.5572590000000 1.0
C      1  0.4298650000000  0.4881670000000  0.4469530000000 1.0
C      1  0.4667700000000  0.5481700000000  0.5680880000000 1.0
C      1  0.4665290000000  0.4519030000000  0.4312910000000 1.0
C      1  0.5325200000000  0.4514740000000  0.5691640000000 1.0
C      1  0.5324480000000  0.5489940000000  0.4313110000000 1.0
C      1  0.4670860000000  0.5684420000000  0.5476000000000 1.0
C      1  0.4663360000000  0.4318270000000  0.4517560000000 1.0
C      1  0.5313770000000  0.5695640000000  0.4514630000000 1.0
C      1  0.5321030000000  0.4311090000000  0.5489620000000 1.0
C      1  0.5908360000000  0.4867880000000  0.5345780000000 1.0
C      1  0.5827800000000  0.5119610000000  0.4691730000000 1.0
C      1  0.4136310000000  0.5123300000000  0.5310440000000 1.0
C      1  0.4081500000000  0.4872220000000  0.4664150000000 1.0
C      1  0.5865560000000  0.5341150000000  0.4862860000000 1.0
C      1  0.5888260000000  0.4691010000000  0.5078460000000 1.0
C      1  0.4133670000000  0.5340040000000  0.5130120000000 1.0
C      1  0.4094040000000  0.4680790000000  0.4884450000000 1.0
C      1  0.5072950000000  0.5858010000000  0.4871530000000 1.0
C      1  0.5073290000000  0.4134810000000  0.5121850000000 1.0
C      1  0.4908970000000  0.4134380000000  0.4878530000000 1.0
C      1  0.4913190000000  0.5855580000000  0.5117910000000 1.0
C      1  0.5075680000000  0.4873700000000  0.5864190000000 1.0
C      1  0.5080920000000  0.5125930000000  0.4130630000000 1.0
C      1  0.4914690000000  0.4881880000000  0.4135120000000 1.0
C      1  0.4910470000000  0.5116240000000  0.5863460000000 1.0
C      1  0.5417750000000  0.5535660000000  0.4745950000000 1.0
C      1  0.5434770000000  0.4487730000000  0.5255220000000 1.0
C      1  0.4554850000000  0.4504800000000  0.4733350000000 1.0
C      1  0.4561710000000  0.5505600000000  0.5258650000000 1.0
C      1  0.5438840000000  0.4734190000000  0.5519340000000 1.0
C      1  0.5421370000000  0.5250930000000  0.4460240000000 1.0
C      1  0.4553510000000  0.4734320000000  0.4500840000000 1.0
C      1  0.4556620000000  0.5257670000000  0.5509180000000 1.0
C      1  0.4817940000000  0.4881450000000  0.4666730000000 1.0
C      1  0.4789580000000  0.5114370000000  0.5313390000000 1.0
C      1  0.5200960000000  0.5151730000000  0.4644310000000 1.0
C      1  0.5181030000000  0.4839620000000  0.5355040000000 1.0
C      1  0.4816030000000  0.4674430000000  0.4880340000000 1.0
C      1  0.4801580000000  0.5322210000000  0.5117630000000 1.0
C      1  0.5201290000000  0.4649010000000  0.5128880000000 1.0
C      1  0.5183190000000  0.5379330000000  0.4817090000000 1.0
C      1  0.4703910000000  0.4827850000000  0.5656940000000 1.0
C      1  0.4695470000000  0.5169220000000  0.4348290000000 1.0
C      1  0.5282570000000  0.5178480000000  0.5663070000000 1.0
C      1  0.5276890000000  0.4829360000000  0.4332690000000 1.0
C      1  0.4690890000000  0.5639770000000  0.4843390000000 1.0
C      1  0.4701550000000  0.4349430000000  0.5169350000000 1.0
C      1  0.5271960000000  0.5644500000000  0.5165050000000 1.0
C      1  0.5275680000000  0.4338150000000  0.4818320000000 1.0
C      1  0.4508230000000  0.5372130000000  0.4425050000000 1.0
C      1  0.4517900000000  0.4641940000000  0.5572310000000 1.0
C      1  0.5454000000000  0.4619670000000  0.4416600000000 1.0
C      1  0.5467700000000  0.5377380000000  0.5573930000000 1.0
C      1  0.4513860000000  0.4433430000000  0.5370400000000 1.0
C      1  0.4514190000000  0.5577980000000  0.4626950000000 1.0
C      1  0.5460580000000  0.4423900000000  0.4630790000000 1.0
C      1  0.5458230000000  0.5573480000000  0.5360390000000 1.0
C      1  0.4317620000000  0.4842400000000  0.5538190000000 1.0
C      1  0.4331800000000  0.5162010000000  0.4516890000000 1.0
C      1  0.5646440000000  0.5171150000000  0.5485430000000 1.0
C      1  0.5638770000000  0.4821220000000  0.4502620000000 1.0
C      1  0.4337760000000  0.5528810000000  0.4838740000000 1.0
C      1  0.4332400000000  0.4510910000000  0.5162420000000 1.0
C      1  0.5655730000000  0.5523120000000  0.5161240000000 1.0
C      1  0.5657380000000  0.4458470000000  0.4841740000000 1.0
C      1  0.5692810000000  0.4721830000000  0.4882710000000 1.0
C      1  0.5674210000000  0.5241200000000  0.5082450000000 1.0
C      1  0.4307430000000  0.5239580000000  0.4910030000000 1.0
C      1  0.4473520000000  0.4759580000000  0.5103190000000 1.0
C      1  0.5554330000000  0.4896410000000  0.4766810000000 1.0
C      1  0.5500040000000  0.5123310000000  0.5243690000000 1.0
C      1  0.4292120000000  0.4888040000000  0.5266350000000 1.0
C      1  0.4491070000000  0.5111020000000  0.4750900000000 1.0
C      1  0.5355380000000  0.4969110000000  0.5876740000000 1.0
C      1  0.5357810000000  0.5023530000000  0.4106460000000 1.0
C      1  0.4628070000000  0.5020080000000  0.5879770000000 1.0
C      1  0.4630460000000  0.4974410000000  0.4124480000000 1.0
C      1  0.5345860000000  0.5879780000000  0.4974340000000 1.0
C      1  0.5352390000000  0.4119520000000  0.5019540000000 1.0
C      1  0.4634750000000  0.5885730000000  0.5026850000000 1.0
C      1  0.4626380000000  0.4126730000000  0.4977650000000 1.0
C      1  0.5030340000000  0.4497860000000  0.5709430000000 1.0
C      1  0.5032470000000  0.5500530000000  0.4288970000000 1.0
C      1  0.4957600000000  0.5493320000000  0.5705360000000 1.0
C      1  0.4957490000000  0.4504310000000  0.4293170000000 1.0
C      1  0.5023960000000  0.5709200000000  0.4491110000000 1.0
C      1  0.5031810000000  0.4295100000000  0.5499180000000 1.0
C      1  0.4964010000000  0.5691180000000  0.5488950000000 1.0
C      1  0.4955450000000  0.4294970000000  0.4502740000000 1.0
C      1  0.4983270000000  0.5234670000000  0.4393650000000 1.0
C      1  0.4969330000000  0.4757570000000  0.5610170000000 1.0
C      1  0.5013780000000  0.4773330000000  0.4395060000000 1.0
C      1  0.4995110000000  0.5218840000000  0.5594090000000 1.0
C      1  0.4990400000000  0.4408460000000  0.5225780000000 1.0
C      1  0.4964040000000  0.5591240000000  0.4755870000000 1.0
C      1  0.5009370000000  0.4393320000000  0.4771070000000 1.0
C      1  0.5005870000000  0.5589470000000  0.5221500000000 1.0
C      1  0.4755300000000  0.4818510000000  0.5139360000000 1.0
C      1  0.5251340000000  0.4864990000000  0.4840960000000 1.0
C      1  0.4769130000000  0.5145080000000  0.4812670000000 1.0
C      1  0.5220480000000  0.5102030000000  0.5217800000000 1.0
C      1  0.4088950000000  0.4964790000000  0.4936880000000 1.0
C      1  0.5904390000000  0.4998240000000  0.5093430000000 1.0
C      1  0.5059000000000  0.5011450000000  0.4997920000000 1.0
END
