TITL C-2441158-471-372 0.0711172771872285 125000 -26792.6576910993 0 0 192 (C1) n - 1
REM
REM in /home/bkarasulu/work/CARBON/AIRSS/Generating-Clusters/ReaxFF-fromJPCA2015/Units_Real/with-SteepDescent/Higher-Symm
REM
REM
REM
REM
REM
REM ./C.cell (1df0a924f5614ab8850e4351716899ee)
REM
REM compiler GCC version 9.2.1 20190827 (Red Hat 9.2.1-1)
REM options -cpp -mtune=generic -march=x86-64 -g -O0 -fpre-include=/usr/include/finclude/math-vector-fortran.h
REM seed -717005712 -460486211 1417671329 636569039 -1362238384 838430110 1419858839 -2002484272 -1176541826 -1363375130 1977031283 1617445237 757221693 -1371911850 -897991356 -494526846 -713732909 614455174 393821391 -45596730 462387628 1832800149 -31240407 1806309662 1675950098 1797908905 405516124 990247797 -1041312242 1583133616 -1092815066 537618085 1131349691
REM
CELL 1.54180   50.00000   50.00000   50.00000   90.00000   90.00000   90.00000
LATT -1
SFAC C  
C      1  0.4894940000000  0.4364830000000  0.4929900000000 1.0
C      1  0.4550710000000  0.5538210000000  0.4915440000000 1.0
C      1  0.5536890000000  0.5308140000000  0.4896840000000 1.0
C      1  0.5082380000000  0.4537200000000  0.4001220000000 1.0
C      1  0.4472130000000  0.5165400000000  0.4027550000000 1.0
C      1  0.5214920000000  0.5314370000000  0.3912180000000 1.0
C      1  0.4518540000000  0.5072240000000  0.5599160000000 1.0
C      1  0.5349230000000  0.5395940000000  0.5600970000000 1.0
C      1  0.5207190000000  0.4509970000000  0.5616980000000 1.0
C      1  0.5216730000000  0.5778020000000  0.4451930000000 1.0
C      1  0.5605310000000  0.4404310000000  0.4429730000000 1.0
C      1  0.4199430000000  0.4761430000000  0.4416490000000 1.0
C      1  0.4656240000000  0.4463420000000  0.4073970000000 1.0
C      1  0.4683990000000  0.5576550000000  0.4130750000000 1.0
C      1  0.5651830000000  0.4979460000000  0.4146020000000 1.0
C      1  0.4201240000000  0.5669930000000  0.4602830000000 1.0
C      1  0.5954050000000  0.5292030000000  0.4648440000000 1.0
C      1  0.4767390000000  0.3965880000000  0.4673000000000 1.0
C      1  0.5793340000000  0.4765390000000  0.5357120000000 1.0
C      1  0.4317940000000  0.4383720000000  0.5372760000000 1.0
C      1  0.4875310000000  0.5839940000000  0.5278890000000 1.0
C      1  0.3942650000000  0.5272280000000  0.5205770000000 1.0
C      1  0.5747990000000  0.5764940000000  0.5211610000000 1.0
C      1  0.5280880000000  0.3953900000000  0.5213350000000 1.0
C      1  0.5177480000000  0.6168000000000  0.4887530000000 1.0
C      1  0.5887640000000  0.4351980000000  0.4813200000000 1.0
C      1  0.3953810000000  0.4561320000000  0.4852830000000 1.0
C      1  0.5246530000000  0.5943660000000  0.5414630000000 1.0
C      1  0.5640120000000  0.4331900000000  0.5426510000000 1.0
C      1  0.4078360000000  0.4787010000000  0.5416130000000 1.0
C      1  0.5118020000000  0.5064150000000  0.4979240000000 1.0
C      1  0.5027880000000  0.4814680000000  0.4977930000000 1.0
C      1  0.4847170000000  0.5078750000000  0.4982890000000 1.0
C      1  0.4310300000000  0.5719680000000  0.4349150000000 1.0
C      1  0.5984220000000  0.5256340000000  0.4343000000000 1.0
C      1  0.4748020000000  0.4080200000000  0.4403550000000 1.0
C      1  0.4856220000000  0.5424710000000  0.5206660000000 1.0
C      1  0.5550030000000  0.4895140000000  0.5215660000000 1.0
C      1  0.4653110000000  0.4615940000000  0.5205510000000 1.0
C      1  0.5139480000000  0.4758240000000  0.6139180000000 1.0
C      1  0.4752420000000  0.5006840000000  0.6108280000000 1.0
C      1  0.5060770000000  0.5268790000000  0.6122880000000 1.0
C      1  0.4508970000000  0.4157190000000  0.4297930000000 1.0
C      1  0.4507800000000  0.5913270000000  0.4437480000000 1.0
C      1  0.6026710000000  0.4982860000000  0.4308170000000 1.0
C      1  0.4208200000000  0.5843560000000  0.5077820000000 1.0
C      1  0.6106760000000  0.5263630000000  0.5080060000000 1.0
C      1  0.4668540000000  0.3920910000000  0.5104780000000 1.0
C      1  0.5344570000000  0.5812490000000  0.5015060000000 1.0
C      1  0.5427850000000  0.4279070000000  0.4967500000000 1.0
C      1  0.4152130000000  0.4964600000000  0.4948980000000 1.0
C      1  0.4516400000000  0.5191730000000  0.5327440000000 1.0
C      1  0.5427930000000  0.5385830000000  0.5312010000000 1.0
C      1  0.5124010000000  0.4433090000000  0.5341330000000 1.0
C      1  0.5621690000000  0.5200500000000  0.5167400000000 1.0
C      1  0.4814850000000  0.4367640000000  0.5215980000000 1.0
C      1  0.4571430000000  0.5445180000000  0.5190840000000 1.0
C      1  0.5946070000000  0.5184280000000  0.5303770000000 1.0
C      1  0.4663400000000  0.4086910000000  0.5343490000000 1.0
C      1  0.4309790000000  0.5857450000000  0.5348100000000 1.0
C      1  0.5666700000000  0.4173810000000  0.4794940000000 1.0
C      1  0.3929270000000  0.4836990000000  0.4790030000000 1.0
C      1  0.5417170000000  0.6028840000000  0.4824170000000 1.0
C      1  0.4844050000000  0.5385030000000  0.4593600000000 1.0
C      1  0.5464610000000  0.4942910000000  0.4577660000000 1.0
C      1  0.4770570000000  0.4594640000000  0.4583910000000 1.0
C      1  0.5060490000000  0.3964180000000  0.4707530000000 1.0
C      1  0.4039010000000  0.5440010000000  0.4683380000000 1.0
C      1  0.5861390000000  0.5580970000000  0.4702520000000 1.0
C      1  0.6109560000000  0.4809730000000  0.5652220000000 1.0
C      1  0.4308520000000  0.4166230000000  0.5729330000000 1.0
C      1  0.4681000000000  0.6094070000000  0.5649310000000 1.0
C      1  0.4812810000000  0.5581060000000  0.4801950000000 1.0
C      1  0.5589790000000  0.4777560000000  0.4766620000000 1.0
C      1  0.4625290000000  0.4493020000000  0.4783030000000 1.0
C      1  0.5085650000000  0.4716310000000  0.5253170000000 1.0
C      1  0.4691420000000  0.5010060000000  0.5213390000000 1.0
C      1  0.5201670000000  0.5165850000000  0.5250400000000 1.0
C      1  0.5853310000000  0.4773580000000  0.4260490000000 1.0
C      1  0.4388910000000  0.4386820000000  0.4201500000000 1.0
C      1  0.4744620000000  0.5821870000000  0.4278720000000 1.0
C      1  0.5146870000000  0.3860030000000  0.4963360000000 1.0
C      1  0.3928470000000  0.5434880000000  0.4958590000000 1.0
C      1  0.5896530000000  0.5711000000000  0.4959170000000 1.0
C      1  0.5324010000000  0.4564540000000  0.6047870000000 1.0
C      1  0.4469340000000  0.5040630000000  0.6059970000000 1.0
C      1  0.5223090000000  0.5472530000000  0.6030240000000 1.0
C      1  0.4886630000000  0.5138470000000  0.4267800000000 1.0
C      1  0.5146370000000  0.5068430000000  0.4352430000000 1.0
C      1  0.4938090000000  0.4867010000000  0.4340280000000 1.0
C      1  0.4905800000000  0.4325450000000  0.4101100000000 1.0
C      1  0.4405610000000  0.5484110000000  0.4147590000000 1.0
C      1  0.5716130000000  0.5249440000000  0.4222360000000 1.0
C      1  0.5541340000000  0.5540460000000  0.5769990000000 1.0
C      1  0.5290620000000  0.4264310000000  0.5751390000000 1.0
C      1  0.4294860000000  0.5208820000000  0.5726930000000 1.0
C      1  0.4677980000000  0.5162910000000  0.5882820000000 1.0
C      1  0.5239030000000  0.5041350000000  0.6090280000000 1.0
C      1  0.4856840000000  0.4753010000000  0.6059290000000 1.0
C      1  0.5826470000000  0.4486140000000  0.5239540000000 1.0
C      1  0.4141940000000  0.4566720000000  0.5226790000000 1.0
C      1  0.5023630000000  0.6085040000000  0.5250030000000 1.0
C      1  0.4846920000000  0.5338010000000  0.4059860000000 1.0
C      1  0.5354100000000  0.4928020000000  0.4100750000000 1.0
C      1  0.4858230000000  0.4738500000000  0.4068390000000 1.0
C      1  0.4058870000000  0.5010510000000  0.5227900000000 1.0
C      1  0.5458610000000  0.5733490000000  0.5268590000000 1.0
C      1  0.5385610000000  0.4228100000000  0.5266240000000 1.0
C      1  0.5081170000000  0.5726580000000  0.5091890000000 1.0
C      1  0.5594690000000  0.4486560000000  0.5057250000000 1.0
C      1  0.4276650000000  0.4723660000000  0.5026940000000 1.0
C      1  0.5214930000000  0.5517320000000  0.4115790000000 1.0
C      1  0.5327300000000  0.4632390000000  0.4120410000000 1.0
C      1  0.4479700000000  0.4960980000000  0.4213970000000 1.0
C      1  0.4369220000000  0.4380010000000  0.4661390000000 1.0
C      1  0.4847460000000  0.5903310000000  0.4730730000000 1.0
C      1  0.5857170000000  0.4728140000000  0.4668140000000 1.0
C      1  0.4671330000000  0.5584090000000  0.5736930000000 1.0
C      1  0.5667110000000  0.5038490000000  0.5765520000000 1.0
C      1  0.4828390000000  0.4350250000000  0.5773930000000 1.0
C      1  0.6069850000000  0.4904730000000  0.5388750000000 1.0
C      1  0.4365080000000  0.4102980000000  0.5444240000000 1.0
C      1  0.4486630000000  0.6024840000000  0.5472190000000 1.0
C      1  0.4285150000000  0.4158300000000  0.4825240000000 1.0
C      1  0.4580480000000  0.5981250000000  0.4718980000000 1.0
C      1  0.6076720000000  0.4800610000000  0.4848800000000 1.0
C      1  0.5252240000000  0.4104830000000  0.4528370000000 1.0
C      1  0.4094110000000  0.5219870000000  0.4506590000000 1.0
C      1  0.5647500000000  0.5661890000000  0.4531450000000 1.0
C      1  0.4389000000000  0.5783590000000  0.4850710000000 1.0
C      1  0.6079580000000  0.5095800000000  0.4853070000000 1.0
C      1  0.4545460000000  0.4003030000000  0.4863200000000 1.0
C      1  0.5543620000000  0.4153410000000  0.4535770000000 1.0
C      1  0.4014300000000  0.4941710000000  0.4531020000000 1.0
C      1  0.5464190000000  0.5883150000000  0.4569390000000 1.0
C      1  0.4570910000000  0.5428610000000  0.4531620000000 1.0
C      1  0.5624600000000  0.5201030000000  0.4629890000000 1.0
C      1  0.4889350000000  0.4376580000000  0.4416830000000 1.0
C      1  0.4398120000000  0.5489620000000  0.5700470000000 1.0
C      1  0.5738160000000  0.5318970000000  0.5730150000000 1.0
C      1  0.5001470000000  0.4141700000000  0.5766800000000 1.0
C      1  0.4321620000000  0.4468090000000  0.5649140000000 1.0
C      1  0.4841720000000  0.5795900000000  0.5606310000000 1.0
C      1  0.5784090000000  0.4771840000000  0.5664530000000 1.0
C      1  0.4483090000000  0.4835790000000  0.4477260000000 1.0
C      1  0.5198550000000  0.5481540000000  0.4423290000000 1.0
C      1  0.5378980000000  0.4576880000000  0.4407120000000 1.0
C      1  0.5944800000000  0.5616760000000  0.5350880000000 1.0
C      1  0.5047750000000  0.3859670000000  0.5362060000000 1.0
C      1  0.4020010000000  0.5513290000000  0.5351020000000 1.0
C      1  0.5399670000000  0.4965680000000  0.5850590000000 1.0
C      1  0.4734020000000  0.4609370000000  0.5834080000000 1.0
C      1  0.4859750000000  0.5391570000000  0.5862020000000 1.0
C      1  0.4919750000000  0.3794100000000  0.5122310000000 1.0
C      1  0.4001860000000  0.5660490000000  0.5112700000000 1.0
C      1  0.6086860000000  0.5553160000000  0.5114960000000 1.0
C      1  0.4874560000000  0.4013860000000  0.5536520000000 1.0
C      1  0.4245050000000  0.5616820000000  0.5497330000000 1.0
C      1  0.5915880000000  0.5385070000000  0.5511180000000 1.0
C      1  0.4352840000000  0.5312060000000  0.4389180000000 1.0
C      1  0.5522490000000  0.5410800000000  0.4413750000000 1.0
C      1  0.5177910000000  0.4358120000000  0.4429330000000 1.0
C      1  0.4209420000000  0.4746530000000  0.5678260000000 1.0
C      1  0.5140100000000  0.5830030000000  0.5656170000000 1.0
C      1  0.5656650000000  0.4471150000000  0.5672740000000 1.0
C      1  0.6032940000000  0.4530750000000  0.4974600000000 1.0
C      1  0.4058160000000  0.4317240000000  0.4916520000000 1.0
C      1  0.4907330000000  0.6115470000000  0.4948280000000 1.0
C      1  0.4620300000000  0.4795160000000  0.5621120000000 1.0
C      1  0.5072470000000  0.5360150000000  0.5653170000000 1.0
C      1  0.5282140000000  0.4785680000000  0.5651450000000 1.0
C      1  0.4534670000000  0.4720380000000  0.4951370000000 1.0
C      1  0.5018660000000  0.5496400000000  0.4975120000000 1.0
C      1  0.5443960000000  0.4704160000000  0.4997250000000 1.0
C      1  0.4958240000000  0.5907060000000  0.4449870000000 1.0
C      1  0.5845870000000  0.4534640000000  0.4446130000000 1.0
C      1  0.4231150000000  0.4490390000000  0.4430280000000 1.0
C      1  0.5287000000000  0.4897010000000  0.5377190000000 1.0
C      1  0.4765970000000  0.4795530000000  0.5377960000000 1.0
C      1  0.4982060000000  0.5271150000000  0.5407480000000 1.0
C      1  0.4253260000000  0.4967820000000  0.5879120000000 1.0
C      1  0.5311970000000  0.5693720000000  0.5880570000000 1.0
C      1  0.5497650000000  0.4384600000000  0.5923350000000 1.0
C      1  0.4745650000000  0.5122860000000  0.4725610000000 1.0
C      1  0.5227950000000  0.5101860000000  0.4674160000000 1.0
C      1  0.5030580000000  0.4686080000000  0.4698560000000 1.0
C      1  0.4912130000000  0.4942430000000  0.3851950000000 1.0
C      1  0.4717350000000  0.5154820000000  0.3863970000000 1.0
C      1  0.5186370000000  0.5039250000000  0.3861520000000 1.0
C      1  0.5274990000000  0.5376160000000  0.4796080000000 1.0
C      1  0.5155670000000  0.4461490000000  0.4855260000000 1.0
C      1  0.4508760000000  0.4960400000000  0.4749650000000 1.0
END
