TITL C-2441163-1170-913 0.152979191716948 125000 -14764.8706794265 0 0 128 (C1) n - 1
REM
REM in /home/bkarasulu/work/CARBON/AIRSS/Generating-Clusters/ReaxFF-fromJPCA2015/Units_Real/with-SteepDescent/Higher-Symm
REM
REM
REM
REM
REM
REM ./C.cell (1df0a924f5614ab8850e4351716899ee)
REM
REM compiler GCC version 9.2.1 20190827 (Red Hat 9.2.1-1)
REM options -cpp -mtune=generic -march=x86-64 -g -O0 -fpre-include=/usr/include/finclude/math-vector-fortran.h
REM seed 1740693493 -749461645 168733040 342068609 1614707362 -816851564 -1485074592 -621247093 -2090981377 -91302922 -692996007 1205193284 -2076289623 -1746910302 -50147282 1555110395 -746482519 -1695522676 -230701156 815904390 77482680 417999692 -1777801676 665538953 -1283312777 233645785 151592105 -1004355282 1405355440 -1903688801 1419015616 874824811 1322345412
REM
CELL 1.54180   50.00000   50.00000   50.00000   90.00000   90.00000   90.00000
LATT -1
SFAC C  
C      1  0.4743480000000  0.5812320000000  0.5300590000000 1.0
C      1  0.5260080000000  0.4203080000000  0.5277830000000 1.0
C      1  0.5256740000000  0.5790160000000  0.5284200000000 1.0
C      1  0.4736900000000  0.4200090000000  0.5290610000000 1.0
C      1  0.4238030000000  0.4593160000000  0.4847100000000 1.0
C      1  0.5755510000000  0.5391710000000  0.4889520000000 1.0
C      1  0.5753870000000  0.4600040000000  0.4885680000000 1.0
C      1  0.4249410000000  0.5384490000000  0.4885630000000 1.0
C      1  0.5223520000000  0.5806170000000  0.4687300000000 1.0
C      1  0.4794500000000  0.4192000000000  0.4700560000000 1.0
C      1  0.4792250000000  0.5812810000000  0.4699420000000 1.0
C      1  0.5232720000000  0.4188960000000  0.4690850000000 1.0
C      1  0.5501090000000  0.5216860000000  0.4159270000000 1.0
C      1  0.4433290000000  0.4790180000000  0.4175050000000 1.0
C      1  0.4433940000000  0.5209160000000  0.4174570000000 1.0
C      1  0.5492770000000  0.4799720000000  0.4159460000000 1.0
C      1  0.4420440000000  0.4492150000000  0.4644780000000 1.0
C      1  0.5560860000000  0.5477030000000  0.4709200000000 1.0
C      1  0.5541070000000  0.4555340000000  0.4705780000000 1.0
C      1  0.4451000000000  0.5473790000000  0.4685110000000 1.0
C      1  0.5141300000000  0.5698360000000  0.4429350000000 1.0
C      1  0.4861040000000  0.4278490000000  0.4426890000000 1.0
C      1  0.4861360000000  0.5717090000000  0.4426140000000 1.0
C      1  0.5141320000000  0.4286370000000  0.4429270000000 1.0
C      1  0.4043470000000  0.5231950000000  0.4741030000000 1.0
C      1  0.5886440000000  0.4749450000000  0.4685700000000 1.0
C      1  0.5937870000000  0.5211200000000  0.4730820000000 1.0
C      1  0.4104380000000  0.4755290000000  0.4668200000000 1.0
C      1  0.4438820000000  0.4549410000000  0.4351250000000 1.0
C      1  0.5553060000000  0.5520780000000  0.4440540000000 1.0
C      1  0.5533140000000  0.4491410000000  0.4433910000000 1.0
C      1  0.4450100000000  0.5434360000000  0.4363000000000 1.0
C      1  0.5145700000000  0.5305420000000  0.4690380000000 1.0
C      1  0.4839590000000  0.4661340000000  0.4697250000000 1.0
C      1  0.4883070000000  0.5360160000000  0.4656960000000 1.0
C      1  0.5112620000000  0.4649480000000  0.4681440000000 1.0
C      1  0.5128140000000  0.5337530000000  0.5313290000000 1.0
C      1  0.4861270000000  0.4648600000000  0.5327340000000 1.0
C      1  0.4848610000000  0.5382280000000  0.5307500000000 1.0
C      1  0.5144410000000  0.4645240000000  0.5333940000000 1.0
C      1  0.5243470000000  0.5409330000000  0.5740550000000 1.0
C      1  0.4740370000000  0.4589860000000  0.5756400000000 1.0
C      1  0.4743120000000  0.5416080000000  0.5749780000000 1.0
C      1  0.5246160000000  0.4594540000000  0.5753510000000 1.0
C      1  0.5505710000000  0.5277080000000  0.5701900000000 1.0
C      1  0.4490490000000  0.4728100000000  0.5706410000000 1.0
C      1  0.4497730000000  0.5284370000000  0.5665360000000 1.0
C      1  0.5505650000000  0.4729300000000  0.5705020000000 1.0
C      1  0.5371860000000  0.5685980000000  0.5044260000000 1.0
C      1  0.4583880000000  0.4318190000000  0.5079790000000 1.0
C      1  0.4585670000000  0.5701170000000  0.5085730000000 1.0
C      1  0.5375950000000  0.4306450000000  0.5041870000000 1.0
C      1  0.5494760000000  0.4296700000000  0.4679380000000 1.0
C      1  0.4541880000000  0.5730840000000  0.4803270000000 1.0
C      1  0.4544450000000  0.4280160000000  0.4795910000000 1.0
C      1  0.5494670000000  0.5725560000000  0.4696520000000 1.0
C      1  0.5634240000000  0.4759960000000  0.5106830000000 1.0
C      1  0.4363620000000  0.5312110000000  0.5146510000000 1.0
C      1  0.4347580000000  0.4742140000000  0.5093040000000 1.0
C      1  0.5631830000000  0.5293370000000  0.5131720000000 1.0
C      1  0.5283680000000  0.4513490000000  0.4285390000000 1.0
C      1  0.4711050000000  0.5501990000000  0.4286800000000 1.0
C      1  0.4712220000000  0.4500340000000  0.4292130000000 1.0
C      1  0.5314840000000  0.5494510000000  0.4284890000000 1.0
C      1  0.4213690000000  0.4703600000000  0.5366600000000 1.0
C      1  0.5777340000000  0.5273570000000  0.5357220000000 1.0
C      1  0.5771250000000  0.4732330000000  0.5355510000000 1.0
C      1  0.4172240000000  0.5245440000000  0.5366550000000 1.0
C      1  0.4393450000000  0.5448220000000  0.5441290000000 1.0
C      1  0.5598480000000  0.4548120000000  0.5500940000000 1.0
C      1  0.5603210000000  0.5454450000000  0.5491650000000 1.0
C      1  0.4401660000000  0.4531300000000  0.5515970000000 1.0
C      1  0.5243380000000  0.5212390000000  0.4933340000000 1.0
C      1  0.4737630000000  0.4756630000000  0.4925320000000 1.0
C      1  0.4695130000000  0.5310500000000  0.4855910000000 1.0
C      1  0.5206810000000  0.4753500000000  0.4909910000000 1.0
C      1  0.4717830000000  0.5573850000000  0.5480660000000 1.0
C      1  0.5308050000000  0.4442860000000  0.5484750000000 1.0
C      1  0.5301330000000  0.5548100000000  0.5473570000000 1.0
C      1  0.4689440000000  0.4435380000000  0.5481980000000 1.0
C      1  0.5232450000000  0.5442380000000  0.5078350000000 1.0
C      1  0.4759230000000  0.4548030000000  0.5088550000000 1.0
C      1  0.4744580000000  0.5463350000000  0.5074360000000 1.0
C      1  0.5254140000000  0.4565710000000  0.5085050000000 1.0
C      1  0.4784780000000  0.5224730000000  0.4424860000000 1.0
C      1  0.5144770000000  0.4759080000000  0.4409640000000 1.0
C      1  0.5226010000000  0.5222500000000  0.4444450000000 1.0
C      1  0.4777200000000  0.4753060000000  0.4448200000000 1.0
C      1  0.4990710000000  0.5271630000000  0.5709320000000 1.0
C      1  0.4990630000000  0.4730470000000  0.5718240000000 1.0
C      1  0.4994050000000  0.4138490000000  0.5171560000000 1.0
C      1  0.4997200000000  0.5870250000000  0.5172990000000 1.0
C      1  0.5009010000000  0.5861640000000  0.4879590000000 1.0
C      1  0.5011060000000  0.4148340000000  0.4879020000000 1.0
C      1  0.5252400000000  0.5004730000000  0.5876230000000 1.0
C      1  0.4712840000000  0.5017930000000  0.5892630000000 1.0
C      1  0.4609100000000  0.5004660000000  0.5620650000000 1.0
C      1  0.5414740000000  0.5004530000000  0.5649290000000 1.0
C      1  0.5896370000000  0.4989050000000  0.4538910000000 1.0
C      1  0.4070190000000  0.5005510000000  0.4548940000000 1.0
C      1  0.5770890000000  0.4970210000000  0.4977680000000 1.0
C      1  0.4212960000000  0.4961520000000  0.4981370000000 1.0
C      1  0.4444420000000  0.5035810000000  0.4813730000000 1.0
C      1  0.5562150000000  0.5043880000000  0.4786110000000 1.0
C      1  0.4582450000000  0.4990430000000  0.4539220000000 1.0
C      1  0.5415730000000  0.4995930000000  0.4549950000000 1.0
C      1  0.4601390000000  0.4983150000000  0.5053440000000 1.0
C      1  0.5435350000000  0.5047900000000  0.5145590000000 1.0
C      1  0.5373180000000  0.5009700000000  0.4006910000000 1.0
C      1  0.4606250000000  0.4996590000000  0.4052330000000 1.0
C      1  0.4179150000000  0.4974090000000  0.5399880000000 1.0
C      1  0.5799300000000  0.5003740000000  0.5396860000000 1.0
C      1  0.3929440000000  0.5064490000000  0.4967780000000 1.0
C      1  0.6057320000000  0.5047150000000  0.4968210000000 1.0
C      1  0.5644940000000  0.5000680000000  0.4324140000000 1.0
C      1  0.4322120000000  0.4999690000000  0.4359880000000 1.0
C      1  0.5089180000000  0.5006160000000  0.3811150000000 1.0
C      1  0.4994720000000  0.5002700000000  0.6518320000000 1.0
C      1  0.5019730000000  0.5020450000000  0.5293070000000 1.0
C      1  0.5081850000000  0.4984710000000  0.4998290000000 1.0
C      1  0.4897480000000  0.5005500000000  0.4036950000000 1.0
C      1  0.4963430000000  0.4999500000000  0.5574860000000 1.0
C      1  0.5019730000000  0.5003760000000  0.3559570000000 1.0
C      1  0.4989210000000  0.5004510000000  0.6273640000000 1.0
C      1  0.4995200000000  0.5002470000000  0.6761500000000 1.0
C      1  0.4968430000000  0.5032150000000  0.4734760000000 1.0
C      1  0.4983270000000  0.5006420000000  0.6019460000000 1.0
C      1  0.5012930000000  0.5076070000000  0.4300210000000 1.0
END
