TITL C-2441160-1326-4 0.0717772929352294 125000 -24258.4341615419 0 0 172 (C1) n - 1
REM
REM in /home/bkarasulu/work/CARBON/AIRSS/Generating-Clusters/ReaxFF-fromJPCA2015/Units_Real/with-SteepDescent/Higher-Symm
REM
REM
REM
REM
REM
REM ./C.cell (1df0a924f5614ab8850e4351716899ee)
REM
REM compiler GCC version 9.2.1 20190827 (Red Hat 9.2.1-1)
REM options -cpp -mtune=generic -march=x86-64 -g -O0 -fpre-include=/usr/include/finclude/math-vector-fortran.h
REM seed 1684070634 -1774335204 -1963020843 -404264856 1368075144 1594578202 2119938443 1164207159 -1344894694 1047406115 -1479947850 822157886 527815925 442257416 -692110544 -1713539228 1389848069 -2006997607 -403742786 -880511521 1066452660 1389055813 808036034 697880799 -155903812 -1598632872 924530116 -886704179 -2127841674 -559076207 268054029 1202366198 980339253
REM
CELL 1.54180   50.00000   50.00000   50.00000   90.00000   90.00000   90.00000
LATT -1
SFAC C  
C      1  0.5199650000000  0.5093390000000  0.4801650000000 1.0
C      1  0.5070210000000  0.4827030000000  0.4786180000000 1.0
C      1  0.5085660000000  0.4770980000000  0.5073400000000 1.0
C      1  0.5107460000000  0.5027670000000  0.5275270000000 1.0
C      1  0.5099310000000  0.5254460000000  0.5086780000000 1.0
C      1  0.5120420000000  0.4595410000000  0.5453130000000 1.0
C      1  0.5128250000000  0.5365980000000  0.5623890000000 1.0
C      1  0.5222260000000  0.5576340000000  0.4855500000000 1.0
C      1  0.5162640000000  0.5069310000000  0.4313760000000 1.0
C      1  0.5168570000000  0.4432640000000  0.4748100000000 1.0
C      1  0.4616130000000  0.4381480000000  0.5892910000000 1.0
C      1  0.4610990000000  0.5650260000000  0.5802380000000 1.0
C      1  0.4602520000000  0.5973920000000  0.4688370000000 1.0
C      1  0.4605520000000  0.4985650000000  0.3962860000000 1.0
C      1  0.4611770000000  0.4010580000000  0.4667950000000 1.0
C      1  0.5488390000000  0.5697060000000  0.4777830000000 1.0
C      1  0.5668150000000  0.4957800000000  0.4204270000000 1.0
C      1  0.5672020000000  0.4224570000000  0.4773350000000 1.0
C      1  0.5668820000000  0.4548370000000  0.5662090000000 1.0
C      1  0.5667670000000  0.5504750000000  0.5625220000000 1.0
C      1  0.6045380000000  0.4930120000000  0.4782500000000 1.0
C      1  0.6148230000000  0.4779120000000  0.4995680000000 1.0
C      1  0.6146930000000  0.4814660000000  0.5269660000000 1.0
C      1  0.6039600000000  0.5122300000000  0.5198730000000 1.0
C      1  0.6145430000000  0.5189220000000  0.4925810000000 1.0
C      1  0.5568860000000  0.4061030000000  0.4549000000000 1.0
C      1  0.5520660000000  0.4280890000000  0.5712040000000 1.0
C      1  0.5520240000000  0.5476990000000  0.5879310000000 1.0
C      1  0.5440530000000  0.5991400000000  0.4860880000000 1.0
C      1  0.5530670000000  0.5140490000000  0.4012860000000 1.0
C      1  0.4997450000000  0.4454690000000  0.4311920000000 1.0
C      1  0.5114370000000  0.4182690000000  0.5211840000000 1.0
C      1  0.5076810000000  0.4967460000000  0.5864320000000 1.0
C      1  0.5039090000000  0.5977850000000  0.5195100000000 1.0
C      1  0.5058330000000  0.5595190000000  0.4307830000000 1.0
C      1  0.4441200000000  0.4363290000000  0.4801450000000 1.0
C      1  0.4575210000000  0.4646590000000  0.5559740000000 1.0
C      1  0.4605310000000  0.5319990000000  0.5519230000000 1.0
C      1  0.4578690000000  0.5503840000000  0.4787150000000 1.0
C      1  0.4637200000000  0.4916050000000  0.4462910000000 1.0
C      1  0.5688700000000  0.5242240000000  0.5948320000000 1.0
C      1  0.5653580000000  0.5973010000000  0.5052970000000 1.0
C      1  0.5690530000000  0.5363880000000  0.4122330000000 1.0
C      1  0.5705210000000  0.4243140000000  0.4364870000000 1.0
C      1  0.5690690000000  0.4158570000000  0.5499760000000 1.0
C      1  0.5609150000000  0.4748190000000  0.5098660000000 1.0
C      1  0.5604390000000  0.4991690000000  0.5308730000000 1.0
C      1  0.5750890000000  0.5223520000000  0.5144540000000 1.0
C      1  0.5682460000000  0.5137670000000  0.4818860000000 1.0
C      1  0.5756570000000  0.4848030000000  0.4798100000000 1.0
C      1  0.5760010000000  0.4506630000000  0.5167160000000 1.0
C      1  0.5807180000000  0.5005300000000  0.5537390000000 1.0
C      1  0.5751740000000  0.5520390000000  0.5174840000000 1.0
C      1  0.5735720000000  0.5305610000000  0.4569430000000 1.0
C      1  0.5740950000000  0.4662610000000  0.4571510000000 1.0
C      1  0.4832070000000  0.5870450000000  0.5399720000000 1.0
C      1  0.4813390000000  0.5751320000000  0.4308260000000 1.0
C      1  0.4795930000000  0.4567100000000  0.4104290000000 1.0
C      1  0.4863440000000  0.4112350000000  0.5087020000000 1.0
C      1  0.4843670000000  0.4824370000000  0.5971230000000 1.0
C      1  0.3845440000000  0.4883020000000  0.4724720000000 1.0
C      1  0.3836470000000  0.4767180000000  0.4989050000000 1.0
C      1  0.3853390000000  0.4946300000000  0.5227510000000 1.0
C      1  0.3858820000000  0.5211560000000  0.5102580000000 1.0
C      1  0.3873400000000  0.5155950000000  0.4812980000000 1.0
C      1  0.4511480000000  0.4562620000000  0.4152520000000 1.0
C      1  0.4595060000000  0.4077760000000  0.5187110000000 1.0
C      1  0.4562150000000  0.4897540000000  0.5956070000000 1.0
C      1  0.4550300000000  0.5825480000000  0.5385560000000 1.0
C      1  0.4532030000000  0.5667810000000  0.4324290000000 1.0
C      1  0.4870150000000  0.5016470000000  0.5454340000000 1.0
C      1  0.4856930000000  0.5417690000000  0.5104480000000 1.0
C      1  0.4849140000000  0.5297010000000  0.4564590000000 1.0
C      1  0.4773940000000  0.4721690000000  0.4632060000000 1.0
C      1  0.4841490000000  0.4628440000000  0.5152260000000 1.0
C      1  0.4841380000000  0.4804360000000  0.3943920000000 1.0
C      1  0.4878870000000  0.4122510000000  0.4776830000000 1.0
C      1  0.4861940000000  0.4531820000000  0.5969920000000 1.0
C      1  0.4856790000000  0.5776380000000  0.5671590000000 1.0
C      1  0.4830270000000  0.5967440000000  0.4509910000000 1.0
C      1  0.5316690000000  0.3964510000000  0.5203390000000 1.0
C      1  0.5309120000000  0.4910540000000  0.6037130000000 1.0
C      1  0.5278780000000  0.5988920000000  0.5365110000000 1.0
C      1  0.5304460000000  0.5714580000000  0.4210500000000 1.0
C      1  0.5254600000000  0.4298740000000  0.4290410000000 1.0
C      1  0.5102470000000  0.5448390000000  0.4595630000000 1.0
C      1  0.5211170000000  0.4749420000000  0.4341700000000 1.0
C      1  0.5218550000000  0.4383470000000  0.5028180000000 1.0
C      1  0.5235500000000  0.4802150000000  0.5632730000000 1.0
C      1  0.5226190000000  0.5522320000000  0.5403740000000 1.0
C      1  0.5517550000000  0.4421400000000  0.4227590000000 1.0
C      1  0.5595300000000  0.4052520000000  0.5247110000000 1.0
C      1  0.5594580000000  0.4968130000000  0.5974720000000 1.0
C      1  0.5565310000000  0.5935850000000  0.5325430000000 1.0
C      1  0.5579000000000  0.5598050000000  0.4255920000000 1.0
C      1  0.4234980000000  0.4412360000000  0.5316900000000 1.0
C      1  0.4235010000000  0.5154410000000  0.5654640000000 1.0
C      1  0.4242670000000  0.5671050000000  0.5054740000000 1.0
C      1  0.4268430000000  0.5247610000000  0.4372210000000 1.0
C      1  0.4139630000000  0.4483810000000  0.4526050000000 1.0
C      1  0.5637680000000  0.4690860000000  0.4309910000000 1.0
C      1  0.5697330000000  0.4245420000000  0.5054030000000 1.0
C      1  0.5715120000000  0.4821160000000  0.5743190000000 1.0
C      1  0.5673730000000  0.5668340000000  0.5395660000000 1.0
C      1  0.5635340000000  0.5558240000000  0.4530010000000 1.0
C      1  0.4137120000000  0.4914050000000  0.5520080000000 1.0
C      1  0.4149440000000  0.5471660000000  0.5236600000000 1.0
C      1  0.4175080000000  0.5354910000000  0.4621100000000 1.0
C      1  0.4084490000000  0.4775950000000  0.4543730000000 1.0
C      1  0.4088840000000  0.4445420000000  0.5064840000000 1.0
C      1  0.5820060000000  0.5259290000000  0.5682090000000 1.0
C      1  0.5720840000000  0.5709030000000  0.4966200000000 1.0
C      1  0.5790860000000  0.5189330000000  0.4321530000000 1.0
C      1  0.5798700000000  0.4389820000000  0.4590680000000 1.0
C      1  0.5813450000000  0.4423100000000  0.5443860000000 1.0
C      1  0.5263010000000  0.3853930000000  0.4932910000000 1.0
C      1  0.5329090000000  0.4645080000000  0.5930740000000 1.0
C      1  0.5273690000000  0.5760780000000  0.5550940000000 1.0
C      1  0.5285800000000  0.5932550000000  0.4411620000000 1.0
C      1  0.5291940000000  0.4711470000000  0.4039200000000 1.0
C      1  0.4446790000000  0.5855290000000  0.5127370000000 1.0
C      1  0.4446650000000  0.5408880000000  0.4208670000000 1.0
C      1  0.4359310000000  0.4379660000000  0.4345910000000 1.0
C      1  0.4426110000000  0.4194260000000  0.5410850000000 1.0
C      1  0.4422260000000  0.5150750000000  0.5879340000000 1.0
C      1  0.4831470000000  0.4568980000000  0.5433690000000 1.0
C      1  0.4856650000000  0.5235280000000  0.5645720000000 1.0
C      1  0.4806200000000  0.5636340000000  0.4914550000000 1.0
C      1  0.4815740000000  0.5122490000000  0.4329720000000 1.0
C      1  0.4908820000000  0.4427120000000  0.4602570000000 1.0
C      1  0.5294370000000  0.4609500000000  0.5194720000000 1.0
C      1  0.5344060000000  0.4990460000000  0.5430290000000 1.0
C      1  0.5261550000000  0.5466300000000  0.5119660000000 1.0
C      1  0.5252510000000  0.5213220000000  0.4550000000000 1.0
C      1  0.5265060000000  0.4675010000000  0.4621280000000 1.0
C      1  0.4333310000000  0.4952450000000  0.4364170000000 1.0
C      1  0.4148260000000  0.4358460000000  0.4785910000000 1.0
C      1  0.4302700000000  0.4652030000000  0.5464520000000 1.0
C      1  0.4268190000000  0.5421720000000  0.5514460000000 1.0
C      1  0.4282700000000  0.5603910000000  0.4754560000000 1.0
C      1  0.4651340000000  0.5237930000000  0.4094250000000 1.0
C      1  0.4500590000000  0.4161320000000  0.4453890000000 1.0
C      1  0.4539740000000  0.4237210000000  0.5663060000000 1.0
C      1  0.4568010000000  0.5402450000000  0.5954460000000 1.0
C      1  0.4687430000000  0.5908210000000  0.4963530000000 1.0
C      1  0.5116110000000  0.4909160000000  0.3892550000000 1.0
C      1  0.5124680000000  0.3965300000000  0.4696160000000 1.0
C      1  0.5134470000000  0.4430730000000  0.5951620000000 1.0
C      1  0.5115990000000  0.5743670000000  0.5803170000000 1.0
C      1  0.5093900000000  0.6014660000000  0.4629900000000 1.0
C      1  0.4481580000000  0.4645170000000  0.5834400000000 1.0
C      1  0.4413670000000  0.5670240000000  0.5589260000000 1.0
C      1  0.4409930000000  0.5800020000000  0.4553280000000 1.0
C      1  0.4402370000000  0.4826960000000  0.4101560000000 1.0
C      1  0.4480310000000  0.4100520000000  0.4922870000000 1.0
C      1  0.4165520000000  0.5221500000000  0.5109340000000 1.0
C      1  0.4189040000000  0.5153700000000  0.4816790000000 1.0
C      1  0.4267230000000  0.4846370000000  0.4779040000000 1.0
C      1  0.4136310000000  0.4730540000000  0.5027270000000 1.0
C      1  0.4145800000000  0.4945520000000  0.5246940000000 1.0
C      1  0.4524910000000  0.4661980000000  0.4803840000000 1.0
C      1  0.4630880000000  0.4772010000000  0.5028150000000 1.0
C      1  0.4606140000000  0.5088280000000  0.5364200000000 1.0
C      1  0.4638320000000  0.5234790000000  0.5128280000000 1.0
C      1  0.4629780000000  0.5225370000000  0.4722570000000 1.0
C      1  0.5226680000000  0.5481020000000  0.5873060000000 1.0
C      1  0.5160480000000  0.6021710000000  0.4927190000000 1.0
C      1  0.5239890000000  0.5138200000000  0.4027570000000 1.0
C      1  0.5287790000000  0.4071080000000  0.4469090000000 1.0
C      1  0.5238410000000  0.4208700000000  0.5769940000000 1.0
C      1  0.5441400000000  0.5065050000000  0.4940750000000 1.0
C      1  0.4665000000000  0.5036190000000  0.4944070000000 1.0
END
