TITL C-2441166-8118-1128 0.121890515458423 125000 -22336.8935167596 0 0 171 (C1) n - 1
REM
REM in /home/bkarasulu/work/CARBON/AIRSS/Generating-Clusters/ReaxFF-fromJPCA2015/Units_Real/with-SteepDescent/Higher-Symm
REM
REM
REM
REM
REM
REM ./C.cell (1df0a924f5614ab8850e4351716899ee)
REM
REM compiler GCC version 9.2.1 20190827 (Red Hat 9.2.1-1)
REM options -cpp -mtune=generic -march=x86-64 -g -O0 -fpre-include=/usr/include/finclude/math-vector-fortran.h
REM seed -802939753 -565749936 -2042777377 1770668588 -2018696214 847636030 1713994667 1150923508 -1260324315 -864245294 958123104 477920189 1551011185 -1225559475 -755166103 -1901243821 -858050592 -1066318788 1651062972 176878686 -162318066 1213083572 1066248556 -1860512637 771828189 -28647336 -131039262 1033666376 103045958 1304334475 198226027 -481969190 581023325
REM
CELL 1.54180   50.00000   50.00000   50.00000   90.00000   90.00000   90.00000
LATT -1
SFAC C  
C      1  0.5761110000000  0.4322670000000  0.4912240000000 1.0
C      1  0.5417010000000  0.4354060000000  0.5289340000000 1.0
C      1  0.4935130000000  0.5196450000000  0.4427430000000 1.0
C      1  0.4465510000000  0.5353530000000  0.5755620000000 1.0
C      1  0.4729400000000  0.4190820000000  0.4616580000000 1.0
C      1  0.5711830000000  0.4495410000000  0.5678760000000 1.0
C      1  0.4019370000000  0.4711150000000  0.4649320000000 1.0
C      1  0.4789500000000  0.5486520000000  0.5210880000000 1.0
C      1  0.4314650000000  0.4801840000000  0.4818950000000 1.0
C      1  0.4831200000000  0.4756950000000  0.6021400000000 1.0
C      1  0.5596410000000  0.5151030000000  0.5201700000000 1.0
C      1  0.5864450000000  0.4868690000000  0.5426110000000 1.0
C      1  0.4961890000000  0.5830920000000  0.5776800000000 1.0
C      1  0.5196750000000  0.4413720000000  0.5477490000000 1.0
C      1  0.5081610000000  0.4238070000000  0.4306230000000 1.0
C      1  0.5377770000000  0.4584810000000  0.4574800000000 1.0
C      1  0.5079640000000  0.5103540000000  0.6123780000000 1.0
C      1  0.5323130000000  0.4888320000000  0.3954840000000 1.0
C      1  0.5299000000000  0.5935580000000  0.5450800000000 1.0
C      1  0.5470110000000  0.4351860000000  0.4225490000000 1.0
C      1  0.4443980000000  0.5308500000000  0.4949820000000 1.0
C      1  0.4252000000000  0.4188920000000  0.5043100000000 1.0
C      1  0.4735100000000  0.5315670000000  0.4622700000000 1.0
C      1  0.5958100000000  0.5132710000000  0.4569340000000 1.0
C      1  0.5317810000000  0.4269900000000  0.4482920000000 1.0
C      1  0.4719830000000  0.5872300000000  0.4502960000000 1.0
C      1  0.5064790000000  0.5410110000000  0.5110720000000 1.0
C      1  0.5217240000000  0.5716900000000  0.5899440000000 1.0
C      1  0.4626890000000  0.5127420000000  0.4820950000000 1.0
C      1  0.5646770000000  0.4581490000000  0.4218250000000 1.0
C      1  0.4898980000000  0.5382000000000  0.4201130000000 1.0
C      1  0.5076890000000  0.5642230000000  0.4928990000000 1.0
C      1  0.5574490000000  0.5713080000000  0.5137800000000 1.0
C      1  0.4606730000000  0.4438840000000  0.5022920000000 1.0
C      1  0.5179840000000  0.4947410000000  0.5484940000000 1.0
C      1  0.4814200000000  0.4238140000000  0.4372470000000 1.0
C      1  0.4993690000000  0.4622230000000  0.4749090000000 1.0
C      1  0.4835420000000  0.5052130000000  0.5941370000000 1.0
C      1  0.5372190000000  0.4052360000000  0.4712150000000 1.0
C      1  0.4381890000000  0.5004780000000  0.5946200000000 1.0
C      1  0.5212870000000  0.5390020000000  0.5368770000000 1.0
C      1  0.5917520000000  0.4701020000000  0.5650230000000 1.0
C      1  0.5671450000000  0.5449530000000  0.4689600000000 1.0
C      1  0.5826830000000  0.4863740000000  0.4621310000000 1.0
C      1  0.5575260000000  0.4833170000000  0.4085890000000 1.0
C      1  0.5110750000000  0.5449860000000  0.5910480000000 1.0
C      1  0.4233750000000  0.5506160000000  0.4912020000000 1.0
C      1  0.6071600000000  0.4904680000000  0.5239640000000 1.0
C      1  0.4679530000000  0.4161450000000  0.5078000000000 1.0
C      1  0.5753890000000  0.4421950000000  0.4655800000000 1.0
C      1  0.5322020000000  0.5752430000000  0.4807270000000 1.0
C      1  0.4301130000000  0.4618930000000  0.5629220000000 1.0
C      1  0.5775530000000  0.4879760000000  0.5827310000000 1.0
C      1  0.4114930000000  0.5351090000000  0.5272530000000 1.0
C      1  0.5368160000000  0.4772160000000  0.4854890000000 1.0
C      1  0.4873080000000  0.4520830000000  0.5847870000000 1.0
C      1  0.4473800000000  0.5608630000000  0.5634620000000 1.0
C      1  0.4689490000000  0.5180910000000  0.3868020000000 1.0
C      1  0.4175650000000  0.5030420000000  0.5525300000000 1.0
C      1  0.4940240000000  0.5938450000000  0.5057260000000 1.0
C      1  0.4676750000000  0.4812300000000  0.5130020000000 1.0
C      1  0.5561350000000  0.4143750000000  0.4871160000000 1.0
C      1  0.5246780000000  0.5167500000000  0.3957330000000 1.0
C      1  0.4583050000000  0.4824370000000  0.4708920000000 1.0
C      1  0.4895250000000  0.4972780000000  0.5057280000000 1.0
C      1  0.5866660000000  0.5655380000000  0.5070240000000 1.0
C      1  0.4456840000000  0.5104970000000  0.3948840000000 1.0
C      1  0.5391420000000  0.5035220000000  0.4459730000000 1.0
C      1  0.5388330000000  0.5136530000000  0.5417840000000 1.0
C      1  0.5587180000000  0.5044940000000  0.4254000000000 1.0
C      1  0.5408510000000  0.5785270000000  0.5688440000000 1.0
C      1  0.4008690000000  0.5172280000000  0.4771920000000 1.0
C      1  0.4723770000000  0.4587740000000  0.5302980000000 1.0
C      1  0.4257710000000  0.5046550000000  0.4693300000000 1.0
C      1  0.5199740000000  0.6077760000000  0.5008180000000 1.0
C      1  0.4660780000000  0.5728280000000  0.4238050000000 1.0
C      1  0.4326140000000  0.4334060000000  0.4814840000000 1.0
C      1  0.5262520000000  0.4095440000000  0.5221110000000 1.0
C      1  0.5151680000000  0.4645600000000  0.3944690000000 1.0
C      1  0.5815560000000  0.5351180000000  0.4447140000000 1.0
C      1  0.5921120000000  0.5502630000000  0.4820210000000 1.0
C      1  0.4468180000000  0.4574940000000  0.4311000000000 1.0
C      1  0.4291380000000  0.4833990000000  0.4235880000000 1.0
C      1  0.4714210000000  0.5716530000000  0.5706920000000 1.0
C      1  0.4819240000000  0.4121400000000  0.5528910000000 1.0
C      1  0.5206950000000  0.4781170000000  0.4429240000000 1.0
C      1  0.4717320000000  0.4590830000000  0.4806200000000 1.0
C      1  0.4282610000000  0.5552160000000  0.5371140000000 1.0
C      1  0.5054910000000  0.5372990000000  0.5643160000000 1.0
C      1  0.5648360000000  0.4718990000000  0.5287850000000 1.0
C      1  0.4121130000000  0.4259770000000  0.5274120000000 1.0
C      1  0.4347610000000  0.4168060000000  0.5445730000000 1.0
C      1  0.4878630000000  0.4600890000000  0.3965560000000 1.0
C      1  0.4000570000000  0.5083080000000  0.5300990000000 1.0
C      1  0.4287400000000  0.5712340000000  0.5136240000000 1.0
C      1  0.5503310000000  0.5253570000000  0.5729950000000 1.0
C      1  0.5310200000000  0.5138710000000  0.5949910000000 1.0
C      1  0.5013260000000  0.5919020000000  0.5494230000000 1.0
C      1  0.4684370000000  0.4748760000000  0.4438030000000 1.0
C      1  0.4851970000000  0.5549970000000  0.4763590000000 1.0
C      1  0.4951740000000  0.5672060000000  0.4214380000000 1.0
C      1  0.5396840000000  0.5382270000000  0.4086640000000 1.0
C      1  0.4516760000000  0.5900650000000  0.5185150000000 1.0
C      1  0.5443520000000  0.4651410000000  0.5115490000000 1.0
C      1  0.4707880000000  0.4322050000000  0.5711200000000 1.0
C      1  0.4594760000000  0.5204590000000  0.5954350000000 1.0
C      1  0.5278800000000  0.5532660000000  0.4470580000000 1.0
C      1  0.4019630000000  0.5298660000000  0.4513100000000 1.0
C      1  0.4438480000000  0.5568130000000  0.4286110000000 1.0
C      1  0.4233990000000  0.5182990000000  0.5764110000000 1.0
C      1  0.5080000000000  0.4447760000000  0.4961090000000 1.0
C      1  0.5705520000000  0.4615240000000  0.4494330000000 1.0
C      1  0.4957020000000  0.5238230000000  0.3952320000000 1.0
C      1  0.5480740000000  0.5640460000000  0.4610200000000 1.0
C      1  0.5507240000000  0.5221240000000  0.4916410000000 1.0
C      1  0.4632480000000  0.5552080000000  0.4949040000000 1.0
C      1  0.5094790000000  0.5093920000000  0.5729640000000 1.0
C      1  0.5244780000000  0.5602410000000  0.4214030000000 1.0
C      1  0.5193710000000  0.3989960000000  0.4951430000000 1.0
C      1  0.5096340000000  0.4142020000000  0.5443790000000 1.0
C      1  0.4625660000000  0.4841200000000  0.5515320000000 1.0
C      1  0.5196860000000  0.5280360000000  0.4550180000000 1.0
C      1  0.5408710000000  0.5961090000000  0.5179340000000 1.0
C      1  0.5682510000000  0.4337360000000  0.5431160000000 1.0
C      1  0.4391650000000  0.4849540000000  0.5129700000000 1.0
C      1  0.4643690000000  0.4565930000000  0.4077890000000 1.0
C      1  0.4989910000000  0.5926760000000  0.4535830000000 1.0
C      1  0.4422770000000  0.4356560000000  0.5658650000000 1.0
C      1  0.5534920000000  0.5538450000000  0.5623220000000 1.0
C      1  0.3947430000000  0.4830220000000  0.5129020000000 1.0
C      1  0.5094600000000  0.4931860000000  0.4842640000000 1.0
C      1  0.6038560000000  0.4645770000000  0.5096350000000 1.0
C      1  0.4193630000000  0.5513410000000  0.4607280000000 1.0
C      1  0.6019730000000  0.5228890000000  0.4831100000000 1.0
C      1  0.5145720000000  0.4513650000000  0.5761920000000 1.0
C      1  0.4811540000000  0.4046470000000  0.4837220000000 1.0
C      1  0.5795600000000  0.5262510000000  0.5403050000000 1.0
C      1  0.4569850000000  0.5833280000000  0.4761080000000 1.0
C      1  0.5028620000000  0.4558300000000  0.5240450000000 1.0
C      1  0.4799660000000  0.5817510000000  0.5300770000000 1.0
C      1  0.5201750000000  0.6005390000000  0.4710910000000 1.0
C      1  0.4538190000000  0.4156790000000  0.4424810000000 1.0
C      1  0.5094050000000  0.4808990000000  0.6136110000000 1.0
C      1  0.4937310000000  0.4877560000000  0.4387590000000 1.0
C      1  0.3898340000000  0.4912680000000  0.4860860000000 1.0
C      1  0.5777340000000  0.5145870000000  0.5692450000000 1.0
C      1  0.4650300000000  0.6018690000000  0.4961490000000 1.0
C      1  0.5037110000000  0.4180630000000  0.4871770000000 1.0
C      1  0.5569070000000  0.4671360000000  0.5869760000000 1.0
C      1  0.5462870000000  0.5541460000000  0.5346000000000 1.0
C      1  0.5849590000000  0.4440850000000  0.5202030000000 1.0
C      1  0.4427320000000  0.5039520000000  0.5366930000000 1.0
C      1  0.4435930000000  0.5393880000000  0.4485670000000 1.0
C      1  0.5283970000000  0.4679060000000  0.5941730000000 1.0
C      1  0.5654650000000  0.5304160000000  0.4202840000000 1.0
C      1  0.5204130000000  0.5218800000000  0.4867250000000 1.0
C      1  0.4486740000000  0.4783180000000  0.5783460000000 1.0
C      1  0.4603740000000  0.4060660000000  0.5340460000000 1.0
C      1  0.4816620000000  0.5042240000000  0.5454540000000 1.0
C      1  0.5080710000000  0.4848090000000  0.5238210000000 1.0
C      1  0.5885460000000  0.5498580000000  0.5298210000000 1.0
C      1  0.5904940000000  0.4799570000000  0.4886730000000 1.0
C      1  0.4063600000000  0.4535840000000  0.5163660000000 1.0
C      1  0.4119540000000  0.4956420000000  0.4438920000000 1.0
C      1  0.4506790000000  0.4992090000000  0.4152420000000 1.0
C      1  0.4260750000000  0.4654950000000  0.5333500000000 1.0
C      1  0.4352940000000  0.4342850000000  0.4533970000000 1.0
C      1  0.4671020000000  0.5259930000000  0.5362800000000 1.0
C      1  0.5545450000000  0.4986910000000  0.4725200000000 1.0
C      1  0.5928590000000  0.5040530000000  0.5031050000000 1.0
C      1  0.5213300000000  0.4394590000000  0.4096350000000 1.0
END
