TITL C-2441165-58-905 0.121694072466886 125000 -18075.4418770589 0 0 140 (C1) n - 1
REM
REM in /home/bkarasulu/work/CARBON/AIRSS/Generating-Clusters/ReaxFF-fromJPCA2015/Units_Real/with-SteepDescent/Higher-Symm
REM
REM
REM
REM
REM
REM ./C.cell (1df0a924f5614ab8850e4351716899ee)
REM
REM compiler GCC version 9.2.1 20190827 (Red Hat 9.2.1-1)
REM options -cpp -mtune=generic -march=x86-64 -g -O0 -fpre-include=/usr/include/finclude/math-vector-fortran.h
REM seed -190010153 -2013419173 1540955312 600102089 -474120761 248813735 975329351 -1926244244 -1808611646 -1969085300 1314495782 1182847413 -1306852176 876594817 -1571689230 1053198885 -2027620887 -1197347764 1210541525 7308885 435382301 -1468383646 -340201540 -1040790348 1665730486 586488852 -843716387 1868182758 -1027695005 -544879812 -199244877 -840450946 1954403383
REM
CELL 1.54180   50.00000   50.00000   50.00000   90.00000   90.00000   90.00000
LATT -1
SFAC C  
C      1  0.4445390000000  0.4553800000000  0.4255860000000 1.0
C      1  0.5751470000000  0.4545290000000  0.4449750000000 1.0
C      1  0.5537070000000  0.4544780000000  0.5736920000000 1.0
C      1  0.4262410000000  0.4548610000000  0.5549710000000 1.0
C      1  0.4464920000000  0.4546150000000  0.5749510000000 1.0
C      1  0.5746270000000  0.4553400000000  0.5540590000000 1.0
C      1  0.5540770000000  0.4536540000000  0.4249470000000 1.0
C      1  0.4255920000000  0.4555520000000  0.4469630000000 1.0
C      1  0.5138510000000  0.5930670000000  0.5351150000000 1.0
C      1  0.4643950000000  0.5939660000000  0.5142940000000 1.0
C      1  0.4856930000000  0.5943160000000  0.4646240000000 1.0
C      1  0.5352620000000  0.5940450000000  0.4862210000000 1.0
C      1  0.5145240000000  0.5942730000000  0.4651090000000 1.0
C      1  0.4645130000000  0.5945420000000  0.4852140000000 1.0
C      1  0.4851630000000  0.5952410000000  0.5351900000000 1.0
C      1  0.5353070000000  0.5950410000000  0.5151460000000 1.0
C      1  0.4857460000000  0.4794790000000  0.6011710000000 1.0
C      1  0.3984520000000  0.4789900000000  0.4842550000000 1.0
C      1  0.5153820000000  0.4800070000000  0.4017390000000 1.0
C      1  0.6019930000000  0.4826430000000  0.5141970000000 1.0
C      1  0.4869070000000  0.4798040000000  0.3981170000000 1.0
C      1  0.3990950000000  0.4790030000000  0.5131840000000 1.0
C      1  0.5144180000000  0.4794080000000  0.6025670000000 1.0
C      1  0.6000320000000  0.4821120000000  0.4855370000000 1.0
C      1  0.5138210000000  0.4159540000000  0.5363260000000 1.0
C      1  0.4633650000000  0.4173020000000  0.5151990000000 1.0
C      1  0.4859120000000  0.4141660000000  0.4664380000000 1.0
C      1  0.5335350000000  0.4141160000000  0.4850930000000 1.0
C      1  0.5150720000000  0.4145380000000  0.4620990000000 1.0
C      1  0.4649550000000  0.4190470000000  0.4858600000000 1.0
C      1  0.4843070000000  0.4161870000000  0.5367160000000 1.0
C      1  0.5329760000000  0.4146570000000  0.5138430000000 1.0
C      1  0.5334080000000  0.5027740000000  0.5143650000000 1.0
C      1  0.4856970000000  0.5017990000000  0.5317320000000 1.0
C      1  0.4614830000000  0.5150770000000  0.4843450000000 1.0
C      1  0.5156960000000  0.5182900000000  0.4656100000000 1.0
C      1  0.5384720000000  0.5168030000000  0.4850910000000 1.0
C      1  0.4819370000000  0.5153800000000  0.4624740000000 1.0
C      1  0.4621140000000  0.5143600000000  0.5165900000000 1.0
C      1  0.5161740000000  0.5130650000000  0.5383160000000 1.0
C      1  0.4759270000000  0.5688500000000  0.5428360000000 1.0
C      1  0.4586230000000  0.5675660000000  0.4765290000000 1.0
C      1  0.5238150000000  0.5678280000000  0.4583970000000 1.0
C      1  0.5438930000000  0.5688540000000  0.5247270000000 1.0
C      1  0.4766410000000  0.5676320000000  0.4585700000000 1.0
C      1  0.4597720000000  0.5671130000000  0.5233460000000 1.0
C      1  0.5227640000000  0.5660830000000  0.5396820000000 1.0
C      1  0.5416140000000  0.5673840000000  0.4772430000000 1.0
C      1  0.5292720000000  0.4409880000000  0.5669440000000 1.0
C      1  0.4319670000000  0.4409810000000  0.5301940000000 1.0
C      1  0.4693470000000  0.4416120000000  0.4285260000000 1.0
C      1  0.5689990000000  0.4429600000000  0.4705300000000 1.0
C      1  0.5293580000000  0.4396540000000  0.4333200000000 1.0
C      1  0.4343100000000  0.4425950000000  0.4713270000000 1.0
C      1  0.4708090000000  0.4407440000000  0.5675220000000 1.0
C      1  0.5685570000000  0.4430070000000  0.5290410000000 1.0
C      1  0.4345190000000  0.5111300000000  0.4136280000000 1.0
C      1  0.5871720000000  0.5093470000000  0.4321560000000 1.0
C      1  0.5650940000000  0.5084500000000  0.5863670000000 1.0
C      1  0.4132860000000  0.5109680000000  0.5663750000000 1.0
C      1  0.4337290000000  0.5107360000000  0.5868150000000 1.0
C      1  0.5861630000000  0.5089660000000  0.5662680000000 1.0
C      1  0.5657880000000  0.5075360000000  0.4123530000000 1.0
C      1  0.4141730000000  0.5106570000000  0.4343050000000 1.0
C      1  0.5225810000000  0.4915520000000  0.4553550000000 1.0
C      1  0.5587920000000  0.4943590000000  0.5252700000000 1.0
C      1  0.4722310000000  0.4943660000000  0.5569660000000 1.0
C      1  0.4448000000000  0.4924010000000  0.4746040000000 1.0
C      1  0.5245460000000  0.4952300000000  0.5593270000000 1.0
C      1  0.5537340000000  0.4940590000000  0.4725880000000 1.0
C      1  0.4732540000000  0.4942200000000  0.4441120000000 1.0
C      1  0.4431330000000  0.4947020000000  0.5272040000000 1.0
C      1  0.5186020000000  0.4453760000000  0.5392720000000 1.0
C      1  0.4596240000000  0.4456050000000  0.5216550000000 1.0
C      1  0.4821320000000  0.4413170000000  0.4554930000000 1.0
C      1  0.5405520000000  0.4428830000000  0.4803540000000 1.0
C      1  0.5193200000000  0.4423710000000  0.4587840000000 1.0
C      1  0.4628970000000  0.4480630000000  0.4779560000000 1.0
C      1  0.4811200000000  0.4450010000000  0.5411310000000 1.0
C      1  0.5409260000000  0.4435230000000  0.5173810000000 1.0
C      1  0.4476830000000  0.5444700000000  0.5153040000000 1.0
C      1  0.4852840000000  0.5450020000000  0.4467740000000 1.0
C      1  0.5543670000000  0.5447660000000  0.4875550000000 1.0
C      1  0.5132140000000  0.5433590000000  0.5520100000000 1.0
C      1  0.4470580000000  0.5447430000000  0.4862820000000 1.0
C      1  0.4857620000000  0.5473650000000  0.5554390000000 1.0
C      1  0.5580020000000  0.5485330000000  0.5144910000000 1.0
C      1  0.5145730000000  0.5451950000000  0.4469130000000 1.0
C      1  0.5841490000000  0.5517260000000  0.4848760000000 1.0
C      1  0.5140790000000  0.5524920000000  0.5837150000000 1.0
C      1  0.4170400000000  0.5520220000000  0.5152410000000 1.0
C      1  0.4857040000000  0.5521190000000  0.4164160000000 1.0
C      1  0.5866070000000  0.5531570000000  0.5135810000000 1.0
C      1  0.5153100000000  0.5507740000000  0.4161800000000 1.0
C      1  0.4166100000000  0.5520210000000  0.4857230000000 1.0
C      1  0.4844490000000  0.5530530000000  0.5849140000000 1.0
C      1  0.5884430000000  0.5289660000000  0.4683950000000 1.0
C      1  0.5304450000000  0.5308050000000  0.5920910000000 1.0
C      1  0.4077280000000  0.5293690000000  0.5299290000000 1.0
C      1  0.4713110000000  0.5289260000000  0.4080190000000 1.0
C      1  0.5898900000000  0.5309710000000  0.5314950000000 1.0
C      1  0.5285190000000  0.5260560000000  0.4109450000000 1.0
C      1  0.4083180000000  0.5290450000000  0.4707270000000 1.0
C      1  0.4698070000000  0.5292780000000  0.5931510000000 1.0
C      1  0.4183770000000  0.5015070000000  0.4852790000000 1.0
C      1  0.5162690000000  0.5004280000000  0.4229000000000 1.0
C      1  0.5823060000000  0.5051350000000  0.5154340000000 1.0
C      1  0.4841370000000  0.5025850000000  0.5823710000000 1.0
C      1  0.4175180000000  0.5017200000000  0.5151780000000 1.0
C      1  0.5147750000000  0.5030680000000  0.5839430000000 1.0
C      1  0.5799950000000  0.5042870000000  0.4832120000000 1.0
C      1  0.4858730000000  0.5012720000000  0.4189030000000 1.0
C      1  0.5920240000000  0.4546210000000  0.5156190000000 1.0
C      1  0.4852390000000  0.4520920000000  0.5904080000000 1.0
C      1  0.4110650000000  0.4523240000000  0.4848570000000 1.0
C      1  0.5151580000000  0.4521310000000  0.4105980000000 1.0
C      1  0.5913290000000  0.4540480000000  0.4856710000000 1.0
C      1  0.4861790000000  0.4519610000000  0.4069880000000 1.0
C      1  0.4098350000000  0.4518330000000  0.5133730000000 1.0
C      1  0.5151940000000  0.4523860000000  0.5907240000000 1.0
C      1  0.4282010000000  0.4850590000000  0.5511890000000 1.0
C      1  0.4494150000000  0.4854750000000  0.4292550000000 1.0
C      1  0.5714630000000  0.4855860000000  0.4478570000000 1.0
C      1  0.5489800000000  0.4861310000000  0.5708120000000 1.0
C      1  0.4299200000000  0.4853910000000  0.4498420000000 1.0
C      1  0.4487240000000  0.4850720000000  0.5710440000000 1.0
C      1  0.5698220000000  0.4865570000000  0.5503430000000 1.0
C      1  0.5541930000000  0.4829240000000  0.4239520000000 1.0
C      1  0.5772350000000  0.5345890000000  0.4418360000000 1.0
C      1  0.5559240000000  0.5350660000000  0.5791280000000 1.0
C      1  0.4215440000000  0.5356420000000  0.5541850000000 1.0
C      1  0.4471260000000  0.5356000000000  0.4214160000000 1.0
C      1  0.5786240000000  0.5356260000000  0.5576290000000 1.0
C      1  0.5542370000000  0.5338730000000  0.4218650000000 1.0
C      1  0.4218030000000  0.5354590000000  0.4463160000000 1.0
C      1  0.4458940000000  0.5355630000000  0.5790130000000 1.0
C      1  0.5074380000000  0.4776120000000  0.4768680000000 1.0
C      1  0.4900730000000  0.4789020000000  0.5140690000000 1.0
C      1  0.5163530000000  0.4812630000000  0.5041780000000 1.0
C      1  0.4794910000000  0.4747080000000  0.4872050000000 1.0
END
