TITL C-2441169-1362-128 0.0031476878706955 125000 -9186.44999709923 0 0 65 (C1) n - 1
REM
REM in /home/bkarasulu/work/CARBON/AIRSS/Generating-Clusters/ReaxFF-fromJPCA2015/Units_Real/with-SteepDescent/Higher-Symm
REM
REM
REM
REM
REM
REM ./C.cell (1df0a924f5614ab8850e4351716899ee)
REM
REM compiler GCC version 9.2.1 20190827 (Red Hat 9.2.1-1)
REM options -cpp -mtune=generic -march=x86-64 -g -O0 -fpre-include=/usr/include/finclude/math-vector-fortran.h
REM seed -348613678 1062656450 1273549927 -148981880 -1116622692 903688443 -449342255 -1494334513 1930878920 -867000562 780383369 -1022346407 -348961908 1370837397 -1152805883 1209519223 -421356401 -1442756227 329663757 -412254129 -495700502 -2061474646 -419700667 1692041513 967258749 454756118 690332802 -1606275105 -1585360840 -525844565 -1894624843 901680874 -1237797815
REM
CELL 1.54180   50.00000   50.00000   50.00000   90.00000   90.00000   90.00000
LATT -1
SFAC C  
C      1  0.5531960000000  0.4830670000000  0.5336490000000 1.0
C      1  0.5530510000000  0.4782070000000  0.4702160000000 1.0
C      1  0.5540140000000  0.5384750000000  0.4919350000000 1.0
C      1  0.4443430000000  0.4848150000000  0.5363850000000 1.0
C      1  0.4441960000000  0.4793380000000  0.4694260000000 1.0
C      1  0.4437670000000  0.5374910000000  0.4948020000000 1.0
C      1  0.4685470000000  0.4395380000000  0.4730640000000 1.0
C      1  0.4691850000000  0.5561500000000  0.4594490000000 1.0
C      1  0.4691760000000  0.5103600000000  0.5643390000000 1.0
C      1  0.5287540000000  0.4373830000000  0.4716570000000 1.0
C      1  0.5285150000000  0.5519360000000  0.4586560000000 1.0
C      1  0.5269380000000  0.5089950000000  0.5628020000000 1.0
C      1  0.5493750000000  0.5371480000000  0.4456610000000 1.0
C      1  0.5503630000000  0.5244570000000  0.5575480000000 1.0
C      1  0.5506960000000  0.4380520000000  0.4898630000000 1.0
C      1  0.4474400000000  0.5395120000000  0.4501200000000 1.0
C      1  0.4468530000000  0.5267880000000  0.5575740000000 1.0
C      1  0.4462400000000  0.4390530000000  0.4908350000000 1.0
C      1  0.5447790000000  0.4555540000000  0.4533920000000 1.0
C      1  0.5408210000000  0.5651750000000  0.4821160000000 1.0
C      1  0.5447380000000  0.4848510000000  0.5618440000000 1.0
C      1  0.4523160000000  0.4558720000000  0.4537740000000 1.0
C      1  0.4522950000000  0.5629870000000  0.4835370000000 1.0
C      1  0.4555090000000  0.4834290000000  0.5639130000000 1.0
C      1  0.4827710000000  0.4604990000000  0.4894770000000 1.0
C      1  0.4837170000000  0.5321270000000  0.4701090000000 1.0
C      1  0.4842060000000  0.5096560000000  0.5372580000000 1.0
C      1  0.5118140000000  0.4579210000000  0.4863070000000 1.0
C      1  0.5128110000000  0.5283940000000  0.4727670000000 1.0
C      1  0.5137070000000  0.5099270000000  0.5346670000000 1.0
C      1  0.5662210000000  0.4527370000000  0.5049380000000 1.0
C      1  0.5652750000000  0.5258620000000  0.4651180000000 1.0
C      1  0.5649130000000  0.5289310000000  0.5375490000000 1.0
C      1  0.4316530000000  0.4542660000000  0.5052810000000 1.0
C      1  0.4314810000000  0.5198600000000  0.4563290000000 1.0
C      1  0.4311760000000  0.5304610000000  0.5383920000000 1.0
C      1  0.4708740000000  0.4866790000000  0.5244290000000 1.0
C      1  0.4703380000000  0.4885310000000  0.4799140000000 1.0
C      1  0.4698890000000  0.5228720000000  0.4951490000000 1.0
C      1  0.5266250000000  0.4858990000000  0.5193100000000 1.0
C      1  0.5264770000000  0.4843340000000  0.4827660000000 1.0
C      1  0.5255230000000  0.5272630000000  0.4996460000000 1.0
C      1  0.4216840000000  0.5271970000000  0.5115200000000 1.0
C      1  0.4218430000000  0.4776280000000  0.5180560000000 1.0
C      1  0.4211630000000  0.4978680000000  0.4715740000000 1.0
C      1  0.5750470000000  0.5268070000000  0.5118950000000 1.0
C      1  0.5767700000000  0.4760350000000  0.5174360000000 1.0
C      1  0.5739470000000  0.4983930000000  0.4730040000000 1.0
C      1  0.4773720000000  0.5682840000000  0.4989830000000 1.0
C      1  0.4762380000000  0.4632270000000  0.5598690000000 1.0
C      1  0.4771170000000  0.4651490000000  0.4394380000000 1.0
C      1  0.5209030000000  0.5720760000000  0.5017280000000 1.0
C      1  0.5201530000000  0.4673390000000  0.5616570000000 1.0
C      1  0.5199420000000  0.4667880000000  0.4408560000000 1.0
C      1  0.4845180000000  0.4908680000000  0.4537160000000 1.0
C      1  0.4834230000000  0.5430690000000  0.5146360000000 1.0
C      1  0.4843770000000  0.4605940000000  0.5299630000000 1.0
C      1  0.5131220000000  0.4930840000000  0.4557010000000 1.0
C      1  0.5124170000000  0.5464310000000  0.5175910000000 1.0
C      1  0.5131450000000  0.4627340000000  0.5327870000000 1.0
C      1  0.4989540000000  0.4480710000000  0.4466970000000 1.0
C      1  0.4959940000000  0.4807840000000  0.5700420000000 1.0
C      1  0.5006190000000  0.5716300000000  0.4820430000000 1.0
C      1  0.4160360000000  0.5005460000000  0.5004910000000 1.0
C      1  0.5816460000000  0.5003960000000  0.5009680000000 1.0
END
