TITL C-2441157-2117-698 0.0380890363850906 125000 -8712.08812420714 0 0 69 (C1) n - 1
REM
REM in /home/bkarasulu/work/CARBON/AIRSS/Generating-Clusters/ReaxFF-fromJPCA2015/Units_Real/with-SteepDescent/Higher-Symm
REM
REM
REM
REM
REM
REM ./C.cell (1df0a924f5614ab8850e4351716899ee)
REM
REM compiler GCC version 9.2.1 20190827 (Red Hat 9.2.1-1)
REM options -cpp -mtune=generic -march=x86-64 -g -O0 -fpre-include=/usr/include/finclude/math-vector-fortran.h
REM seed -1165452689 1753417885 1587345862 -111617581 -1243324917 -878821974 -1394764862 929755677 -1030827302 1739506627 1874067620 -831620732 -523153223 1004785868 -1557900940 415610909 327955754 1183841339 -143371062 -2060720136 2029820874 1369614378 -592349610 923978595 1733630621 -54663991 1009748396 -1784551002 -866470460 2138429031 -1129275670 -4029972 1802941406
REM
CELL 1.54180   50.00000   50.00000   50.00000   90.00000   90.00000   90.00000
LATT -1
SFAC C  
C      1  0.5518260000000  0.5465940000000  0.4837260000000 1.0
C      1  0.5480440000000  0.4851520000000  0.5552040000000 1.0
C      1  0.4853370000000  0.5545030000000  0.5483190000000 1.0
C      1  0.4454910000000  0.4513950000000  0.4839200000000 1.0
C      1  0.5528590000000  0.4516220000000  0.5133030000000 1.0
C      1  0.4459140000000  0.5458560000000  0.5164350000000 1.0
C      1  0.4521670000000  0.5154130000000  0.5558870000000 1.0
C      1  0.5486300000000  0.5143630000000  0.4482600000000 1.0
C      1  0.4521240000000  0.4859030000000  0.4471670000000 1.0
C      1  0.5170590000000  0.4484070000000  0.5481670000000 1.0
C      1  0.4841830000000  0.4455780000000  0.4509250000000 1.0
C      1  0.5141260000000  0.5544360000000  0.4501910000000 1.0
C      1  0.5528710000000  0.5480860000000  0.5141450000000 1.0
C      1  0.5537890000000  0.4870380000000  0.4580220000000 1.0
C      1  0.4842540000000  0.5529470000000  0.4507990000000 1.0
C      1  0.4459880000000  0.4507980000000  0.5145190000000 1.0
C      1  0.5512300000000  0.4515670000000  0.4827250000000 1.0
C      1  0.4452750000000  0.5492230000000  0.4855520000000 1.0
C      1  0.4510720000000  0.5165440000000  0.4486850000000 1.0
C      1  0.5479200000000  0.5153590000000  0.5560400000000 1.0
C      1  0.4510160000000  0.4842790000000  0.5541150000000 1.0
C      1  0.5146720000000  0.4471620000000  0.4502640000000 1.0
C      1  0.4857710000000  0.4506390000000  0.5486050000000 1.0
C      1  0.5164340000000  0.5520540000000  0.5483840000000 1.0
C      1  0.5705880000000  0.5243510000000  0.5129220000000 1.0
C      1  0.5211700000000  0.5158290000000  0.5687490000000 1.0
C      1  0.5176820000000  0.5683820000000  0.5238200000000 1.0
C      1  0.4269130000000  0.4733340000000  0.5136390000000 1.0
C      1  0.5694370000000  0.4752180000000  0.4807900000000 1.0
C      1  0.4289740000000  0.5245710000000  0.4827130000000 1.0
C      1  0.4746740000000  0.4833440000000  0.5692250000000 1.0
C      1  0.5240620000000  0.4812580000000  0.4295780000000 1.0
C      1  0.4751120000000  0.5178000000000  0.4308520000000 1.0
C      1  0.4871720000000  0.4306750000000  0.5263890000000 1.0
C      1  0.5147960000000  0.4325980000000  0.4759440000000 1.0
C      1  0.4853660000000  0.5711300000000  0.4743020000000 1.0
C      1  0.5620060000000  0.5200640000000  0.4861430000000 1.0
C      1  0.5274090000000  0.5096810000000  0.4291310000000 1.0
C      1  0.5142190000000  0.5691970000000  0.4749740000000 1.0
C      1  0.4275140000000  0.4743680000000  0.4843200000000 1.0
C      1  0.5698990000000  0.4751500000000  0.5102940000000 1.0
C      1  0.4268930000000  0.5237440000000  0.5127790000000 1.0
C      1  0.4737070000000  0.4880220000000  0.4277250000000 1.0
C      1  0.5201130000000  0.4865270000000  0.5637820000000 1.0
C      1  0.4771120000000  0.5120540000000  0.5703870000000 1.0
C      1  0.4853360000000  0.4294500000000  0.4753490000000 1.0
C      1  0.5169550000000  0.4330050000000  0.5232910000000 1.0
C      1  0.4875020000000  0.5723490000000  0.5253550000000 1.0
C      1  0.5108280000000  0.4535010000000  0.5003050000000 1.0
C      1  0.4421710000000  0.4984920000000  0.5142390000000 1.0
C      1  0.5021310000000  0.5132500000000  0.4440310000000 1.0
C      1  0.4824200000000  0.5560660000000  0.5002560000000 1.0
C      1  0.5122060000000  0.5522520000000  0.4989270000000 1.0
C      1  0.4824080000000  0.4450300000000  0.5010600000000 1.0
C      1  0.5565330000000  0.4989990000000  0.5200650000000 1.0
C      1  0.4442390000000  0.4990830000000  0.4847360000000 1.0
C      1  0.5381530000000  0.4980030000000  0.4969440000000 1.0
C      1  0.4988980000000  0.4838910000000  0.4436380000000 1.0
C      1  0.5068410000000  0.4913380000000  0.5357100000000 1.0
C      1  0.4971460000000  0.5156200000000  0.5485230000000 1.0
C      1  0.5402900000000  0.4630110000000  0.5372220000000 1.0
C      1  0.5362080000000  0.5381400000000  0.4603610000000 1.0
C      1  0.4627490000000  0.5371290000000  0.5391340000000 1.0
C      1  0.4629230000000  0.4624050000000  0.4625860000000 1.0
C      1  0.5334030000000  0.4668460000000  0.4637230000000 1.0
C      1  0.4636920000000  0.5373110000000  0.4649610000000 1.0
C      1  0.5383710000000  0.5352510000000  0.5368520000000 1.0
C      1  0.4632300000000  0.4640150000000  0.5353240000000 1.0
C      1  0.5148350000000  0.4855150000000  0.5078910000000 1.0
END
