TITL C-2441156-4686-874 0.000503899222540934 125000 -4526.00902248745 0 0 31 (C1) n - 1
REM
REM in /home/bkarasulu/work/CARBON/AIRSS/Generating-Clusters/ReaxFF-fromJPCA2015/Units_Real/with-SteepDescent/Higher-Symm
REM
REM
REM
REM
REM
REM ./C.cell (1df0a924f5614ab8850e4351716899ee)
REM
REM compiler GCC version 9.2.1 20190827 (Red Hat 9.2.1-1)
REM options -cpp -mtune=generic -march=x86-64 -g -O0 -fpre-include=/usr/include/finclude/math-vector-fortran.h
REM seed -192594813 -1618814246 -1559351750 890234091 1417724525 -1801351452 515498638 -1783902883 1808472211 -1997793916 -832586727 2015466349 1934863995 1785065271 -1789606257 -507087067 1085497643 -2116595766 163013938 -1009581842 1295026358 -2053991527 224594355 -1384054833 -1607156486 2043568963 -1272219231 -1809886938 -855893587 -672132300 430752256 -1517312506 66285401
REM
CELL 1.54180   50.00000   50.00000   50.00000   90.00000   90.00000   90.00000
LATT -1
SFAC C  
C      1  0.5386590000000  0.5415370000000  0.5230760000000 1.0
C      1  0.4787380000000  0.5491810000000  0.5173190000000 1.0
C      1  0.4461470000000  0.5138860000000  0.5225250000000 1.0
C      1  0.4690680000000  0.4586990000000  0.5169700000000 1.0
C      1  0.5158070000000  0.4480240000000  0.5225820000000 1.0
C      1  0.5529200000000  0.4951430000000  0.5177800000000 1.0
C      1  0.5368470000000  0.4512600000000  0.5036990000000 1.0
C      1  0.4902170000000  0.4399700000000  0.5093700000000 1.0
C      1  0.4385030000000  0.4942220000000  0.5034290000000 1.0
C      1  0.4521600000000  0.5402320000000  0.5093890000000 1.0
C      1  0.5261930000000  0.5554590000000  0.5021830000000 1.0
C      1  0.5583760000000  0.5231220000000  0.5096100000000 1.0
C      1  0.4621040000000  0.4634090000000  0.4887560000000 1.0
C      1  0.5121070000000  0.4545940000000  0.4720770000000 1.0
C      1  0.5528420000000  0.4869250000000  0.4890120000000 1.0
C      1  0.5264350000000  0.5269340000000  0.4696030000000 1.0
C      1  0.4864280000000  0.5544340000000  0.4891910000000 1.0
C      1  0.4542990000000  0.5140890000000  0.4721490000000 1.0
C      1  0.4599190000000  0.5404220000000  0.4801690000000 1.0
C      1  0.5134490000000  0.5552550000000  0.4781410000000 1.0
C      1  0.5534200000000  0.5151180000000  0.4816270000000 1.0
C      1  0.5394470000000  0.4605620000000  0.4771370000000 1.0
C      1  0.4860920000000  0.4467000000000  0.4798470000000 1.0
C      1  0.4459720000000  0.4869650000000  0.4769750000000 1.0
C      1  0.4905670000000  0.5283660000000  0.5352930000000 1.0
C      1  0.4812400000000  0.4792660000000  0.5352940000000 1.0
C      1  0.5096440000000  0.4737760000000  0.5368170000000 1.0
C      1  0.5284880000000  0.4958280000000  0.5350170000000 1.0
C      1  0.5191470000000  0.5233160000000  0.5367200000000 1.0
C      1  0.4715150000000  0.5064780000000  0.5369260000000 1.0
C      1  0.5084440000000  0.5087910000000  0.4668630000000 1.0
END
