TITL C-2441167-4473-301 0.0624449130092605 125000 -22527.7527692069 0 0 162 (C1) n - 1
REM
REM in /home/bkarasulu/work/CARBON/AIRSS/Generating-Clusters/ReaxFF-fromJPCA2015/Units_Real/with-SteepDescent/Higher-Symm
REM
REM
REM
REM
REM
REM ./C.cell (1df0a924f5614ab8850e4351716899ee)
REM
REM compiler GCC version 9.2.1 20190827 (Red Hat 9.2.1-1)
REM options -cpp -mtune=generic -march=x86-64 -g -O0 -fpre-include=/usr/include/finclude/math-vector-fortran.h
REM seed 1454217393 383410538 -553832708 -1017856637 1955767210 385295525 1704213294 327036012 -361825710 1943728969 30672306 -662303962 -2011525167 -1891304025 -299841332 1166409340 -248059046 -144614574 -900259020 -1823566041 -934932065 720775087 1041524222 -2016235898 -801454585 -384377509 848404585 -1841621782 1577962878 128974333 917839316 631717049 1598355943
REM
CELL 1.54180   50.00000   50.00000   50.00000   90.00000   90.00000   90.00000
LATT -1
SFAC C  
C      1  0.5300520000000  0.4485590000000  0.5451450000000 1.0
C      1  0.5773200000000  0.5051600000000  0.4540650000000 1.0
C      1  0.5371550000000  0.5648120000000  0.5500290000000 1.0
C      1  0.4687490000000  0.5533940000000  0.4526080000000 1.0
C      1  0.4210150000000  0.4954900000000  0.5465690000000 1.0
C      1  0.4692840000000  0.4349060000000  0.4590140000000 1.0
C      1  0.5146250000000  0.5347630000000  0.4966930000000 1.0
C      1  0.4733280000000  0.5310950000000  0.5079350000000 1.0
C      1  0.4529830000000  0.4979250000000  0.4967980000000 1.0
C      1  0.4816850000000  0.4656660000000  0.5006530000000 1.0
C      1  0.5232670000000  0.4717890000000  0.4936330000000 1.0
C      1  0.5470590000000  0.5058800000000  0.5020660000000 1.0
C      1  0.3948040000000  0.4805280000000  0.4751770000000 1.0
C      1  0.4662320000000  0.4046300000000  0.5285610000000 1.0
C      1  0.5647490000000  0.4180560000000  0.4716010000000 1.0
C      1  0.6028280000000  0.5192390000000  0.5215600000000 1.0
C      1  0.5363110000000  0.5929760000000  0.4720520000000 1.0
C      1  0.4330960000000  0.5816950000000  0.5260240000000 1.0
C      1  0.4500930000000  0.4634780000000  0.4293040000000 1.0
C      1  0.5121140000000  0.4348860000000  0.5836780000000 1.0
C      1  0.5547730000000  0.4756720000000  0.4280020000000 1.0
C      1  0.5527730000000  0.5332050000000  0.5732430000000 1.0
C      1  0.4849530000000  0.5641270000000  0.4123840000000 1.0
C      1  0.4434110000000  0.5229120000000  0.5732170000000 1.0
C      1  0.4681580000000  0.4742070000000  0.4086240000000 1.0
C      1  0.5028050000000  0.4601350000000  0.5946980000000 1.0
C      1  0.5357440000000  0.4859180000000  0.4086980000000 1.0
C      1  0.5333110000000  0.5239470000000  0.5922990000000 1.0
C      1  0.4965890000000  0.5387020000000  0.4053740000000 1.0
C      1  0.4628980000000  0.5138020000000  0.5925690000000 1.0
C      1  0.4095600000000  0.4499710000000  0.5391290000000 1.0
C      1  0.4967910000000  0.4019740000000  0.4671630000000 1.0
C      1  0.5807330000000  0.4429730000000  0.5318500000000 1.0
C      1  0.5882800000000  0.5465390000000  0.4650910000000 1.0
C      1  0.5032840000000  0.6005930000000  0.5377980000000 1.0
C      1  0.4149590000000  0.5568430000000  0.4620370000000 1.0
C      1  0.5437870000000  0.4384690000000  0.4701300000000 1.0
C      1  0.5797100000000  0.5115570000000  0.5370650000000 1.0
C      1  0.5302890000000  0.5648010000000  0.4697580000000 1.0
C      1  0.4481790000000  0.5621270000000  0.5415440000000 1.0
C      1  0.4175750000000  0.4894250000000  0.4595970000000 1.0
C      1  0.4755950000000  0.4306680000000  0.5348400000000 1.0
C      1  0.5379290000000  0.4399780000000  0.4201410000000 1.0
C      1  0.5670600000000  0.4950110000000  0.5763240000000 1.0
C      1  0.5312640000000  0.5633530000000  0.4222420000000 1.0
C      1  0.4666490000000  0.5564900000000  0.5767440000000 1.0
C      1  0.4332330000000  0.5029780000000  0.4221270000000 1.0
C      1  0.4673620000000  0.4410940000000  0.5747050000000 1.0
C      1  0.4747240000000  0.4630640000000  0.5899900000000 1.0
C      1  0.5201430000000  0.4618530000000  0.4109530000000 1.0
C      1  0.5420050000000  0.4964230000000  0.5905690000000 1.0
C      1  0.5244840000000  0.5376920000000  0.4114520000000 1.0
C      1  0.4810490000000  0.5363790000000  0.5904570000000 1.0
C      1  0.4583620000000  0.5013940000000  0.4080940000000 1.0
C      1  0.5209710000000  0.3934160000000  0.4828170000000 1.0
C      1  0.5979070000000  0.4638670000000  0.5193820000000 1.0
C      1  0.5798920000000  0.5687080000000  0.4824100000000 1.0
C      1  0.4815610000000  0.5995230000000  0.5164280000000 1.0
C      1  0.4022770000000  0.5347300000000  0.4788690000000 1.0
C      1  0.4186930000000  0.4274220000000  0.5218590000000 1.0
C      1  0.5689840000000  0.5175000000000  0.4291050000000 1.0
C      1  0.5192770000000  0.5657260000000  0.5732990000000 1.0
C      1  0.4607850000000  0.5503230000000  0.4243060000000 1.0
C      1  0.4305530000000  0.4847170000000  0.5717560000000 1.0
C      1  0.4802910000000  0.4354480000000  0.4319300000000 1.0
C      1  0.5358720000000  0.4502600000000  0.5739310000000 1.0
C      1  0.4359980000000  0.5519920000000  0.5689280000000 1.0
C      1  0.4220860000000  0.4763630000000  0.4325830000000 1.0
C      1  0.4900610000000  0.4221140000000  0.5682680000000 1.0
C      1  0.5655970000000  0.4489760000000  0.4271230000000 1.0
C      1  0.5798060000000  0.5244390000000  0.5647060000000 1.0
C      1  0.5058390000000  0.5786900000000  0.4262550000000 1.0
C      1  0.5581450000000  0.4443750000000  0.5129580000000 1.0
C      1  0.5687230000000  0.5260580000000  0.4737720000000 1.0
C      1  0.5198530000000  0.5787860000000  0.5263210000000 1.0
C      1  0.4364760000000  0.5586370000000  0.4820350000000 1.0
C      1  0.4228810000000  0.4731460000000  0.5271050000000 1.0
C      1  0.4919300000000  0.4289260000000  0.4779040000000 1.0
C      1  0.5963360000000  0.5479630000000  0.5237310000000 1.0
C      1  0.5076080000000  0.6009380000000  0.4725770000000 1.0
C      1  0.4108330000000  0.5621420000000  0.5260490000000 1.0
C      1  0.4062930000000  0.4532210000000  0.4763360000000 1.0
C      1  0.4960040000000  0.3950090000000  0.5292700000000 1.0
C      1  0.5870430000000  0.4375330000000  0.4720300000000 1.0
C      1  0.4980450000000  0.5603310000000  0.5317750000000 1.0
C      1  0.4495410000000  0.5352930000000  0.4689250000000 1.0
C      1  0.4489860000000  0.4597440000000  0.5303450000000 1.0
C      1  0.5166490000000  0.4372340000000  0.4630070000000 1.0
C      1  0.5484290000000  0.4664030000000  0.5304790000000 1.0
C      1  0.5480600000000  0.5447890000000  0.4620460000000 1.0
C      1  0.5931520000000  0.4813510000000  0.4582580000000 1.0
C      1  0.5654670000000  0.5738950000000  0.5445460000000 1.0
C      1  0.4666880000000  0.5829400000000  0.4569550000000 1.0
C      1  0.4042230000000  0.5187390000000  0.5417290000000 1.0
C      1  0.4404880000000  0.4284090000000  0.4604570000000 1.0
C      1  0.5365300000000  0.4197370000000  0.5439400000000 1.0
C      1  0.6054200000000  0.4918330000000  0.5114520000000 1.0
C      1  0.5605310000000  0.5898880000000  0.4886700000000 1.0
C      1  0.4530200000000  0.5949310000000  0.5089160000000 1.0
C      1  0.3931100000000  0.5071700000000  0.4870440000000 1.0
C      1  0.4398790000000  0.4074700000000  0.5149260000000 1.0
C      1  0.5496240000000  0.4005160000000  0.4889440000000 1.0
C      1  0.4459000000000  0.4479000000000  0.5569570000000 1.0
C      1  0.5224940000000  0.4231380000000  0.4385380000000 1.0
C      1  0.5695070000000  0.4727330000000  0.5585020000000 1.0
C      1  0.5558300000000  0.5599630000000  0.4386690000000 1.0
C      1  0.4826480000000  0.5698010000000  0.5554320000000 1.0
C      1  0.4311960000000  0.5257880000000  0.4399280000000 1.0
C      1  0.5140770000000  0.4037490000000  0.5085630000000 1.0
C      1  0.5967110000000  0.4574140000000  0.4915340000000 1.0
C      1  0.5715050000000  0.5557490000000  0.5080060000000 1.0
C      1  0.4912620000000  0.5872770000000  0.4922830000000 1.0
C      1  0.4051450000000  0.5403850000000  0.5069450000000 1.0
C      1  0.4239010000000  0.4402060000000  0.4964270000000 1.0
C      1  0.4597040000000  0.5178020000000  0.5495100000000 1.0
C      1  0.4620910000000  0.4756020000000  0.4532730000000 1.0
C      1  0.5062240000000  0.4604450000000  0.5371850000000 1.0
C      1  0.5427610000000  0.4806310000000  0.4550550000000 1.0
C      1  0.5389460000000  0.5307490000000  0.5464290000000 1.0
C      1  0.4936700000000  0.5402680000000  0.4583380000000 1.0
C      1  0.4204470000000  0.4473490000000  0.4525910000000 1.0
C      1  0.5107800000000  0.4081710000000  0.5513450000000 1.0
C      1  0.5850170000000  0.4544650000000  0.4489750000000 1.0
C      1  0.5845540000000  0.5530080000000  0.5491250000000 1.0
C      1  0.4924320000000  0.5926570000000  0.4486460000000 1.0
C      1  0.4120900000000  0.5455430000000  0.5492430000000 1.0
C      1  0.5559570000000  0.5806200000000  0.5170780000000 1.0
C      1  0.4506140000000  0.5846220000000  0.4809810000000 1.0
C      1  0.3929430000000  0.5161940000000  0.5149040000000 1.0
C      1  0.4415560000000  0.4192530000000  0.4882420000000 1.0
C      1  0.5456890000000  0.4164970000000  0.5156720000000 1.0
C      1  0.6068900000000  0.4826260000000  0.4835630000000 1.0
C      1  0.4665800000000  0.5185150000000  0.4839430000000 1.0
C      1  0.4653860000000  0.4812320000000  0.5181040000000 1.0
C      1  0.4985570000000  0.4737790000000  0.4797850000000 1.0
C      1  0.5314370000000  0.4861830000000  0.5172730000000 1.0
C      1  0.5271840000000  0.5144570000000  0.4818490000000 1.0
C      1  0.4999290000000  0.5335740000000  0.5208060000000 1.0
C      1  0.5296150000000  0.5044540000000  0.4544560000000 1.0
C      1  0.5117700000000  0.5192120000000  0.5481190000000 1.0
C      1  0.4858300000000  0.5139870000000  0.4514300000000 1.0
C      1  0.4753120000000  0.4931450000000  0.5481830000000 1.0
C      1  0.4903390000000  0.4840070000000  0.4530190000000 1.0
C      1  0.5060710000000  0.4878740000000  0.5491200000000 1.0
C      1  0.4962690000000  0.4113630000000  0.4385480000000 1.0
C      1  0.5666980000000  0.4441050000000  0.5581460000000 1.0
C      1  0.5794700000000  0.5432940000000  0.4363310000000 1.0
C      1  0.5034540000000  0.5881570000000  0.5645420000000 1.0
C      1  0.4298080000000  0.5538020000000  0.4364790000000 1.0
C      1  0.4202270000000  0.4578810000000  0.5657170000000 1.0
C      1  0.5576510000000  0.5246260000000  0.5221270000000 1.0
C      1  0.5045460000000  0.5557160000000  0.4806190000000 1.0
C      1  0.4555510000000  0.5365880000000  0.5295480000000 1.0
C      1  0.4434720000000  0.4847450000000  0.4725450000000 1.0
C      1  0.4937000000000  0.4444550000000  0.5160560000000 1.0
C      1  0.5474060000000  0.4651100000000  0.4796780000000 1.0
C      1  0.4753880000000  0.5227850000000  0.4211870000000 1.0
C      1  0.4616740000000  0.4868510000000  0.5785100000000 1.0
C      1  0.4920810000000  0.4624050000000  0.4223790000000 1.0
C      1  0.5221530000000  0.4767620000000  0.5791940000000 1.0
C      1  0.5384790000000  0.5126730000000  0.4239450000000 1.0
C      1  0.5098300000000  0.5368320000000  0.5778950000000 1.0
END
