TITL C-2441161-5029-1234 0.0979476404697339 125000 -15414.019243041 0 0 119 (C1) n - 1
REM
REM in /home/bkarasulu/work/CARBON/AIRSS/Generating-Clusters/ReaxFF-fromJPCA2015/Units_Real/with-SteepDescent/Higher-Symm
REM
REM
REM
REM
REM
REM ./C.cell (1df0a924f5614ab8850e4351716899ee)
REM
REM compiler GCC version 9.2.1 20190827 (Red Hat 9.2.1-1)
REM options -cpp -mtune=generic -march=x86-64 -g -O0 -fpre-include=/usr/include/finclude/math-vector-fortran.h
REM seed 720521009 -777467531 -621907852 1570641286 -1752336292 -14094114 -778961907 -1217563469 -416033391 -823099167 1147798073 31852863 -1207154831 -1793606227 -1508617203 -1247701129 1324345816 -1598926633 635943859 -404448807 -2089972178 -1437748409 885444085 -1622627608 588008696 1762668776 -1728633346 949410588 432144863 455415575 650038238 2117876168 -1775040212
REM
CELL 1.54180   50.00000   50.00000   50.00000   90.00000   90.00000   90.00000
LATT -1
SFAC C  
C      1  0.4406260000000  0.4432890000000  0.4535630000000 1.0
C      1  0.4272200000000  0.5386190000000  0.4541910000000 1.0
C      1  0.5165160000000  0.5798880000000  0.4490080000000 1.0
C      1  0.5825920000000  0.5129820000000  0.4509450000000 1.0
C      1  0.5344620000000  0.4241530000000  0.4500510000000 1.0
C      1  0.4080870000000  0.4953370000000  0.4748950000000 1.0
C      1  0.4654770000000  0.5860580000000  0.4759740000000 1.0
C      1  0.5717110000000  0.5581420000000  0.4738250000000 1.0
C      1  0.5743860000000  0.4456630000000  0.4755830000000 1.0
C      1  0.4752580000000  0.4100800000000  0.4733900000000 1.0
C      1  0.5275490000000  0.4967340000000  0.5902210000000 1.0
C      1  0.4954840000000  0.4565550000000  0.5816830000000 1.0
C      1  0.4765370000000  0.4991650000000  0.5888820000000 1.0
C      1  0.4867310000000  0.5270510000000  0.5899880000000 1.0
C      1  0.5196200000000  0.5238940000000  0.5885990000000 1.0
C      1  0.4931070000000  0.4502910000000  0.5009770000000 1.0
C      1  0.4521930000000  0.4923730000000  0.5016540000000 1.0
C      1  0.4777420000000  0.5457130000000  0.5015080000000 1.0
C      1  0.5346480000000  0.5418940000000  0.5001510000000 1.0
C      1  0.5534410000000  0.4701820000000  0.4970220000000 1.0
C      1  0.5362530000000  0.4230650000000  0.4972930000000 1.0
C      1  0.4438860000000  0.4312630000000  0.5043970000000 1.0
C      1  0.4186420000000  0.5317740000000  0.5064330000000 1.0
C      1  0.5153910000000  0.5873410000000  0.4962170000000 1.0
C      1  0.5837330000000  0.5211160000000  0.5064410000000 1.0
C      1  0.5730300000000  0.5615390000000  0.5017270000000 1.0
C      1  0.5800960000000  0.4480900000000  0.5032660000000 1.0
C      1  0.4776010000000  0.4067180000000  0.5009850000000 1.0
C      1  0.4032950000000  0.4923440000000  0.5030860000000 1.0
C      1  0.4646090000000  0.5877160000000  0.5034580000000 1.0
C      1  0.5195630000000  0.5152950000000  0.4043360000000 1.0
C      1  0.5204200000000  0.4864720000000  0.4058540000000 1.0
C      1  0.4934550000000  0.4757580000000  0.4067070000000 1.0
C      1  0.4750730000000  0.4985810000000  0.4059160000000 1.0
C      1  0.4912310000000  0.5226520000000  0.4048720000000 1.0
C      1  0.5312960000000  0.4746790000000  0.5560290000000 1.0
C      1  0.4845210000000  0.4674100000000  0.5569380000000 1.0
C      1  0.4585950000000  0.5030110000000  0.5654170000000 1.0
C      1  0.4861580000000  0.5419600000000  0.5662140000000 1.0
C      1  0.5367840000000  0.5296830000000  0.5669340000000 1.0
C      1  0.5524480000000  0.4822270000000  0.4496870000000 1.0
C      1  0.4981980000000  0.4467530000000  0.4544520000000 1.0
C      1  0.4500880000000  0.4881800000000  0.4537180000000 1.0
C      1  0.4717040000000  0.5417270000000  0.4533590000000 1.0
C      1  0.5330680000000  0.5361760000000  0.4554590000000 1.0
C      1  0.4967830000000  0.5865210000000  0.4718740000000 1.0
C      1  0.5827450000000  0.5308530000000  0.4752840000000 1.0
C      1  0.5531660000000  0.4262800000000  0.4732630000000 1.0
C      1  0.4500600000000  0.4247350000000  0.4748480000000 1.0
C      1  0.4144640000000  0.5237220000000  0.4770080000000 1.0
C      1  0.5358200000000  0.4458350000000  0.4331990000000 1.0
C      1  0.4604890000000  0.4491440000000  0.4349010000000 1.0
C      1  0.4383970000000  0.5223670000000  0.4342840000000 1.0
C      1  0.5037960000000  0.5628460000000  0.4321970000000 1.0
C      1  0.5623580000000  0.5186650000000  0.4325510000000 1.0
C      1  0.5449430000000  0.5216780000000  0.4813990000000 1.0
C      1  0.5418620000000  0.4672750000000  0.4710510000000 1.0
C      1  0.4783860000000  0.4547720000000  0.4766070000000 1.0
C      1  0.4520320000000  0.5066270000000  0.4767100000000 1.0
C      1  0.4918670000000  0.5536720000000  0.4767120000000 1.0
C      1  0.5383540000000  0.5263980000000  0.4240860000000 1.0
C      1  0.5392940000000  0.4725380000000  0.4247180000000 1.0
C      1  0.4851460000000  0.4544140000000  0.4252070000000 1.0
C      1  0.4519420000000  0.5011700000000  0.4238470000000 1.0
C      1  0.4865340000000  0.5438220000000  0.4245150000000 1.0
C      1  0.4304540000000  0.4674560000000  0.5365700000000 1.0
C      1  0.4473600000000  0.5567680000000  0.5371670000000 1.0
C      1  0.5342700000000  0.5602290000000  0.5359540000000 1.0
C      1  0.5655420000000  0.4831310000000  0.5332830000000 1.0
C      1  0.5075370000000  0.4233540000000  0.5414210000000 1.0
C      1  0.5012580000000  0.5634440000000  0.5636690000000 1.0
C      1  0.5601830000000  0.5157320000000  0.5568570000000 1.0
C      1  0.5353420000000  0.4476290000000  0.5640260000000 1.0
C      1  0.4556730000000  0.4562470000000  0.5529930000000 1.0
C      1  0.4429580000000  0.5329840000000  0.5559870000000 1.0
C      1  0.5165790000000  0.5824560000000  0.5244570000000 1.0
C      1  0.5866880000000  0.4938590000000  0.5141080000000 1.0
C      1  0.5318670000000  0.4241160000000  0.5257660000000 1.0
C      1  0.4262660000000  0.4530700000000  0.5117190000000 1.0
C      1  0.4323620000000  0.5563410000000  0.5123810000000 1.0
C      1  0.4485770000000  0.5597820000000  0.4619060000000 1.0
C      1  0.5422830000000  0.5656920000000  0.4586260000000 1.0
C      1  0.5797460000000  0.4839680000000  0.4598290000000 1.0
C      1  0.5053210000000  0.4202700000000  0.4626630000000 1.0
C      1  0.4275870000000  0.4704170000000  0.4632820000000 1.0
C      1  0.5507460000000  0.4374130000000  0.5420440000000 1.0
C      1  0.4595010000000  0.4329760000000  0.5278680000000 1.0
C      1  0.4288690000000  0.5190460000000  0.5307690000000 1.0
C      1  0.4937520000000  0.5797800000000  0.5412620000000 1.0
C      1  0.5708180000000  0.5285730000000  0.5315010000000 1.0
C      1  0.5504440000000  0.4912470000000  0.5700660000000 1.0
C      1  0.5098950000000  0.4351640000000  0.5678140000000 1.0
C      1  0.4476640000000  0.4776440000000  0.5715240000000 1.0
C      1  0.4621940000000  0.5420500000000  0.5761790000000 1.0
C      1  0.5293090000000  0.5569100000000  0.5655230000000 1.0
C      1  0.5103160000000  0.4290800000000  0.4897690000000 1.0
C      1  0.4362610000000  0.4700520000000  0.4914600000000 1.0
C      1  0.4517780000000  0.5515080000000  0.4906970000000 1.0
C      1  0.5346740000000  0.5678680000000  0.4872460000000 1.0
C      1  0.5761680000000  0.4852740000000  0.4886900000000 1.0
C      1  0.5298910000000  0.5024630000000  0.4964960000000 1.0
C      1  0.5159800000000  0.4669190000000  0.4645230000000 1.0
C      1  0.4749130000000  0.4774280000000  0.4614410000000 1.0
C      1  0.4729890000000  0.5199640000000  0.4714790000000 1.0
C      1  0.5091880000000  0.5348700000000  0.4699700000000 1.0
C      1  0.5710210000000  0.4540800000000  0.5302490000000 1.0
C      1  0.4817350000000  0.4150650000000  0.5286650000000 1.0
C      1  0.4173870000000  0.4927160000000  0.5308100000000 1.0
C      1  0.4661160000000  0.5786830000000  0.5308300000000 1.0
C      1  0.5643000000000  0.5566240000000  0.5279940000000 1.0
C      1  0.4893830000000  0.5259710000000  0.5197730000000 1.0
C      1  0.5169980000000  0.5350380000000  0.5219370000000 1.0
C      1  0.5398810000000  0.4868790000000  0.5179750000000 1.0
C      1  0.4955540000000  0.4756800000000  0.5165670000000 1.0
C      1  0.4770740000000  0.4976670000000  0.5173790000000 1.0
C      1  0.5015060000000  0.4831680000000  0.5917600000000 1.0
C      1  0.5007060000000  0.4891320000000  0.4584120000000 1.0
C      1  0.4994400000000  0.5101800000000  0.4796720000000 1.0
C      1  0.5054740000000  0.4819670000000  0.5434210000000 1.0
END
