TITL C-2441164-471-777 0.0190374019432172 125000 -27277.2197727702 0 0 184 (C1) n - 1
REM
REM in /home/bkarasulu/work/CARBON/AIRSS/Generating-Clusters/ReaxFF-fromJPCA2015/Units_Real/with-SteepDescent/Higher-Symm
REM
REM
REM
REM
REM
REM ./C.cell (1df0a924f5614ab8850e4351716899ee)
REM
REM compiler GCC version 9.2.1 20190827 (Red Hat 9.2.1-1)
REM options -cpp -mtune=generic -march=x86-64 -g -O0 -fpre-include=/usr/include/finclude/math-vector-fortran.h
REM seed -529579703 -444290931 -684454605 -600987138 1574333509 712752661 858479962 -1956029645 -3978093 -185648741 -1982349615 666720102 -1973853981 -1463408001 2109573018 -1877131650 1962038793 -1111672549 -1973420782 -1235767817 745153845 -817901268 431389576 -836623013 857227513 -1467429959 -1955089155 -610063910 1554996090 328506897 -316343239 1080296794 1770203308
REM
CELL 1.54180   50.00000   50.00000   50.00000   90.00000   90.00000   90.00000
LATT -1
SFAC C  
C      1  0.5627480000000  0.5349870000000  0.4638320000000 1.0
C      1  0.5625420000000  0.4937370000000  0.5372570000000 1.0
C      1  0.5501730000000  0.4615880000000  0.4641000000000 1.0
C      1  0.5132520000000  0.4356000000000  0.5342120000000 1.0
C      1  0.4699990000000  0.4362520000000  0.4635600000000 1.0
C      1  0.4371330000000  0.4668050000000  0.5332160000000 1.0
C      1  0.4334690000000  0.5073560000000  0.4618420000000 1.0
C      1  0.4433720000000  0.5370870000000  0.5366760000000 1.0
C      1  0.4889190000000  0.5662300000000  0.4621720000000 1.0
C      1  0.5241920000000  0.5533350000000  0.5341560000000 1.0
C      1  0.5042980000000  0.4719180000000  0.4682040000000 1.0
C      1  0.4864640000000  0.4731260000000  0.5272750000000 1.0
C      1  0.4758120000000  0.4885620000000  0.4701210000000 1.0
C      1  0.4734560000000  0.5045070000000  0.5321880000000 1.0
C      1  0.4846580000000  0.5200030000000  0.4710600000000 1.0
C      1  0.4962970000000  0.5207880000000  0.5335510000000 1.0
C      1  0.5161180000000  0.5218640000000  0.4698760000000 1.0
C      1  0.5223040000000  0.5072140000000  0.5312890000000 1.0
C      1  0.5249620000000  0.4932970000000  0.4684770000000 1.0
C      1  0.5175740000000  0.4774960000000  0.5316550000000 1.0
C      1  0.5417140000000  0.4841690000000  0.4452750000000 1.0
C      1  0.5207410000000  0.4583200000000  0.5524350000000 1.0
C      1  0.4958820000000  0.4551460000000  0.4451170000000 1.0
C      1  0.4662450000000  0.4687930000000  0.5484970000000 1.0
C      1  0.4566040000000  0.4923750000000  0.4478850000000 1.0
C      1  0.4551190000000  0.5153200000000  0.5549520000000 1.0
C      1  0.4809950000000  0.5404750000000  0.4504870000000 1.0
C      1  0.5035630000000  0.5418920000000  0.5518180000000 1.0
C      1  0.5323460000000  0.5334340000000  0.4474650000000 1.0
C      1  0.5422340000000  0.5067580000000  0.5529160000000 1.0
C      1  0.5275640000000  0.5372330000000  0.4937760000000 1.0
C      1  0.5393780000000  0.5153240000000  0.5091700000000 1.0
C      1  0.5401620000000  0.4900610000000  0.4932640000000 1.0
C      1  0.5346610000000  0.4695680000000  0.5121330000000 1.0
C      1  0.5158200000000  0.4465330000000  0.4816670000000 1.0
C      1  0.4768010000000  0.4512220000000  0.5099660000000 1.0
C      1  0.4533200000000  0.4818060000000  0.4905340000000 1.0
C      1  0.4585360000000  0.5081370000000  0.5076970000000 1.0
C      1  0.4729910000000  0.5283640000000  0.4945730000000 1.0
C      1  0.4810200000000  0.5534710000000  0.5066690000000 1.0
C      1  0.5381670000000  0.4035510000000  0.4862340000000 1.0
C      1  0.4754950000000  0.4037070000000  0.5142130000000 1.0
C      1  0.4211730000000  0.4375140000000  0.4874460000000 1.0
C      1  0.3913190000000  0.5021920000000  0.5130470000000 1.0
C      1  0.4161830000000  0.5543980000000  0.4859820000000 1.0
C      1  0.4635410000000  0.5974040000000  0.5170080000000 1.0
C      1  0.5280620000000  0.5965860000000  0.4868540000000 1.0
C      1  0.5698380000000  0.5601230000000  0.5074940000000 1.0
C      1  0.6049980000000  0.4975820000000  0.4864340000000 1.0
C      1  0.5842290000000  0.4455700000000  0.5130750000000 1.0
C      1  0.5484830000000  0.4211860000000  0.4648130000000 1.0
C      1  0.4922160000000  0.4159160000000  0.5360150000000 1.0
C      1  0.4387810000000  0.4346850000000  0.4648290000000 1.0
C      1  0.4165910000000  0.4948150000000  0.5287440000000 1.0
C      1  0.4237840000000  0.5344500000000  0.4637020000000 1.0
C      1  0.4530320000000  0.5813040000000  0.5372880000000 1.0
C      1  0.5119790000000  0.5853130000000  0.4648590000000 1.0
C      1  0.5510400000000  0.5675760000000  0.5352450000000 1.0
C      1  0.5807860000000  0.5056160000000  0.4687710000000 1.0
C      1  0.5837070000000  0.4679270000000  0.5364480000000 1.0
C      1  0.5772710000000  0.5773600000000  0.4847500000000 1.0
C      1  0.6069420000000  0.5067080000000  0.5135340000000 1.0
C      1  0.5915430000000  0.4477860000000  0.4857180000000 1.0
C      1  0.5494850000000  0.4033500000000  0.5133690000000 1.0
C      1  0.4845280000000  0.3964970000000  0.4872920000000 1.0
C      1  0.4256950000000  0.4255310000000  0.5135310000000 1.0
C      1  0.3860910000000  0.4898240000000  0.4872560000000 1.0
C      1  0.4075470000000  0.5513450000000  0.5133880000000 1.0
C      1  0.4526960000000  0.5939790000000  0.4867670000000 1.0
C      1  0.5189180000000  0.6018110000000  0.5144350000000 1.0
C      1  0.5679110000000  0.4233300000000  0.5512730000000 1.0
C      1  0.5093270000000  0.3970770000000  0.4489750000000 1.0
C      1  0.4475130000000  0.4105510000000  0.5516030000000 1.0
C      1  0.4025870000000  0.4633910000000  0.4486130000000 1.0
C      1  0.3984960000000  0.5285780000000  0.5531330000000 1.0
C      1  0.4326360000000  0.5792000000000  0.4490460000000 1.0
C      1  0.4948000000000  0.6021570000000  0.5515520000000 1.0
C      1  0.5578400000000  0.5922600000000  0.4479750000000 1.0
C      1  0.5914620000000  0.5374280000000  0.5482390000000 1.0
C      1  0.5983250000000  0.4715900000000  0.4458790000000 1.0
C      1  0.4909120000000  0.6070070000000  0.5228940000000 1.0
C      1  0.5563000000000  0.5961000000000  0.4772430000000 1.0
C      1  0.5906880000000  0.5330720000000  0.5186310000000 1.0
C      1  0.6060230000000  0.4709010000000  0.4741350000000 1.0
C      1  0.5721190000000  0.4211600000000  0.5223990000000 1.0
C      1  0.5120650000000  0.3926840000000  0.4778550000000 1.0
C      1  0.4474090000000  0.4071250000000  0.5223720000000 1.0
C      1  0.4060970000000  0.4646390000000  0.4788840000000 1.0
C      1  0.3914380000000  0.5296420000000  0.5242380000000 1.0
C      1  0.4270830000000  0.5800650000000  0.4774430000000 1.0
C      1  0.5645950000000  0.4815050000000  0.4786460000000 1.0
C      1  0.5269350000000  0.4428330000000  0.5089010000000 1.0
C      1  0.4881670000000  0.4394770000000  0.4870820000000 1.0
C      1  0.4505780000000  0.4601650000000  0.5079580000000 1.0
C      1  0.4268170000000  0.4864250000000  0.4804340000000 1.0
C      1  0.4344150000000  0.5164830000000  0.5190940000000 1.0
C      1  0.4715210000000  0.5703180000000  0.4848530000000 1.0
C      1  0.5099470000000  0.5559460000000  0.5099740000000 1.0
C      1  0.5528720000000  0.5459700000000  0.4886160000000 1.0
C      1  0.5665360000000  0.5150610000000  0.5191880000000 1.0
C      1  0.5686470000000  0.5531770000000  0.5565650000000 1.0
C      1  0.5873530000000  0.4978990000000  0.4400660000000 1.0
C      1  0.5732130000000  0.4504510000000  0.5588820000000 1.0
C      1  0.5291800000000  0.4167260000000  0.4427140000000 1.0
C      1  0.4755000000000  0.4149830000000  0.5602630000000 1.0
C      1  0.4266720000000  0.4487790000000  0.4416940000000 1.0
C      1  0.4093830000000  0.5022730000000  0.5577810000000 1.0
C      1  0.4307620000000  0.5508770000000  0.4409830000000 1.0
C      1  0.4726810000000  0.5832090000000  0.5587500000000 1.0
C      1  0.5296920000000  0.5865880000000  0.4422510000000 1.0
C      1  0.5133700000000  0.5687990000000  0.5818560000000 1.0
C      1  0.5551300000000  0.5534920000000  0.4170440000000 1.0
C      1  0.5731710000000  0.5086340000000  0.5794600000000 1.0
C      1  0.5603950000000  0.4486750000000  0.4202240000000 1.0
C      1  0.5319020000000  0.4332080000000  0.5823090000000 1.0
C      1  0.4828250000000  0.4264480000000  0.4183550000000 1.0
C      1  0.4507010000000  0.4491400000000  0.5821000000000 1.0
C      1  0.4272950000000  0.4929260000000  0.4188760000000 1.0
C      1  0.4368590000000  0.5499100000000  0.5804310000000 1.0
C      1  0.4713720000000  0.5652860000000  0.4180010000000 1.0
C      1  0.5041990000000  0.4381060000000  0.5934560000000 1.0
C      1  0.4643890000000  0.4476610000000  0.4105280000000 1.0
C      1  0.4445810000000  0.4777770000000  0.5898150000000 1.0
C      1  0.4421260000000  0.5166090000000  0.4084250000000 1.0
C      1  0.4611450000000  0.5482490000000  0.5935450000000 1.0
C      1  0.4994870000000  0.5643650000000  0.4110930000000 1.0
C      1  0.5326530000000  0.5473810000000  0.5914450000000 1.0
C      1  0.5535000000000  0.5253890000000  0.4102470000000 1.0
C      1  0.5600660000000  0.4847030000000  0.5889820000000 1.0
C      1  0.5361000000000  0.4497040000000  0.4075580000000 1.0
C      1  0.5499250000000  0.4571570000000  0.5752920000000 1.0
C      1  0.5133950000000  0.4366490000000  0.4270120000000 1.0
C      1  0.4768020000000  0.4342030000000  0.5819920000000 1.0
C      1  0.4432640000000  0.4669940000000  0.4255890000000 1.0
C      1  0.4347660000000  0.4979930000000  0.5707150000000 1.0
C      1  0.4517080000000  0.5427180000000  0.4218950000000 1.0
C      1  0.4841860000000  0.5649810000000  0.5791410000000 1.0
C      1  0.5274820000000  0.5607870000000  0.4277360000000 1.0
C      1  0.5562830000000  0.5361400000000  0.5762330000000 1.0
C      1  0.5624870000000  0.5035480000000  0.4267590000000 1.0
C      1  0.5189620000000  0.5158720000000  0.4270150000000 1.0
C      1  0.5242230000000  0.5011410000000  0.5753750000000 1.0
C      1  0.5217100000000  0.4870810000000  0.4244930000000 1.0
C      1  0.5069540000000  0.4737900000000  0.5743150000000 1.0
C      1  0.4934770000000  0.4755580000000  0.4244680000000 1.0
C      1  0.4798610000000  0.4828240000000  0.5687810000000 1.0
C      1  0.4747140000000  0.4990420000000  0.4258450000000 1.0
C      1  0.4783160000000  0.5120690000000  0.5768160000000 1.0
C      1  0.4905230000000  0.5249040000000  0.4271000000000 1.0
C      1  0.5055310000000  0.5239200000000  0.5747620000000 1.0
C      1  0.4666920000000  0.5212510000000  0.6041780000000 1.0
C      1  0.4985450000000  0.5386930000000  0.3999740000000 1.0
C      1  0.5277380000000  0.5244890000000  0.6114430000000 1.0
C      1  0.5236720000000  0.5220370000000  0.3953200000000 1.0
C      1  0.5394720000000  0.4984090000000  0.6032600000000 1.0
C      1  0.5317330000000  0.4767920000000  0.3972610000000 1.0
C      1  0.5042350000000  0.4648350000000  0.6038940000000 1.0
C      1  0.4848560000000  0.4624210000000  0.3969080000000 1.0
C      1  0.4608870000000  0.4932960000000  0.6090100000000 1.0
C      1  0.4629030000000  0.5001180000000  0.3974510000000 1.0
C      1  0.5425860000000  0.4126650000000  0.5633490000000 1.0
C      1  0.4827360000000  0.4041470000000  0.4373450000000 1.0
C      1  0.4332860000000  0.4333430000000  0.5638320000000 1.0
C      1  0.4022780000000  0.4896420000000  0.4355900000000 1.0
C      1  0.4146170000000  0.5515830000000  0.5638520000000 1.0
C      1  0.4585300000000  0.5884880000000  0.4361340000000 1.0
C      1  0.5197980000000  0.5914490000000  0.5631720000000 1.0
C      1  0.5720570000000  0.5694890000000  0.4352380000000 1.0
C      1  0.5948140000000  0.5106030000000  0.5595720000000 1.0
C      1  0.5830340000000  0.4475960000000  0.4369100000000 1.0
C      1  0.5345950000000  0.5940540000000  0.5383020000000 1.0
C      1  0.5803810000000  0.5593510000000  0.4610850000000 1.0
C      1  0.6037910000000  0.4914470000000  0.5384210000000 1.0
C      1  0.5756030000000  0.4347030000000  0.4631960000000 1.0
C      1  0.5351790000000  0.3970110000000  0.5388720000000 1.0
C      1  0.4694620000000  0.4062830000000  0.4634270000000 1.0
C      1  0.4217200000000  0.4415860000000  0.5384800000000 1.0
C      1  0.3883370000000  0.5014950000000  0.4599900000000 1.0
C      1  0.4263770000000  0.5620870000000  0.5364400000000 1.0
C      1  0.4649700000000  0.6053790000000  0.4577580000000 1.0
C      1  0.4885370000000  0.4855570000000  0.6178720000000 1.0
C      1  0.4854420000000  0.4880150000000  0.3827130000000 1.0
C      1  0.5049440000000  0.5104200000000  0.6242400000000 1.0
C      1  0.5141300000000  0.4953050000000  0.3837940000000 1.0
END
