TITL C-2441167-4473-1343 0.0539154660565395 125000 -12449.8136686694 0 0 92 (C1) n - 1
REM
REM in /home/bkarasulu/work/CARBON/AIRSS/Generating-Clusters/ReaxFF-fromJPCA2015/Units_Real/with-SteepDescent/Higher-Symm
REM
REM
REM
REM
REM
REM ./C.cell (1df0a924f5614ab8850e4351716899ee)
REM
REM compiler GCC version 9.2.1 20190827 (Red Hat 9.2.1-1)
REM options -cpp -mtune=generic -march=x86-64 -g -O0 -fpre-include=/usr/include/finclude/math-vector-fortran.h
REM seed 63044824 -1359559041 1212335424 -2062027655 363226667 2107191240 -330738687 1061303492 1419733614 866418880 1596496505 1982937123 1481238987 -1812816246 965306329 387370413 -408869268 296557657 849127364 -1199417270 1763361453 -1660166007 1251805028 21544806 1683185201 -1241516556 333603688 -1529041170 -451350733 312276747 970704808 2079411194 1758747016
REM
CELL 1.54180   50.00000   50.00000   50.00000   90.00000   90.00000   90.00000
LATT -1
SFAC C  
C      1  0.5836520000000  0.5117990000000  0.4908750000000 1.0
C      1  0.5841270000000  0.4888640000000  0.5093170000000 1.0
C      1  0.4157320000000  0.5097160000000  0.4880730000000 1.0
C      1  0.4169060000000  0.4885630000000  0.5089140000000 1.0
C      1  0.4858900000000  0.5184730000000  0.5827520000000 1.0
C      1  0.4857670000000  0.4811410000000  0.4172340000000 1.0
C      1  0.5148450000000  0.5186210000000  0.5825920000000 1.0
C      1  0.5147210000000  0.4812960000000  0.4175520000000 1.0
C      1  0.5129210000000  0.5192500000000  0.5288780000000 1.0
C      1  0.5138310000000  0.4805730000000  0.4708430000000 1.0
C      1  0.4843940000000  0.5183820000000  0.5279230000000 1.0
C      1  0.4864530000000  0.4802450000000  0.4702740000000 1.0
C      1  0.5527560000000  0.5229950000000  0.5126900000000 1.0
C      1  0.5523840000000  0.4771530000000  0.4872610000000 1.0
C      1  0.4422150000000  0.5285640000000  0.5150560000000 1.0
C      1  0.4472020000000  0.4761530000000  0.4868670000000 1.0
C      1  0.4762910000000  0.4843340000000  0.4970810000000 1.0
C      1  0.4796460000000  0.5129850000000  0.5006230000000 1.0
C      1  0.5242420000000  0.4846130000000  0.4974620000000 1.0
C      1  0.5249820000000  0.5157770000000  0.5028920000000 1.0
C      1  0.4512250000000  0.5415980000000  0.4707330000000 1.0
C      1  0.4523140000000  0.4586080000000  0.5290820000000 1.0
C      1  0.5491410000000  0.5418340000000  0.4704440000000 1.0
C      1  0.5482120000000  0.4586810000000  0.5288410000000 1.0
C      1  0.5686240000000  0.5389410000000  0.4928570000000 1.0
C      1  0.5690430000000  0.4612530000000  0.5073900000000 1.0
C      1  0.4298490000000  0.5359420000000  0.4894870000000 1.0
C      1  0.4315710000000  0.4626680000000  0.5079920000000 1.0
C      1  0.5636110000000  0.5006310000000  0.4746320000000 1.0
C      1  0.5629610000000  0.4999370000000  0.5249070000000 1.0
C      1  0.4380780000000  0.4983010000000  0.4740230000000 1.0
C      1  0.4371270000000  0.5015370000000  0.5238150000000 1.0
C      1  0.5142650000000  0.4239470000000  0.5032730000000 1.0
C      1  0.5139770000000  0.5756560000000  0.4971000000000 1.0
C      1  0.4853050000000  0.4239250000000  0.5031930000000 1.0
C      1  0.4850000000000  0.5760850000000  0.4969990000000 1.0
C      1  0.4346370000000  0.4594630000000  0.4651510000000 1.0
C      1  0.4321580000000  0.5441950000000  0.5385610000000 1.0
C      1  0.5670950000000  0.4590350000000  0.4655870000000 1.0
C      1  0.5659010000000  0.5408020000000  0.5350670000000 1.0
C      1  0.5574120000000  0.4378730000000  0.4810330000000 1.0
C      1  0.5576890000000  0.5612450000000  0.5180370000000 1.0
C      1  0.4424020000000  0.4381580000000  0.4813680000000 1.0
C      1  0.4429960000000  0.5671710000000  0.5264360000000 1.0
C      1  0.4845210000000  0.4881980000000  0.5775120000000 1.0
C      1  0.4844230000000  0.5116010000000  0.4226830000000 1.0
C      1  0.5156420000000  0.4880960000000  0.5773040000000 1.0
C      1  0.5156510000000  0.5117690000000  0.4224640000000 1.0
C      1  0.5298290000000  0.4621930000000  0.5713350000000 1.0
C      1  0.5296190000000  0.5376450000000  0.4286750000000 1.0
C      1  0.4700370000000  0.4625100000000  0.5715140000000 1.0
C      1  0.4699020000000  0.5375080000000  0.4282340000000 1.0
C      1  0.4846410000000  0.5765400000000  0.4666630000000 1.0
C      1  0.4850910000000  0.4229970000000  0.5337750000000 1.0
C      1  0.5138120000000  0.5768810000000  0.4664330000000 1.0
C      1  0.5142610000000  0.4227530000000  0.5337920000000 1.0
C      1  0.5307970000000  0.4635470000000  0.4337210000000 1.0
C      1  0.5305360000000  0.5364440000000  0.5664260000000 1.0
C      1  0.4697640000000  0.4632820000000  0.4331690000000 1.0
C      1  0.4697070000000  0.5363260000000  0.5667880000000 1.0
C      1  0.4852680000000  0.4406100000000  0.5590120000000 1.0
C      1  0.4849540000000  0.5592030000000  0.4410960000000 1.0
C      1  0.5142950000000  0.4405170000000  0.5589450000000 1.0
C      1  0.5139340000000  0.5591700000000  0.4413480000000 1.0
C      1  0.4397700000000  0.4978480000000  0.5523830000000 1.0
C      1  0.4391490000000  0.5023700000000  0.4457610000000 1.0
C      1  0.5609300000000  0.4972510000000  0.5533740000000 1.0
C      1  0.5613530000000  0.5026450000000  0.4460930000000 1.0
C      1  0.4845000000000  0.4515380000000  0.4571550000000 1.0
C      1  0.4842810000000  0.5479100000000  0.5426660000000 1.0
C      1  0.5157630000000  0.4514280000000  0.4573370000000 1.0
C      1  0.5156270000000  0.5482130000000  0.5425560000000 1.0
C      1  0.5534700000000  0.4687030000000  0.5561640000000 1.0
C      1  0.5535430000000  0.5312200000000  0.4432220000000 1.0
C      1  0.4467170000000  0.4691390000000  0.5560130000000 1.0
C      1  0.4465810000000  0.5309960000000  0.4434690000000 1.0
C      1  0.5295910000000  0.4350220000000  0.4805870000000 1.0
C      1  0.5296040000000  0.5645570000000  0.5193880000000 1.0
C      1  0.4703060000000  0.4352650000000  0.4806110000000 1.0
C      1  0.4702110000000  0.5648750000000  0.5203490000000 1.0
C      1  0.5565740000000  0.5262140000000  0.5585940000000 1.0
C      1  0.5566180000000  0.4736810000000  0.4419100000000 1.0
C      1  0.4436150000000  0.5260910000000  0.5596350000000 1.0
C      1  0.4438700000000  0.4735000000000  0.4410890000000 1.0
C      1  0.5147820000000  0.4917920000000  0.5423900000000 1.0
C      1  0.5149470000000  0.5084500000000  0.4575590000000 1.0
C      1  0.4852900000000  0.4913610000000  0.5421550000000 1.0
C      1  0.4853500000000  0.5080050000000  0.4571980000000 1.0
C      1  0.5216920000000  0.4697420000000  0.5234820000000 1.0
C      1  0.5240450000000  0.5293780000000  0.4763050000000 1.0
C      1  0.4787920000000  0.4694010000000  0.5233800000000 1.0
C      1  0.4767940000000  0.5286320000000  0.4771220000000 1.0
END
