TITL C-2441154-10-252 0.0146382060698831 125000 -9289.03004471292 0 0 67 (C1) n - 1
REM
REM in /home/bkarasulu/work/CARBON/AIRSS/Generating-Clusters/ReaxFF-fromJPCA2015/Units_Real/with-SteepDescent/Higher-Symm
REM
REM
REM
REM
REM
REM ./C.cell (1df0a924f5614ab8850e4351716899ee)
REM
REM compiler GCC version 9.2.1 20190827 (Red Hat 9.2.1-1)
REM options -cpp -mtune=generic -march=x86-64 -g -O0 -fpre-include=/usr/include/finclude/math-vector-fortran.h
REM seed 45588597 1482518896 93014310 624541204 1214462420 739432154 -576563409 1813578267 -966927690 1235227523 1823742103 -641848816 196900986 -1918082952 1390489552 -1499849551 -284794383 1190395004 137121814 216424279 -810909082 -1161682123 -758778532 -128458522 786666027 1548470272 1596075211 1448243767 327988110 203000168 -412229886 1328855997 -1456084112
REM
CELL 1.54180   50.00000   50.00000   50.00000   90.00000   90.00000   90.00000
LATT -1
SFAC C  
C      1  0.4949490000000  0.4628740000000  0.4303840000000 1.0
C      1  0.5060110000000  0.5369670000000  0.5656860000000 1.0
C      1  0.5325520000000  0.4297310000000  0.4999080000000 1.0
C      1  0.4632110000000  0.5651320000000  0.5024130000000 1.0
C      1  0.5041320000000  0.4704830000000  0.5364790000000 1.0
C      1  0.4988970000000  0.5250550000000  0.4588000000000 1.0
C      1  0.5221940000000  0.4892340000000  0.4934230000000 1.0
C      1  0.4868280000000  0.5158000000000  0.5149750000000 1.0
C      1  0.4883770000000  0.5128270000000  0.4342390000000 1.0
C      1  0.5134350000000  0.4880620000000  0.5640720000000 1.0
C      1  0.5291090000000  0.4536400000000  0.5408840000000 1.0
C      1  0.4629550000000  0.5302120000000  0.4568090000000 1.0
C      1  0.5096840000000  0.4440820000000  0.4486520000000 1.0
C      1  0.4894700000000  0.5555240000000  0.5505600000000 1.0
C      1  0.4691120000000  0.5010100000000  0.5780990000000 1.0
C      1  0.5319780000000  0.4985600000000  0.4243110000000 1.0
C      1  0.5395870000000  0.5149950000000  0.5325910000000 1.0
C      1  0.4621400000000  0.4895950000000  0.4759040000000 1.0
C      1  0.4715130000000  0.5051180000000  0.5374280000000 1.0
C      1  0.5205780000000  0.5005430000000  0.4663800000000 1.0
C      1  0.4976210000000  0.5096630000000  0.5746720000000 1.0
C      1  0.5034460000000  0.4904350000000  0.4233010000000 1.0
C      1  0.4320910000000  0.4772220000000  0.5031440000000 1.0
C      1  0.5658150000000  0.5251680000000  0.4978730000000 1.0
C      1  0.4521890000000  0.5618740000000  0.4751410000000 1.0
C      1  0.5463860000000  0.4409930000000  0.5219060000000 1.0
C      1  0.5660030000000  0.4784140000000  0.4674440000000 1.0
C      1  0.4359450000000  0.5255180000000  0.5302980000000 1.0
C      1  0.5654070000000  0.5236050000000  0.5270320000000 1.0
C      1  0.4395460000000  0.4725640000000  0.4754440000000 1.0
C      1  0.4642410000000  0.4725010000000  0.5731010000000 1.0
C      1  0.5386480000000  0.5252490000000  0.4305940000000 1.0
C      1  0.5029920000000  0.5534730000000  0.4666280000000 1.0
C      1  0.4926610000000  0.4434590000000  0.5285570000000 1.0
C      1  0.5246400000000  0.5362140000000  0.5434980000000 1.0
C      1  0.4711040000000  0.4610040000000  0.4475620000000 1.0
C      1  0.4535490000000  0.5215330000000  0.5550060000000 1.0
C      1  0.5427110000000  0.4804410000000  0.4486000000000 1.0
C      1  0.5448820000000  0.5392580000000  0.4829520000000 1.0
C      1  0.4482190000000  0.4613890000000  0.5219200000000 1.0
C      1  0.4898370000000  0.5648450000000  0.4909590000000 1.0
C      1  0.5058140000000  0.4269800000000  0.5074750000000 1.0
C      1  0.4586450000000  0.5124390000000  0.4943600000000 1.0
C      1  0.5488190000000  0.4857170000000  0.5070750000000 1.0
C      1  0.5601750000000  0.5062830000000  0.5496550000000 1.0
C      1  0.4506400000000  0.4851850000000  0.4487120000000 1.0
C      1  0.4492150000000  0.5513970000000  0.5251110000000 1.0
C      1  0.5567290000000  0.4515780000000  0.4763660000000 1.0
C      1  0.5688100000000  0.4974080000000  0.4896230000000 1.0
C      1  0.4352170000000  0.5054370000000  0.5098450000000 1.0
C      1  0.4465040000000  0.5332430000000  0.4796240000000 1.0
C      1  0.5584180000000  0.4590180000000  0.5042850000000 1.0
C      1  0.5373750000000  0.4513320000000  0.4537700000000 1.0
C      1  0.4607880000000  0.5511200000000  0.5516550000000 1.0
C      1  0.4610060000000  0.4781760000000  0.5426840000000 1.0
C      1  0.5411030000000  0.5213580000000  0.4580030000000 1.0
C      1  0.4594910000000  0.5137350000000  0.4371140000000 1.0
C      1  0.5425840000000  0.4889450000000  0.5661890000000 1.0
C      1  0.5042530000000  0.5441430000000  0.5258340000000 1.0
C      1  0.4862250000000  0.4443120000000  0.4673450000000 1.0
C      1  0.4806090000000  0.4288650000000  0.4916730000000 1.0
C      1  0.5170220000000  0.5618140000000  0.5045410000000 1.0
C      1  0.5443450000000  0.4624920000000  0.5559820000000 1.0
C      1  0.4600970000000  0.5533190000000  0.4481440000000 1.0
C      1  0.5283370000000  0.5603850000000  0.4790160000000 1.0
C      1  0.4666370000000  0.4396900000000  0.5158880000000 1.0
C      1  0.5018340000000  0.4905870000000  0.5130730000000 1.0
END
