TITL C-2441169-1362-1194 0.00164043938971235 125000 -2154.51616585154 0 0 17 (C1) n - 1
REM
REM in /home/bkarasulu/work/CARBON/AIRSS/Generating-Clusters/ReaxFF-fromJPCA2015/Units_Real/with-SteepDescent/Higher-Symm
REM
REM
REM
REM
REM
REM ./C.cell (1df0a924f5614ab8850e4351716899ee)
REM
REM compiler GCC version 9.2.1 20190827 (Red Hat 9.2.1-1)
REM options -cpp -mtune=generic -march=x86-64 -g -O0 -fpre-include=/usr/include/finclude/math-vector-fortran.h
REM seed -269175260 -1611163088 856717088 -1210904585 -1740803718 -803909277 -1080235361 308520807 241401435 -932927601 1231643929 1085931417 -479855413 327700624 585114980 695085804 1930211732 -92471442 906454639 1082515255 -874975632 -955278448 913136806 532934277 -1767767192 -1011870648 -339093565 -1829958854 1431740307 -1148571192 -376224354 1083487423 -64766120
REM
CELL 1.54180   50.00000   50.00000   50.00000   90.00000   90.00000   90.00000
LATT -1
SFAC C  
C      1  0.5232210000000  0.4477950000000  0.5261820000000 1.0
C      1  0.5346000000000  0.4619150000000  0.5100390000000 1.0
C      1  0.4605990000000  0.5137360000000  0.4936070000000 1.0
C      1  0.5441590000000  0.5076060000000  0.4974590000000 1.0
C      1  0.4660480000000  0.4971690000000  0.5454460000000 1.0
C      1  0.4658680000000  0.5367700000000  0.4746990000000 1.0
C      1  0.4954400000000  0.4957990000000  0.5513330000000 1.0
C      1  0.5006540000000  0.5144130000000  0.5267560000000 1.0
C      1  0.4768200000000  0.4737110000000  0.4571410000000 1.0
C      1  0.5469810000000  0.4774090000000  0.4924150000000 1.0
C      1  0.5233550000000  0.5243620000000  0.5112920000000 1.0
C      1  0.4798560000000  0.4521460000000  0.4760180000000 1.0
C      1  0.4726210000000  0.5149810000000  0.5208980000000 1.0
C      1  0.5412610000000  0.4990040000000  0.4698390000000 1.0
C      1  0.5150920000000  0.5452730000000  0.4926760000000 1.0
C      1  0.4922800000000  0.5499840000000  0.4737450000000 1.0
C      1  0.4611440000000  0.4879290000000  0.4804530000000 1.0
END
