TITL C-2441162-9305-1003 -2.17146112169437e-09 125000 -6390.2838156613 0 0 48 (D6h) n - 1
REM
REM in /home/bkarasulu/work/CARBON/AIRSS/Generating-Clusters/ReaxFF-fromJPCA2015/Units_Real/with-SteepDescent/Higher-Symm
REM
REM
REM
REM
REM
REM ./C.cell (1df0a924f5614ab8850e4351716899ee)
REM
REM compiler GCC version 9.2.1 20190827 (Red Hat 9.2.1-1)
REM options -cpp -mtune=generic -march=x86-64 -g -O0 -fpre-include=/usr/include/finclude/math-vector-fortran.h
REM seed 406595053 -798002963 108686841 -441725514 -1167010075 1469185808 -1891289125 -156604802 316041339 575176535 1339056032 512462743 -1997040698 -1215657287 -798666136 960895133 391500640 -453051047 2141813608 -778590653 -912844550 -716072577 1663106440 1120127857 1857415896 -1732395961 -1295110828 1772723015 1510583005 -2146167733 -1441890534 -1098596969 911278232
REM
CELL 1.54180   50.00000   50.00000   50.00000   90.00000   90.00000   90.00000
LATT -1
SFAC C  
C      1  0.4701730000000  0.4790690000000  0.4899250000000 1.0
C      1  0.4763610000000  0.4790690000000  0.5207940000000 1.0
C      1  0.5061890000000  0.4790690000000  0.5308690000000 1.0
C      1  0.5298270000000  0.4790690000000  0.5100750000000 1.0
C      1  0.5236390000000  0.4790690000000  0.4792060000000 1.0
C      1  0.4938110000000  0.4790690000000  0.4691310000000 1.0
C      1  0.4701730000000  0.5209310000000  0.4899250000000 1.0
C      1  0.4763610000000  0.5209310000000  0.5207940000000 1.0
C      1  0.5061890000000  0.5209310000000  0.5308690000000 1.0
C      1  0.5298270000000  0.5209310000000  0.5100750000000 1.0
C      1  0.5236390000000  0.5209310000000  0.4792060000000 1.0
C      1  0.4938110000000  0.5209310000000  0.4691310000000 1.0
C      1  0.5564940000000  0.5142010000000  0.5190820000000 1.0
C      1  0.5447720000000  0.5142010000000  0.4606160000000 1.0
C      1  0.4882790000000  0.5142010000000  0.4415340000000 1.0
C      1  0.4435060000000  0.5142010000000  0.4809180000000 1.0
C      1  0.4552280000000  0.5142010000000  0.5393840000000 1.0
C      1  0.5117210000000  0.5142010000000  0.5584660000000 1.0
C      1  0.5564940000000  0.4857990000000  0.5190820000000 1.0
C      1  0.5447720000000  0.4857990000000  0.4606160000000 1.0
C      1  0.4882790000000  0.4857990000000  0.4415340000000 1.0
C      1  0.4435060000000  0.4857990000000  0.4809180000000 1.0
C      1  0.4552280000000  0.4857990000000  0.5393840000000 1.0
C      1  0.5117210000000  0.4857990000000  0.5584660000000 1.0
C      1  0.4942450000000  0.5614670000000  0.4712950000000 1.0
C      1  0.4722630000000  0.5614670000000  0.4906320000000 1.0
C      1  0.4780190000000  0.5614670000000  0.5193370000000 1.0
C      1  0.5057550000000  0.5614670000000  0.5287050000000 1.0
C      1  0.5277370000000  0.5614670000000  0.5093680000000 1.0
C      1  0.5219810000000  0.5614670000000  0.4806630000000 1.0
C      1  0.4942450000000  0.4385330000000  0.4712950000000 1.0
C      1  0.4722630000000  0.4385330000000  0.4906320000000 1.0
C      1  0.4780190000000  0.4385330000000  0.5193370000000 1.0
C      1  0.5057550000000  0.4385330000000  0.5287050000000 1.0
C      1  0.5277370000000  0.4385330000000  0.5093680000000 1.0
C      1  0.5219810000000  0.4385330000000  0.4806630000000 1.0
C      1  0.5100250000000  0.5415570000000  0.5500000000000 1.0
C      1  0.5483140000000  0.5415570000000  0.5163180000000 1.0
C      1  0.5382890000000  0.5415570000000  0.4663180000000 1.0
C      1  0.4899750000000  0.5415570000000  0.4500000000000 1.0
C      1  0.4516860000000  0.5415570000000  0.4836820000000 1.0
C      1  0.4617110000000  0.5415570000000  0.5336820000000 1.0
C      1  0.5100250000000  0.4584430000000  0.5500000000000 1.0
C      1  0.5483140000000  0.4584430000000  0.5163180000000 1.0
C      1  0.5382890000000  0.4584430000000  0.4663180000000 1.0
C      1  0.4899750000000  0.4584430000000  0.4500000000000 1.0
C      1  0.4516860000000  0.4584430000000  0.4836820000000 1.0
C      1  0.4617110000000  0.4584430000000  0.5336820000000 1.0
END
