TITL C-2441161-5029-1240 0.0283081192941724 125000 -4773.56875890281 0 0 41 (C1) n - 1
REM
REM in /home/bkarasulu/work/CARBON/AIRSS/Generating-Clusters/ReaxFF-fromJPCA2015/Units_Real/with-SteepDescent/Higher-Symm
REM
REM
REM
REM
REM
REM ./C.cell (1df0a924f5614ab8850e4351716899ee)
REM
REM compiler GCC version 9.2.1 20190827 (Red Hat 9.2.1-1)
REM options -cpp -mtune=generic -march=x86-64 -g -O0 -fpre-include=/usr/include/finclude/math-vector-fortran.h
REM seed 193715710 84314125 -1694407865 -1871214526 1451709588 -1549941826 41607995 -2023306939 1481592582 1053251922 -1530224034 1871903226 -1822132929 2139186494 -278372634 254244568 452437025 -1359368620 2049475014 1124310593 -121225408 1346802693 -1674665731 1106324836 1961112261 -1919937423 708552650 741897927 -616796394 382721258 1599545167 1129526300 -1980487225
REM
CELL 1.54180   50.00000   50.00000   50.00000   90.00000   90.00000   90.00000
LATT -1
SFAC C  
C      1  0.4758580000000  0.4482420000000  0.4890850000000 1.0
C      1  0.4940610000000  0.4306630000000  0.4734600000000 1.0
C      1  0.5236970000000  0.4380320000000  0.4726190000000 1.0
C      1  0.5347490000000  0.4387850000000  0.5002580000000 1.0
C      1  0.5220890000000  0.4382090000000  0.5270740000000 1.0
C      1  0.4936770000000  0.4379430000000  0.5360370000000 1.0
C      1  0.4751240000000  0.4304850000000  0.5129230000000 1.0
C      1  0.4676860000000  0.4899180000000  0.5008820000000 1.0
C      1  0.4788900000000  0.4883450000000  0.4724480000000 1.0
C      1  0.5063840000000  0.4875190000000  0.4614730000000 1.0
C      1  0.5299720000000  0.4858570000000  0.4788840000000 1.0
C      1  0.5308500000000  0.4855160000000  0.5200610000000 1.0
C      1  0.5080690000000  0.4870330000000  0.5384190000000 1.0
C      1  0.4803140000000  0.4876110000000  0.5283540000000 1.0
C      1  0.5376600000000  0.5226160000000  0.5438940000000 1.0
C      1  0.4893540000000  0.5222470000000  0.5594630000000 1.0
C      1  0.4504280000000  0.5222170000000  0.5278480000000 1.0
C      1  0.4463680000000  0.5218320000000  0.4770480000000 1.0
C      1  0.4847270000000  0.5233090000000  0.4437620000000 1.0
C      1  0.5345720000000  0.5225610000000  0.4531110000000 1.0
C      1  0.5572510000000  0.5200420000000  0.4979700000000 1.0
C      1  0.4416040000000  0.5462430000000  0.4860550000000 1.0
C      1  0.4747610000000  0.5471260000000  0.4451400000000 1.0
C      1  0.5281640000000  0.5466530000000  0.4459480000000 1.0
C      1  0.5599320000000  0.5445830000000  0.4886630000000 1.0
C      1  0.5478590000000  0.5456810000000  0.5393300000000 1.0
C      1  0.4992530000000  0.5467130000000  0.5607570000000 1.0
C      1  0.4528090000000  0.5459880000000  0.5380000000000 1.0
C      1  0.5109810000000  0.5095590000000  0.4440160000000 1.0
C      1  0.5485790000000  0.5079670000000  0.4742770000000 1.0
C      1  0.5495650000000  0.5079080000000  0.5235560000000 1.0
C      1  0.5137350000000  0.5087600000000  0.5558850000000 1.0
C      1  0.4680980000000  0.5086120000000  0.5447070000000 1.0
C      1  0.4462910000000  0.5089030000000  0.5018730000000 1.0
C      1  0.4648720000000  0.5094400000000  0.4579560000000 1.0
C      1  0.4977900000000  0.4630200000000  0.4997670000000 1.0
C      1  0.5107030000000  0.4882920000000  0.4999090000000 1.0
C      1  0.5002530000000  0.5455660000000  0.5002920000000 1.0
C      1  0.4945050000000  0.4121350000000  0.4978630000000 1.0
C      1  0.5002680000000  0.5205520000000  0.5002340000000 1.0
C      1  0.5002470000000  0.5707690000000  0.5003470000000 1.0
END
