TITL C-2441160-1326-928 1.5270448131385e-08 125000 -3030.34358601519 0 0 22 (D3h) n - 1
REM
REM in /home/bkarasulu/work/CARBON/AIRSS/Generating-Clusters/ReaxFF-fromJPCA2015/Units_Real/with-SteepDescent/Higher-Symm
REM
REM
REM
REM
REM
REM ./C.cell (1df0a924f5614ab8850e4351716899ee)
REM
REM compiler GCC version 9.2.1 20190827 (Red Hat 9.2.1-1)
REM options -cpp -mtune=generic -march=x86-64 -g -O0 -fpre-include=/usr/include/finclude/math-vector-fortran.h
REM seed 350589434 -1269239847 1155029282 1050486385 -1498981595 -229076186 -968322427 -334772967 -1930454624 -449776182 -1594971699 -466321710 936216750 -301344659 -1782498454 -1431639185 -483906835 811207642 1271983806 1217710463 686290155 2126065589 -1887372832 890949747 -118996135 339971307 -1271775614 -1768321765 889534728 1228180314 1319856414 862620199 562337841
REM
CELL 1.54180   50.00000   50.00000   50.00000   90.00000   90.00000   90.00000
LATT -1
SFAC C  
C      1  0.5194100000000  0.4437560000000  0.4875820000000 1.0
C      1  0.4989650000000  0.4437560000000  0.5229870000000 1.0
C      1  0.4785260000000  0.4437560000000  0.4875780000000 1.0
C      1  0.4785240000000  0.5569210000000  0.4875810000000 1.0
C      1  0.4989690000000  0.5569210000000  0.5229860000000 1.0
C      1  0.5194080000000  0.5569210000000  0.4875770000000 1.0
C      1  0.4989640000000  0.5528360000000  0.4673890000000 1.0
C      1  0.5266750000000  0.5528370000000  0.5153750000000 1.0
C      1  0.4712620000000  0.5528370000000  0.5153800000000 1.0
C      1  0.4989700000000  0.4478400000000  0.4673890000000 1.0
C      1  0.4712590000000  0.4478410000000  0.5153770000000 1.0
C      1  0.5266730000000  0.4478410000000  0.5153810000000 1.0
C      1  0.5391990000000  0.5256680000000  0.5226050000000 1.0
C      1  0.4587390000000  0.5256670000000  0.5226110000000 1.0
C      1  0.4989640000000  0.5256670000000  0.4529290000000 1.0
C      1  0.4587360000000  0.4750100000000  0.5226060000000 1.0
C      1  0.5391950000000  0.4750100000000  0.5226110000000 1.0
C      1  0.4989700000000  0.4750100000000  0.4529290000000 1.0
C      1  0.5267350000000  0.5003390000000  0.5154130000000 1.0
C      1  0.4712000000000  0.5003390000000  0.5154140000000 1.0
C      1  0.4989670000000  0.5003380000000  0.4673190000000 1.0
C      1  0.4989670000000  0.5003390000000  0.4993820000000 1.0
END
