TITL C-2441158-471-1459 0.107227408583543 125000 -20862.4577307095 0 0 159 (C1) n - 1
REM
REM in /home/bkarasulu/work/CARBON/AIRSS/Generating-Clusters/ReaxFF-fromJPCA2015/Units_Real/with-SteepDescent/Higher-Symm
REM
REM
REM
REM
REM
REM ./C.cell (1df0a924f5614ab8850e4351716899ee)
REM
REM compiler GCC version 9.2.1 20190827 (Red Hat 9.2.1-1)
REM options -cpp -mtune=generic -march=x86-64 -g -O0 -fpre-include=/usr/include/finclude/math-vector-fortran.h
REM seed -148045453 1465192789 377737728 1073303493 1356501382 1233686920 1336301924 -2013457289 -294315317 -2120111770 -79378415 -476139846 -1964601939 -1642459500 856136611 1777026697 -1513694503 2041462666 -409571853 2089571075 64088189 1864282756 2109263967 -2087701075 -1917247266 858936316 1430762310 -2041682717 694770280 -1698730518 726136629 942270165 -585090159
REM
CELL 1.54180   50.00000   50.00000   50.00000   90.00000   90.00000   90.00000
LATT -1
SFAC C  
C      1  0.5896110000000  0.4952770000000  0.5391280000000 1.0
C      1  0.4124760000000  0.5122570000000  0.4588800000000 1.0
C      1  0.5318820000000  0.5138680000000  0.4168300000000 1.0
C      1  0.4563690000000  0.4862630000000  0.5903880000000 1.0
C      1  0.6035790000000  0.4944860000000  0.4898000000000 1.0
C      1  0.4029990000000  0.5207470000000  0.5086510000000 1.0
C      1  0.4335960000000  0.4966860000000  0.4958980000000 1.0
C      1  0.5730790000000  0.5143040000000  0.5056210000000 1.0
C      1  0.4944050000000  0.5312180000000  0.5901200000000 1.0
C      1  0.5143580000000  0.4634280000000  0.4041850000000 1.0
C      1  0.5429380000000  0.5567300000000  0.4317380000000 1.0
C      1  0.4557740000000  0.4429290000000  0.5690050000000 1.0
C      1  0.5006030000000  0.3974870000000  0.4976040000000 1.0
C      1  0.5011180000000  0.6038850000000  0.4969010000000 1.0
C      1  0.5187680000000  0.4274880000000  0.4367290000000 1.0
C      1  0.4773090000000  0.5766210000000  0.5597630000000 1.0
C      1  0.4156330000000  0.5383830000000  0.5284620000000 1.0
C      1  0.5809410000000  0.4457460000000  0.4698900000000 1.0
C      1  0.4491890000000  0.5280130000000  0.4553680000000 1.0
C      1  0.5432520000000  0.4913830000000  0.5364950000000 1.0
C      1  0.4287340000000  0.5224900000000  0.4340880000000 1.0
C      1  0.5767300000000  0.4831660000000  0.5629070000000 1.0
C      1  0.4600850000000  0.5282390000000  0.5321050000000 1.0
C      1  0.5383740000000  0.4739410000000  0.4706770000000 1.0
C      1  0.5810960000000  0.5227760000000  0.4536850000000 1.0
C      1  0.4181510000000  0.4774440000000  0.5334320000000 1.0
C      1  0.5411320000000  0.5107270000000  0.4582000000000 1.0
C      1  0.4684920000000  0.4860720000000  0.5308830000000 1.0
C      1  0.4436490000000  0.4263090000000  0.5472620000000 1.0
C      1  0.5507250000000  0.5734220000000  0.4529970000000 1.0
C      1  0.5654270000000  0.5676490000000  0.4837500000000 1.0
C      1  0.4295030000000  0.4276910000000  0.5197340000000 1.0
C      1  0.5692460000000  0.5265830000000  0.5666830000000 1.0
C      1  0.4293650000000  0.4721430000000  0.4309620000000 1.0
C      1  0.5230270000000  0.5515840000000  0.5244470000000 1.0
C      1  0.4812940000000  0.4472150000000  0.4776050000000 1.0
C      1  0.5518390000000  0.5155780000000  0.5228700000000 1.0
C      1  0.4309840000000  0.4931460000000  0.4683780000000 1.0
C      1  0.5870220000000  0.5523940000000  0.5016460000000 1.0
C      1  0.4205020000000  0.4494650000000  0.5023460000000 1.0
C      1  0.4337320000000  0.4575600000000  0.5718340000000 1.0
C      1  0.5704240000000  0.5418330000000  0.4332750000000 1.0
C      1  0.4159800000000  0.4972310000000  0.5557230000000 1.0
C      1  0.5907150000000  0.4948930000000  0.4623910000000 1.0
C      1  0.4262260000000  0.5745990000000  0.4960000000000 1.0
C      1  0.5837960000000  0.4310640000000  0.4962390000000 1.0
C      1  0.5426410000000  0.4701880000000  0.4049110000000 1.0
C      1  0.4638420000000  0.5318170000000  0.5913870000000 1.0
C      1  0.4431740000000  0.5519740000000  0.4245230000000 1.0
C      1  0.5625160000000  0.4598940000000  0.5726130000000 1.0
C      1  0.5080310000000  0.4895920000000  0.3912400000000 1.0
C      1  0.4942380000000  0.5081610000000  0.6090090000000 1.0
C      1  0.4805800000000  0.5944100000000  0.5369980000000 1.0
C      1  0.5162590000000  0.4095810000000  0.4601240000000 1.0
C      1  0.4904800000000  0.4017620000000  0.4693980000000 1.0
C      1  0.5079840000000  0.5975940000000  0.5247310000000 1.0
C      1  0.5076430000000  0.4632110000000  0.5138130000000 1.0
C      1  0.4877400000000  0.5380490000000  0.4844380000000 1.0
C      1  0.5480660000000  0.4755360000000  0.5135960000000 1.0
C      1  0.4538570000000  0.5171660000000  0.5038500000000 1.0
C      1  0.5070070000000  0.5599410000000  0.4835210000000 1.0
C      1  0.4924620000000  0.4448330000000  0.5278420000000 1.0
C      1  0.5156690000000  0.4621170000000  0.4636560000000 1.0
C      1  0.4889160000000  0.5271700000000  0.5297730000000 1.0
C      1  0.4842240000000  0.4888100000000  0.4353560000000 1.0
C      1  0.5125530000000  0.5175250000000  0.5704960000000 1.0
C      1  0.4630250000000  0.3919200000000  0.5221560000000 1.0
C      1  0.5410930000000  0.6092100000000  0.4892390000000 1.0
C      1  0.4428270000000  0.5385900000000  0.5718020000000 1.0
C      1  0.5582320000000  0.4640040000000  0.4303380000000 1.0
C      1  0.5327490000000  0.4875670000000  0.4937480000000 1.0
C      1  0.4789310000000  0.4960430000000  0.5031300000000 1.0
C      1  0.4036090000000  0.5296320000000  0.4803620000000 1.0
C      1  0.5944890000000  0.4798920000000  0.5144290000000 1.0
C      1  0.4524560000000  0.4568640000000  0.5052380000000 1.0
C      1  0.5441700000000  0.5459490000000  0.4852320000000 1.0
C      1  0.5348600000000  0.4551080000000  0.5792160000000 1.0
C      1  0.4684330000000  0.5472720000000  0.4166670000000 1.0
C      1  0.5010900000000  0.4493860000000  0.4263820000000 1.0
C      1  0.5025630000000  0.5647790000000  0.5663630000000 1.0
C      1  0.4892540000000  0.4756030000000  0.5475540000000 1.0
C      1  0.5140110000000  0.5125060000000  0.4648500000000 1.0
C      1  0.4663830000000  0.4953730000000  0.4126920000000 1.0
C      1  0.5320290000000  0.5007110000000  0.5843290000000 1.0
C      1  0.5570590000000  0.4312910000000  0.4618170000000 1.0
C      1  0.4406910000000  0.5593590000000  0.5312150000000 1.0
C      1  0.5069420000000  0.4534290000000  0.4864860000000 1.0
C      1  0.4923550000000  0.5564390000000  0.5247970000000 1.0
C      1  0.4515580000000  0.5624770000000  0.5584550000000 1.0
C      1  0.5455460000000  0.4384680000000  0.4382060000000 1.0
C      1  0.4781830000000  0.4168350000000  0.4329460000000 1.0
C      1  0.5257650000000  0.5821070000000  0.5671160000000 1.0
C      1  0.5568770000000  0.5662050000000  0.5437220000000 1.0
C      1  0.4431400000000  0.4330880000000  0.4567620000000 1.0
C      1  0.5516100000000  0.5867950000000  0.5026760000000 1.0
C      1  0.4480120000000  0.4110730000000  0.5043050000000 1.0
C      1  0.4380910000000  0.4971440000000  0.4196080000000 1.0
C      1  0.5610250000000  0.5017270000000  0.5782530000000 1.0
C      1  0.4085030000000  0.4906780000000  0.5089310000000 1.0
C      1  0.5961660000000  0.5244770000000  0.4936790000000 1.0
C      1  0.4764420000000  0.4915390000000  0.5689370000000 1.0
C      1  0.5088930000000  0.5048500000000  0.4376290000000 1.0
C      1  0.4281330000000  0.4839870000000  0.5791520000000 1.0
C      1  0.5592530000000  0.5201230000000  0.4189430000000 1.0
C      1  0.5535170000000  0.4470390000000  0.5193580000000 1.0
C      1  0.4604050000000  0.5445180000000  0.4921940000000 1.0
C      1  0.5790500000000  0.5496520000000  0.5290570000000 1.0
C      1  0.4225720000000  0.4470360000000  0.4732350000000 1.0
C      1  0.5423950000000  0.4853490000000  0.4463300000000 1.0
C      1  0.4596570000000  0.5075990000000  0.5516020000000 1.0
C      1  0.5267420000000  0.5895660000000  0.4549440000000 1.0
C      1  0.4667340000000  0.4090520000000  0.5456330000000 1.0
C      1  0.5814630000000  0.4694160000000  0.4539620000000 1.0
C      1  0.4206480000000  0.5257490000000  0.5530970000000 1.0
C      1  0.5370810000000  0.5873160000000  0.5410820000000 1.0
C      1  0.4640730000000  0.4109830000000  0.4565910000000 1.0
C      1  0.5072010000000  0.4223000000000  0.5148850000000 1.0
C      1  0.4849570000000  0.5815010000000  0.4825390000000 1.0
C      1  0.5260880000000  0.5555620000000  0.5803930000000 1.0
C      1  0.4730430000000  0.4414080000000  0.4198090000000 1.0
C      1  0.4883710000000  0.5098260000000  0.3994390000000 1.0
C      1  0.5116700000000  0.4862000000000  0.5997840000000 1.0
C      1  0.5139660000000  0.4851430000000  0.5355730000000 1.0
C      1  0.4734890000000  0.5192960000000  0.4629790000000 1.0
C      1  0.5487390000000  0.4371800000000  0.5642800000000 1.0
C      1  0.4506090000000  0.5726370000000  0.4435870000000 1.0
C      1  0.5103100000000  0.5140250000000  0.5428120000000 1.0
C      1  0.4676890000000  0.4907420000000  0.4600070000000 1.0
C      1  0.5859970000000  0.5245790000000  0.5435820000000 1.0
C      1  0.4165560000000  0.4714800000000  0.4575990000000 1.0
C      1  0.5227480000000  0.5728420000000  0.5065660000000 1.0
C      1  0.4661020000000  0.4320930000000  0.4964480000000 1.0
C      1  0.4704450000000  0.4737130000000  0.4848850000000 1.0
C      1  0.5368500000000  0.5345540000000  0.5098940000000 1.0
C      1  0.4435850000000  0.5525960000000  0.4672590000000 1.0
C      1  0.5404040000000  0.4291010000000  0.5392650000000 1.0
C      1  0.5418800000000  0.4122320000000  0.4780140000000 1.0
C      1  0.4559910000000  0.5849000000000  0.5224690000000 1.0
C      1  0.5071940000000  0.4599420000000  0.5863140000000 1.0
C      1  0.4936590000000  0.5382160000000  0.4109710000000 1.0
C      1  0.4908990000000  0.3860300000000  0.5215520000000 1.0
C      1  0.5180380000000  0.6119250000000  0.4742220000000 1.0
C      1  0.4459260000000  0.4691930000000  0.5299740000000 1.0
C      1  0.5572290000000  0.5268470000000  0.4693310000000 1.0
C      1  0.4766750000000  0.5809920000000  0.4534090000000 1.0
C      1  0.5167500000000  0.4123000000000  0.5402470000000 1.0
C      1  0.4645260000000  0.5080540000000  0.6084640000000 1.0
C      1  0.5370800000000  0.4970760000000  0.3935440000000 1.0
C      1  0.4525620000000  0.5849660000000  0.4942640000000 1.0
C      1  0.5617130000000  0.4092030000000  0.4990140000000 1.0
C      1  0.5031780000000  0.5763120000000  0.4419250000000 1.0
C      1  0.4931280000000  0.4180870000000  0.5585900000000 1.0
C      1  0.4471480000000  0.4488640000000  0.4329800000000 1.0
C      1  0.5514620000000  0.5494120000000  0.5665160000000 1.0
C      1  0.4139790000000  0.5567660000000  0.4781260000000 1.0
C      1  0.5826990000000  0.4523470000000  0.5159670000000 1.0
C      1  0.4872940000000  0.4426670000000  0.5730680000000 1.0
C      1  0.5131820000000  0.5535400000000  0.4276320000000 1.0
C      1  0.5077530000000  0.5026640000000  0.4922730000000 1.0
END
