TITL C-2441164-471-663 0.0790672414283993 125000 -16923.9630707788 0 0 128 (C1) n - 1
REM
REM in /home/bkarasulu/work/CARBON/AIRSS/Generating-Clusters/ReaxFF-fromJPCA2015/Units_Real/with-SteepDescent/Higher-Symm
REM
REM
REM
REM
REM
REM ./C.cell (1df0a924f5614ab8850e4351716899ee)
REM
REM compiler GCC version 9.2.1 20190827 (Red Hat 9.2.1-1)
REM options -cpp -mtune=generic -march=x86-64 -g -O0 -fpre-include=/usr/include/finclude/math-vector-fortran.h
REM seed 394318142 1606884194 -1830280702 -1737034794 -253036655 -1352745966 1066954940 105076827 1976410000 -1236179286 -1381290334 -411921612 -184468827 -697001973 115222385 1809821846 -1857242019 50513489 -1453287561 1306402148 1400746721 -227112193 -1248871957 -1414152741 1209952639 -1748947088 2065704625 2141934612 -1163190780 413065067 -2128922388 1349703752 -1244767119
REM
CELL 1.54180   50.00000   50.00000   50.00000   90.00000   90.00000   90.00000
LATT -1
SFAC C  
C      1  0.4419980000000  0.4882240000000  0.4158830000000 1.0
C      1  0.4453840000000  0.5737640000000  0.5276630000000 1.0
C      1  0.4435590000000  0.4330640000000  0.5505350000000 1.0
C      1  0.5536200000000  0.5084390000000  0.4213990000000 1.0
C      1  0.5550880000000  0.4221340000000  0.5319800000000 1.0
C      1  0.5562540000000  0.5664100000000  0.5518740000000 1.0
C      1  0.4847840000000  0.5880010000000  0.4689790000000 1.0
C      1  0.4862140000000  0.4844880000000  0.5908350000000 1.0
C      1  0.4846070000000  0.4326500000000  0.4406020000000 1.0
C      1  0.5140860000000  0.4143240000000  0.4703630000000 1.0
C      1  0.5107520000000  0.5151650000000  0.5932580000000 1.0
C      1  0.5158290000000  0.5629350000000  0.4441930000000 1.0
C      1  0.5138390000000  0.4794370000000  0.4057350000000 1.0
C      1  0.5159830000000  0.5915000000000  0.5315050000000 1.0
C      1  0.5145010000000  0.4279800000000  0.5646330000000 1.0
C      1  0.4810450000000  0.5199930000000  0.4051380000000 1.0
C      1  0.4832860000000  0.4109770000000  0.5284450000000 1.0
C      1  0.4846980000000  0.5658340000000  0.5589450000000 1.0
C      1  0.4491190000000  0.4832920000000  0.4861680000000 1.0
C      1  0.4474750000000  0.5118380000000  0.4936010000000 1.0
C      1  0.4503080000000  0.5123100000000  0.5244000000000 1.0
C      1  0.5503380000000  0.5141000000000  0.4870930000000 1.0
C      1  0.5516400000000  0.4857410000000  0.4926360000000 1.0
C      1  0.5511800000000  0.5054240000000  0.5157580000000 1.0
C      1  0.4875580000000  0.5610520000000  0.4388200000000 1.0
C      1  0.4868960000000  0.5234360000000  0.5797320000000 1.0
C      1  0.4865030000000  0.4149890000000  0.4773050000000 1.0
C      1  0.5119000000000  0.4387590000000  0.4373020000000 1.0
C      1  0.5121390000000  0.4746120000000  0.5861550000000 1.0
C      1  0.5107930000000  0.5925960000000  0.4778780000000 1.0
C      1  0.4877090000000  0.4329920000000  0.5795570000000 1.0
C      1  0.4877930000000  0.4643680000000  0.4023430000000 1.0
C      1  0.4879550000000  0.5919350000000  0.5226370000000 1.0
C      1  0.5088110000000  0.5625180000000  0.5754490000000 1.0
C      1  0.5090840000000  0.5277980000000  0.4066490000000 1.0
C      1  0.5098870000000  0.3984140000000  0.5184360000000 1.0
C      1  0.5570360000000  0.5670880000000  0.4649500000000 1.0
C      1  0.5581310000000  0.4978360000000  0.5767240000000 1.0
C      1  0.5557060000000  0.4369950000000  0.4617180000000 1.0
C      1  0.4417650000000  0.4345210000000  0.4623030000000 1.0
C      1  0.4421140000000  0.4986840000000  0.5779680000000 1.0
C      1  0.4424470000000  0.5642920000000  0.4612900000000 1.0
C      1  0.3999590000000  0.4720290000000  0.5019170000000 1.0
C      1  0.3984610000000  0.5121550000000  0.4744130000000 1.0
C      1  0.3987450000000  0.5157480000000  0.5252980000000 1.0
C      1  0.5986850000000  0.5281540000000  0.5026170000000 1.0
C      1  0.6004530000000  0.4872500000000  0.4750530000000 1.0
C      1  0.5984310000000  0.4838030000000  0.5245840000000 1.0
C      1  0.5283750000000  0.5377970000000  0.4500780000000 1.0
C      1  0.5257230000000  0.5113410000000  0.5555850000000 1.0
C      1  0.5185000000000  0.4500640000000  0.4911470000000 1.0
C      1  0.4814140000000  0.4665070000000  0.4671500000000 1.0
C      1  0.4831570000000  0.4856100000000  0.5465310000000 1.0
C      1  0.4793830000000  0.5533140000000  0.4916460000000 1.0
C      1  0.4690340000000  0.5741670000000  0.5114340000000 1.0
C      1  0.4638010000000  0.4330650000000  0.5674950000000 1.0
C      1  0.4631070000000  0.4741830000000  0.4080340000000 1.0
C      1  0.5344200000000  0.4076960000000  0.5236980000000 1.0
C      1  0.5347780000000  0.5652080000000  0.5685920000000 1.0
C      1  0.5321810000000  0.5274050000000  0.4236260000000 1.0
C      1  0.4231590000000  0.4823900000000  0.5631490000000 1.0
C      1  0.4227900000000  0.4538490000000  0.4534290000000 1.0
C      1  0.4229340000000  0.5608110000000  0.4823480000000 1.0
C      1  0.5753020000000  0.5154930000000  0.5614720000000 1.0
C      1  0.5734250000000  0.5450730000000  0.4554710000000 1.0
C      1  0.5743950000000  0.4398460000000  0.4829890000000 1.0
C      1  0.4317750000000  0.5222240000000  0.5639850000000 1.0
C      1  0.4345320000000  0.4390270000000  0.4896810000000 1.0
C      1  0.4409480000000  0.5364980000000  0.4537570000000 1.0
C      1  0.5588090000000  0.4782280000000  0.5553470000000 1.0
C      1  0.5596820000000  0.5583290000000  0.4916740000000 1.0
C      1  0.5588840000000  0.4641320000000  0.4533380000000 1.0
C      1  0.4565440000000  0.4457850000000  0.5053710000000 1.0
C      1  0.4641030000000  0.5193840000000  0.4492160000000 1.0
C      1  0.4496840000000  0.5327110000000  0.5451070000000 1.0
C      1  0.5356120000000  0.5557660000000  0.5072340000000 1.0
C      1  0.5360130000000  0.4810490000000  0.4467580000000 1.0
C      1  0.5353890000000  0.4652570000000  0.5451710000000 1.0
C      1  0.4211030000000  0.5643990000000  0.5123680000000 1.0
C      1  0.4234920000000  0.4572970000000  0.5478010000000 1.0
C      1  0.4216230000000  0.4787980000000  0.4380460000000 1.0
C      1  0.5753570000000  0.4362420000000  0.5125880000000 1.0
C      1  0.5760610000000  0.5424800000000  0.5494730000000 1.0
C      1  0.5751450000000  0.5198780000000  0.4390800000000 1.0
C      1  0.5203700000000  0.5252040000000  0.4756970000000 1.0
C      1  0.5229410000000  0.5054340000000  0.5276540000000 1.0
C      1  0.5245460000000  0.4778260000000  0.4862310000000 1.0
C      1  0.4722310000000  0.4685170000000  0.4949780000000 1.0
C      1  0.4782450000000  0.5045980000000  0.5261640000000 1.0
C      1  0.4745140000000  0.5239870000000  0.4888240000000 1.0
C      1  0.5876020000000  0.4592640000000  0.5202380000000 1.0
C      1  0.5903610000000  0.5026390000000  0.4548170000000 1.0
C      1  0.5879310000000  0.5370470000000  0.5255170000000 1.0
C      1  0.4090070000000  0.5407120000000  0.5200620000000 1.0
C      1  0.4095160000000  0.4964040000000  0.4551900000000 1.0
C      1  0.4114830000000  0.4634760000000  0.5244630000000 1.0
C      1  0.5057580000000  0.4534520000000  0.5690100000000 1.0
C      1  0.5045230000000  0.4640020000000  0.4269320000000 1.0
C      1  0.5081380000000  0.5865050000000  0.5054620000000 1.0
C      1  0.4948070000000  0.5397720000000  0.5577980000000 1.0
C      1  0.4902940000000  0.5373770000000  0.4242580000000 1.0
C      1  0.4942910000000  0.4189540000000  0.5042180000000 1.0
C      1  0.5377650000000  0.4375970000000  0.5521370000000 1.0
C      1  0.5383210000000  0.4847190000000  0.4187030000000 1.0
C      1  0.5389250000000  0.5743310000000  0.5288330000000 1.0
C      1  0.4583310000000  0.5598200000000  0.5497760000000 1.0
C      1  0.4590050000000  0.5127590000000  0.4217230000000 1.0
C      1  0.4611780000000  0.4276170000000  0.5265590000000 1.0
C      1  0.5733880000000  0.4970160000000  0.5384880000000 1.0
C      1  0.5748510000000  0.4688880000000  0.4776970000000 1.0
C      1  0.5734710000000  0.5343540000000  0.4829080000000 1.0
C      1  0.4189590000000  0.5051200000000  0.5457400000000 1.0
C      1  0.4235140000000  0.5311670000000  0.4776080000000 1.0
C      1  0.4252640000000  0.4657250000000  0.4821330000000 1.0
C      1  0.5108140000000  0.5417380000000  0.5000570000000 1.0
C      1  0.5083300000000  0.4748240000000  0.5334750000000 1.0
C      1  0.5059750000000  0.4834780000000  0.4638110000000 1.0
C      1  0.4991810000000  0.4585860000000  0.5100830000000 1.0
C      1  0.5002440000000  0.5255090000000  0.5256210000000 1.0
C      1  0.4914630000000  0.5119640000000  0.4681170000000 1.0
C      1  0.4709650000000  0.5680630000000  0.4617370000000 1.0
C      1  0.4720520000000  0.4978560000000  0.5731000000000 1.0
C      1  0.4716170000000  0.4371410000000  0.4620090000000 1.0
C      1  0.5268740000000  0.4348080000000  0.4638800000000 1.0
C      1  0.5289900000000  0.5001490000000  0.5801590000000 1.0
C      1  0.5309310000000  0.5791570000000  0.4613940000000 1.0
C      1  0.3924790000000  0.5000120000000  0.5006200000000 1.0
C      1  0.6061290000000  0.4999220000000  0.5011850000000 1.0
END
