TITL C-2441167-4473-510 0.0256254625925076 125000 -12593.734642862 0 0 90 (C1) n - 1
REM
REM in /home/bkarasulu/work/CARBON/AIRSS/Generating-Clusters/ReaxFF-fromJPCA2015/Units_Real/with-SteepDescent/Higher-Symm
REM
REM
REM
REM
REM
REM ./C.cell (1df0a924f5614ab8850e4351716899ee)
REM
REM compiler GCC version 9.2.1 20190827 (Red Hat 9.2.1-1)
REM options -cpp -mtune=generic -march=x86-64 -g -O0 -fpre-include=/usr/include/finclude/math-vector-fortran.h
REM seed -1608396635 -1874555628 -322316110 1375296778 408444262 380318925 -2110864191 -1170718233 586259871 360657623 579165383 -1827835274 -998736353 -1016219850 2119571352 -749591109 35895987 2019671537 -2019768545 1055550723 353456622 2102598063 -2066982966 -1581356902 873785754 656557548 768683535 -976706279 -1199924524 -655316582 1203845265 1385604321 -333155679
REM
CELL 1.54180   50.00000   50.00000   50.00000   90.00000   90.00000   90.00000
LATT -1
SFAC C  
C      1  0.4900390000000  0.4903260000000  0.4833980000000 1.0
C      1  0.5127750000000  0.5074230000000  0.4838940000000 1.0
C      1  0.5282040000000  0.4773720000000  0.4500010000000 1.0
C      1  0.4719000000000  0.5217600000000  0.4520790000000 1.0
C      1  0.5204440000000  0.4434590000000  0.5508260000000 1.0
C      1  0.4786430000000  0.5571980000000  0.5510110000000 1.0
C      1  0.5622500000000  0.5372970000000  0.5013260000000 1.0
C      1  0.4322450000000  0.4713510000000  0.4987720000000 1.0
C      1  0.5087580000000  0.5383950000000  0.4390260000000 1.0
C      1  0.4898360000000  0.4615980000000  0.4393550000000 1.0
C      1  0.4649440000000  0.4636080000000  0.5138170000000 1.0
C      1  0.5345060000000  0.5398840000000  0.5139990000000 1.0
C      1  0.4185750000000  0.4761970000000  0.5230990000000 1.0
C      1  0.5812870000000  0.5196120000000  0.5146450000000 1.0
C      1  0.5609260000000  0.4639850000000  0.4677660000000 1.0
C      1  0.4382720000000  0.5377170000000  0.4664170000000 1.0
C      1  0.5287960000000  0.4973330000000  0.5436920000000 1.0
C      1  0.4711810000000  0.5029130000000  0.5412940000000 1.0
C      1  0.5509610000000  0.5767260000000  0.4957770000000 1.0
C      1  0.4478200000000  0.4260160000000  0.4958070000000 1.0
C      1  0.5035900000000  0.4585960000000  0.5687440000000 1.0
C      1  0.4967690000000  0.5399230000000  0.5655380000000 1.0
C      1  0.4211710000000  0.5255020000000  0.4865900000000 1.0
C      1  0.5810330000000  0.4702970000000  0.4878690000000 1.0
C      1  0.4793970000000  0.4547180000000  0.5576260000000 1.0
C      1  0.5212890000000  0.5451820000000  0.5574580000000 1.0
C      1  0.4633020000000  0.4745410000000  0.5433240000000 1.0
C      1  0.5383480000000  0.5255050000000  0.5435730000000 1.0
C      1  0.4227440000000  0.4842840000000  0.4596780000000 1.0
C      1  0.5837300000000  0.5155540000000  0.4697810000000 1.0
C      1  0.5888470000000  0.4991050000000  0.4912020000000 1.0
C      1  0.4177280000000  0.4961030000000  0.4856240000000 1.0
C      1  0.5390150000000  0.4533580000000  0.4840240000000 1.0
C      1  0.4596790000000  0.5477630000000  0.4840900000000 1.0
C      1  0.5466290000000  0.4529170000000  0.5537220000000 1.0
C      1  0.4526650000000  0.5470310000000  0.5536630000000 1.0
C      1  0.4995870000000  0.4862230000000  0.5736270000000 1.0
C      1  0.5014400000000  0.5129340000000  0.5726570000000 1.0
C      1  0.5295140000000  0.5720730000000  0.4764890000000 1.0
C      1  0.4697000000000  0.4294160000000  0.4768770000000 1.0
C      1  0.4292380000000  0.5049060000000  0.5499800000000 1.0
C      1  0.5722530000000  0.4945370000000  0.5473170000000 1.0
C      1  0.4688920000000  0.4518880000000  0.4563600000000 1.0
C      1  0.5296780000000  0.5499160000000  0.4549990000000 1.0
C      1  0.5706810000000  0.5583460000000  0.4833160000000 1.0
C      1  0.4271000000000  0.4436010000000  0.4849630000000 1.0
C      1  0.4942310000000  0.4204690000000  0.4896610000000 1.0
C      1  0.5049350000000  0.5799940000000  0.4897740000000 1.0
C      1  0.4955340000000  0.5744740000000  0.5186320000000 1.0
C      1  0.5036870000000  0.4254970000000  0.5185840000000 1.0
C      1  0.5553620000000  0.4400580000000  0.5284730000000 1.0
C      1  0.4442380000000  0.5578520000000  0.5274950000000 1.0
C      1  0.4590760000000  0.4356510000000  0.5212850000000 1.0
C      1  0.5400940000000  0.5684530000000  0.5221380000000 1.0
C      1  0.4266850000000  0.4560690000000  0.4596220000000 1.0
C      1  0.5731960000000  0.5391650000000  0.4599540000000 1.0
C      1  0.5136090000000  0.4237470000000  0.4678490000000 1.0
C      1  0.4855030000000  0.5764290000000  0.4679540000000 1.0
C      1  0.5346600000000  0.4911410000000  0.4267190000000 1.0
C      1  0.4646070000000  0.5087990000000  0.4273970000000 1.0
C      1  0.5330960000000  0.4239480000000  0.5165410000000 1.0
C      1  0.4659540000000  0.5757230000000  0.5167160000000 1.0
C      1  0.5340270000000  0.5016860000000  0.4666900000000 1.0
C      1  0.4666740000000  0.4997010000000  0.4729670000000 1.0
C      1  0.4269870000000  0.5382870000000  0.5127720000000 1.0
C      1  0.5738040000000  0.4578690000000  0.5138240000000 1.0
C      1  0.4465200000000  0.5264300000000  0.4407610000000 1.0
C      1  0.5552510000000  0.4763400000000  0.4419840000000 1.0
C      1  0.5621160000000  0.4835780000000  0.5208330000000 1.0
C      1  0.4374070000000  0.5132360000000  0.5218460000000 1.0
C      1  0.5108980000000  0.5083200000000  0.4275480000000 1.0
C      1  0.4882620000000  0.4918660000000  0.4276900000000 1.0
C      1  0.4537290000000  0.5178960000000  0.5589020000000 1.0
C      1  0.5478930000000  0.4823100000000  0.5590810000000 1.0
C      1  0.5197760000000  0.4673820000000  0.5015960000000 1.0
C      1  0.4795960000000  0.5329120000000  0.5011420000000 1.0
C      1  0.5364940000000  0.4242760000000  0.4868770000000 1.0
C      1  0.4625630000000  0.5766970000000  0.4870350000000 1.0
C      1  0.4878750000000  0.5534230000000  0.4498990000000 1.0
C      1  0.5108120000000  0.4460670000000  0.4492470000000 1.0
C      1  0.5085010000000  0.5315220000000  0.4982330000000 1.0
C      1  0.4905580000000  0.4684810000000  0.4989690000000 1.0
C      1  0.4314410000000  0.4757830000000  0.5477470000000 1.0
C      1  0.5694430000000  0.5222120000000  0.5407960000000 1.0
C      1  0.5333390000000  0.4868330000000  0.5173300000000 1.0
C      1  0.4656740000000  0.5095470000000  0.5130220000000 1.0
C      1  0.4824120000000  0.4317470000000  0.5385140000000 1.0
C      1  0.5167860000000  0.5690240000000  0.5392320000000 1.0
C      1  0.4533340000000  0.4786550000000  0.4564420000000 1.0
C      1  0.5469810000000  0.5260640000000  0.4551340000000 1.0
END
