TITL C-2441166-8118-874 0.013565427436212 125000 -13446.0534436531 0 0 92 (C1) n - 1
REM
REM in /home/bkarasulu/work/CARBON/AIRSS/Generating-Clusters/ReaxFF-fromJPCA2015/Units_Real/with-SteepDescent/Higher-Symm
REM
REM
REM
REM
REM
REM ./C.cell (1df0a924f5614ab8850e4351716899ee)
REM
REM compiler GCC version 9.2.1 20190827 (Red Hat 9.2.1-1)
REM options -cpp -mtune=generic -march=x86-64 -g -O0 -fpre-include=/usr/include/finclude/math-vector-fortran.h
REM seed -679976926 -1058906116 700857580 -1121930104 976151068 1542162327 -2100088230 -1601463207 855866980 980569925 -392463022 -1222883331 479212378 754211814 -20973916 -1360790780 852496069 -1641414756 -1361226915 -238496908 -1757359305 1384905428 -1733315202 -1593932685 -955870321 -1501571175 -869223149 -807721974 1408390357 -911738475 -345314711 527119619 -876404324
REM
CELL 1.54180   50.00000   50.00000   50.00000   90.00000   90.00000   90.00000
LATT -1
SFAC C  
C      1  0.4352380000000  0.5298170000000  0.4779100000000 1.0
C      1  0.5494340000000  0.5303660000000  0.4552510000000 1.0
C      1  0.5138340000000  0.5298780000000  0.5675250000000 1.0
C      1  0.4351960000000  0.4726220000000  0.4782670000000 1.0
C      1  0.5510500000000  0.4727290000000  0.4551570000000 1.0
C      1  0.5141440000000  0.4721610000000  0.5658930000000 1.0
C      1  0.5314810000000  0.5159960000000  0.4370100000000 1.0
C      1  0.5389470000000  0.5159100000000  0.5601640000000 1.0
C      1  0.4280490000000  0.5162900000000  0.5032660000000 1.0
C      1  0.5322140000000  0.4864010000000  0.4367140000000 1.0
C      1  0.5389150000000  0.4864920000000  0.5587350000000 1.0
C      1  0.4279110000000  0.4865840000000  0.5032410000000 1.0
C      1  0.5463360000000  0.5709120000000  0.5489620000000 1.0
C      1  0.4344620000000  0.5696830000000  0.5181180000000 1.0
C      1  0.5166500000000  0.5720020000000  0.4339360000000 1.0
C      1  0.5474410000000  0.4304820000000  0.5469610000000 1.0
C      1  0.4328380000000  0.4332390000000  0.5175490000000 1.0
C      1  0.5171000000000  0.4309950000000  0.4350210000000 1.0
C      1  0.4546540000000  0.4869290000000  0.5445370000000 1.0
C      1  0.4839220000000  0.4876480000000  0.4361970000000 1.0
C      1  0.5721820000000  0.4875040000000  0.5207600000000 1.0
C      1  0.4546140000000  0.5152520000000  0.5436710000000 1.0
C      1  0.4822470000000  0.5151520000000  0.4281440000000 1.0
C      1  0.5636710000000  0.5146870000000  0.5183620000000 1.0
C      1  0.5107670000000  0.4160340000000  0.4595680000000 1.0
C      1  0.5300750000000  0.4152020000000  0.5293830000000 1.0
C      1  0.4567150000000  0.4203360000000  0.5126710000000 1.0
C      1  0.5095080000000  0.5869740000000  0.4575410000000 1.0
C      1  0.5296240000000  0.5860470000000  0.5297130000000 1.0
C      1  0.4582550000000  0.5821130000000  0.5117660000000 1.0
C      1  0.4758110000000  0.5158760000000  0.5217110000000 1.0
C      1  0.4950250000000  0.5145100000000  0.4716650000000 1.0
C      1  0.5317590000000  0.5125870000000  0.5106930000000 1.0
C      1  0.4759530000000  0.4876690000000  0.5230530000000 1.0
C      1  0.4919180000000  0.4889690000000  0.4675670000000 1.0
C      1  0.5274240000000  0.4873480000000  0.5055610000000 1.0
C      1  0.4915840000000  0.5149100000000  0.5770940000000 1.0
C      1  0.4393620000000  0.5150290000000  0.4539230000000 1.0
C      1  0.5693690000000  0.5162650000000  0.4704710000000 1.0
C      1  0.4913840000000  0.4860640000000  0.5767220000000 1.0
C      1  0.4388440000000  0.4870840000000  0.4539060000000 1.0
C      1  0.5693540000000  0.4877490000000  0.4707680000000 1.0
C      1  0.5746100000000  0.5296800000000  0.4952450000000 1.0
C      1  0.4671920000000  0.5277980000000  0.5682990000000 1.0
C      1  0.4583830000000  0.5281600000000  0.4366960000000 1.0
C      1  0.5756190000000  0.4741870000000  0.4957890000000 1.0
C      1  0.4669990000000  0.4735720000000  0.5680500000000 1.0
C      1  0.4577710000000  0.4739340000000  0.4373540000000 1.0
C      1  0.4431440000000  0.4491170000000  0.5392910000000 1.0
C      1  0.4938590000000  0.4485690000000  0.4340280000000 1.0
C      1  0.5605130000000  0.4480260000000  0.5277210000000 1.0
C      1  0.4443970000000  0.5533370000000  0.5397830000000 1.0
C      1  0.4932350000000  0.5543850000000  0.4329620000000 1.0
C      1  0.5598950000000  0.5541280000000  0.5295010000000 1.0
C      1  0.5088510000000  0.4718010000000  0.4264510000000 1.0
C      1  0.5601590000000  0.4734440000000  0.5423780000000 1.0
C      1  0.4307470000000  0.4726850000000  0.5292260000000 1.0
C      1  0.5068970000000  0.5292630000000  0.4264980000000 1.0
C      1  0.5596900000000  0.5303760000000  0.5450770000000 1.0
C      1  0.4311640000000  0.5301800000000  0.5291250000000 1.0
C      1  0.5484920000000  0.5552880000000  0.4717720000000 1.0
C      1  0.4984780000000  0.5541550000000  0.5598230000000 1.0
C      1  0.4490880000000  0.5546020000000  0.4701610000000 1.0
C      1  0.5514200000000  0.4475200000000  0.4708520000000 1.0
C      1  0.4992260000000  0.4478920000000  0.5577970000000 1.0
C      1  0.4492270000000  0.4478970000000  0.4706240000000 1.0
C      1  0.4792440000000  0.4352290000000  0.5200750000000 1.0
C      1  0.4936880000000  0.4309340000000  0.4773350000000 1.0
C      1  0.5244130000000  0.4321410000000  0.5058120000000 1.0
C      1  0.4822240000000  0.5680650000000  0.5176770000000 1.0
C      1  0.4938310000000  0.5692970000000  0.4744810000000 1.0
C      1  0.5269810000000  0.5699010000000  0.5052260000000 1.0
C      1  0.4684700000000  0.4473520000000  0.5571150000000 1.0
C      1  0.4653090000000  0.4483550000000  0.4455550000000 1.0
C      1  0.5647700000000  0.4480320000000  0.4978520000000 1.0
C      1  0.4682550000000  0.5539680000000  0.5584870000000 1.0
C      1  0.4652900000000  0.5541840000000  0.4451540000000 1.0
C      1  0.5637490000000  0.5556930000000  0.4983290000000 1.0
C      1  0.5381370000000  0.4263200000000  0.4562330000000 1.0
C      1  0.5184970000000  0.4267060000000  0.5544200000000 1.0
C      1  0.4435750000000  0.4271930000000  0.4898200000000 1.0
C      1  0.5370590000000  0.5766130000000  0.4553950000000 1.0
C      1  0.5171030000000  0.5758730000000  0.5545310000000 1.0
C      1  0.4433590000000  0.5748610000000  0.4898710000000 1.0
C      1  0.4960470000000  0.4623620000000  0.4846220000000 1.0
C      1  0.5222340000000  0.4612730000000  0.4995480000000 1.0
C      1  0.4817230000000  0.4632810000000  0.5109950000000 1.0
C      1  0.5000880000000  0.5405430000000  0.4782730000000 1.0
C      1  0.5159960000000  0.5389000000000  0.5052510000000 1.0
C      1  0.4897890000000  0.5401390000000  0.5190190000000 1.0
C      1  0.5010120000000  0.5823720000000  0.4998130000000 1.0
C      1  0.4980750000000  0.4191550000000  0.5033880000000 1.0
END
