TITL C-2441164-471-773 0.0295849516384613 125000 -22725.3925558464 0 0 160 (C1) n - 1
REM
REM in /home/bkarasulu/work/CARBON/AIRSS/Generating-Clusters/ReaxFF-fromJPCA2015/Units_Real/with-SteepDescent/Higher-Symm
REM
REM
REM
REM
REM
REM ./C.cell (1df0a924f5614ab8850e4351716899ee)
REM
REM compiler GCC version 9.2.1 20190827 (Red Hat 9.2.1-1)
REM options -cpp -mtune=generic -march=x86-64 -g -O0 -fpre-include=/usr/include/finclude/math-vector-fortran.h
REM seed 1615823662 -2075542264 321552162 -1267712411 -1430166985 244462914 -1346718004 -865728547 1497793266 55762078 -307804725 1268283712 853323532 -1454554321 215342725 -1895694330 -629089425 1714698178 491842236 763561845 1561739021 -562599662 -1725145565 394680792 -890324721 568003003 -669700373 1197869530 -537458752 -556568331 1892456707 798792606 -1570067810
REM
CELL 1.54180   50.00000   50.00000   50.00000   90.00000   90.00000   90.00000
LATT -1
SFAC C  
C      1  0.5360770000000  0.5571470000000  0.4625190000000 1.0
C      1  0.5524450000000  0.4653300000000  0.5330560000000 1.0
C      1  0.4659130000000  0.5338450000000  0.5500270000000 1.0
C      1  0.4690590000000  0.4459680000000  0.4662110000000 1.0
C      1  0.5358810000000  0.4419730000000  0.5284040000000 1.0
C      1  0.4663890000000  0.5582820000000  0.5335570000000 1.0
C      1  0.4402150000000  0.5261150000000  0.5389170000000 1.0
C      1  0.5610920000000  0.5264140000000  0.4626740000000 1.0
C      1  0.4392290000000  0.4729410000000  0.4595140000000 1.0
C      1  0.5362180000000  0.4724430000000  0.5553060000000 1.0
C      1  0.4656650000000  0.4688230000000  0.4475850000000 1.0
C      1  0.5375550000000  0.5337000000000  0.4468260000000 1.0
C      1  0.4649810000000  0.4048930000000  0.4903130000000 1.0
C      1  0.4022910000000  0.4979150000000  0.4583020000000 1.0
C      1  0.4915430000000  0.4565810000000  0.4093680000000 1.0
C      1  0.5403270000000  0.5936490000000  0.4943260000000 1.0
C      1  0.4571770000000  0.5968250000000  0.5055110000000 1.0
C      1  0.5443560000000  0.4015970000000  0.5096910000000 1.0
C      1  0.5970010000000  0.5025370000000  0.4580430000000 1.0
C      1  0.4016000000000  0.5044310000000  0.5395560000000 1.0
C      1  0.5944180000000  0.4954670000000  0.5381720000000 1.0
C      1  0.5017800000000  0.5370710000000  0.4067210000000 1.0
C      1  0.4959040000000  0.5378220000000  0.5934870000000 1.0
C      1  0.5013030000000  0.4600120000000  0.5926700000000 1.0
C      1  0.5653820000000  0.4417900000000  0.4832070000000 1.0
C      1  0.4400900000000  0.4947640000000  0.5857240000000 1.0
C      1  0.4986780000000  0.5784740000000  0.4462910000000 1.0
C      1  0.4183310000000  0.5591780000000  0.4972190000000 1.0
C      1  0.5824250000000  0.5579340000000  0.5031880000000 1.0
C      1  0.4216260000000  0.4443870000000  0.4987740000000 1.0
C      1  0.5563170000000  0.5027370000000  0.5824190000000 1.0
C      1  0.4385320000000  0.5043640000000  0.4162690000000 1.0
C      1  0.5562720000000  0.4983560000000  0.4187290000000 1.0
C      1  0.5084650000000  0.4332940000000  0.4564460000000 1.0
C      1  0.4982420000000  0.4249030000000  0.5480350000000 1.0
C      1  0.5039230000000  0.5822550000000  0.5568710000000 1.0
C      1  0.5965550000000  0.4895740000000  0.4843130000000 1.0
C      1  0.4900960000000  0.4866390000000  0.5971940000000 1.0
C      1  0.4859180000000  0.5909580000000  0.4954980000000 1.0
C      1  0.4029990000000  0.5102630000000  0.4839410000000 1.0
C      1  0.5990160000000  0.5089650000000  0.5132200000000 1.0
C      1  0.4088690000000  0.4941470000000  0.5127860000000 1.0
C      1  0.5066340000000  0.5120480000000  0.5969370000000 1.0
C      1  0.4897760000000  0.5094840000000  0.4041850000000 1.0
C      1  0.5048920000000  0.4833870000000  0.4066980000000 1.0
C      1  0.5200410000000  0.4026730000000  0.4939190000000 1.0
C      1  0.4904160000000  0.4016870000000  0.5050320000000 1.0
C      1  0.5155420000000  0.5966350000000  0.5080380000000 1.0
C      1  0.4677360000000  0.5402030000000  0.5998760000000 1.0
C      1  0.5416270000000  0.6002310000000  0.4653760000000 1.0
C      1  0.5980670000000  0.4679990000000  0.5351310000000 1.0
C      1  0.5302800000000  0.4585360000000  0.5990310000000 1.0
C      1  0.4643510000000  0.4599000000000  0.3989560000000 1.0
C      1  0.5304910000000  0.5412240000000  0.4004470000000 1.0
C      1  0.4658600000000  0.3992940000000  0.4609250000000 1.0
C      1  0.5403120000000  0.3973680000000  0.5383270000000 1.0
C      1  0.4584670000000  0.6040380000000  0.5336190000000 1.0
C      1  0.3948190000000  0.5324480000000  0.5392660000000 1.0
C      1  0.6045660000000  0.5310700000000  0.4608700000000 1.0
C      1  0.3937160000000  0.4688190000000  0.4586030000000 1.0
C      1  0.5349030000000  0.4873830000000  0.5056100000000 1.0
C      1  0.4894640000000  0.5122940000000  0.5206270000000 1.0
C      1  0.4970890000000  0.5400180000000  0.4804460000000 1.0
C      1  0.4612950000000  0.5056600000000  0.5025820000000 1.0
C      1  0.5328210000000  0.5142290000000  0.4955700000000 1.0
C      1  0.4583590000000  0.4775090000000  0.5027720000000 1.0
C      1  0.5112950000000  0.4893440000000  0.5227460000000 1.0
C      1  0.4953280000000  0.4909980000000  0.4746940000000 1.0
C      1  0.5123720000000  0.5144850000000  0.4752560000000 1.0
C      1  0.4977700000000  0.4679860000000  0.4897630000000 1.0
C      1  0.4965990000000  0.4656210000000  0.5173560000000 1.0
C      1  0.4996580000000  0.5393920000000  0.5104680000000 1.0
C      1  0.4730780000000  0.4827160000000  0.5508700000000 1.0
C      1  0.4703730000000  0.5404330000000  0.4690400000000 1.0
C      1  0.5362880000000  0.4742100000000  0.4624790000000 1.0
C      1  0.5205540000000  0.5355720000000  0.5454450000000 1.0
C      1  0.4691190000000  0.5171030000000  0.4523140000000 1.0
C      1  0.5230110000000  0.4575810000000  0.4454140000000 1.0
C      1  0.5415210000000  0.4628210000000  0.4865970000000 1.0
C      1  0.4657980000000  0.4652360000000  0.5277500000000 1.0
C      1  0.5315940000000  0.5374360000000  0.5181800000000 1.0
C      1  0.4556730000000  0.5174500000000  0.4768090000000 1.0
C      1  0.5429030000000  0.5221180000000  0.5404060000000 1.0
C      1  0.4474700000000  0.4857080000000  0.5468480000000 1.0
C      1  0.5168870000000  0.5116600000000  0.4472880000000 1.0
C      1  0.5083050000000  0.4401300000000  0.5213100000000 1.0
C      1  0.4352100000000  0.5103440000000  0.5167500000000 1.0
C      1  0.4903440000000  0.4979410000000  0.4471710000000 1.0
C      1  0.5162730000000  0.4921320000000  0.5520750000000 1.0
C      1  0.4894710000000  0.5060500000000  0.5507690000000 1.0
C      1  0.4829310000000  0.5639150000000  0.5122980000000 1.0
C      1  0.5097220000000  0.5622070000000  0.4688300000000 1.0
C      1  0.4926460000000  0.4410960000000  0.4828070000000 1.0
C      1  0.5643090000000  0.4914260000000  0.5066330000000 1.0
C      1  0.4389540000000  0.4673010000000  0.4871470000000 1.0
C      1  0.5605990000000  0.5136850000000  0.4881890000000 1.0
C      1  0.4526030000000  0.4600280000000  0.4231320000000 1.0
C      1  0.4551740000000  0.4239500000000  0.4521190000000 1.0
C      1  0.4176620000000  0.4546910000000  0.4502060000000 1.0
C      1  0.5462840000000  0.5472690000000  0.4220610000000 1.0
C      1  0.4530930000000  0.5420310000000  0.5755950000000 1.0
C      1  0.5443930000000  0.4547030000000  0.5758140000000 1.0
C      1  0.5455620000000  0.5784890000000  0.4472330000000 1.0
C      1  0.4541660000000  0.5800920000000  0.5489020000000 1.0
C      1  0.5422610000000  0.4234820000000  0.5508650000000 1.0
C      1  0.5812980000000  0.5440900000000  0.4563450000000 1.0
C      1  0.4198330000000  0.5457810000000  0.5462180000000 1.0
C      1  0.5784490000000  0.4506280000000  0.5435660000000 1.0
C      1  0.4215980000000  0.4871140000000  0.5596000000000 1.0
C      1  0.4881740000000  0.5573290000000  0.4225230000000 1.0
C      1  0.5689970000000  0.4193290000000  0.5044900000000 1.0
C      1  0.5694210000000  0.5114660000000  0.5552580000000 1.0
C      1  0.4194960000000  0.5122570000000  0.4375630000000 1.0
C      1  0.5782810000000  0.4904400000000  0.4368520000000 1.0
C      1  0.4943840000000  0.4331890000000  0.4276100000000 1.0
C      1  0.4872150000000  0.4420570000000  0.5737030000000 1.0
C      1  0.5121410000000  0.5549870000000  0.5704810000000 1.0
C      1  0.4387120000000  0.5793070000000  0.4902230000000 1.0
C      1  0.5608680000000  0.5768610000000  0.5101170000000 1.0
C      1  0.4450690000000  0.4205410000000  0.5063550000000 1.0
C      1  0.4626800000000  0.4777690000000  0.5901450000000 1.0
C      1  0.4786580000000  0.5877660000000  0.4660760000000 1.0
C      1  0.5877270000000  0.4640890000000  0.4737880000000 1.0
C      1  0.5353980000000  0.5210350000000  0.5895790000000 1.0
C      1  0.4627540000000  0.5196390000000  0.4099170000000 1.0
C      1  0.5341370000000  0.4801350000000  0.4110430000000 1.0
C      1  0.5286160000000  0.4130000000000  0.4680510000000 1.0
C      1  0.4784250000000  0.4086010000000  0.5305360000000 1.0
C      1  0.5224290000000  0.5885140000000  0.5350700000000 1.0
C      1  0.4120080000000  0.5367060000000  0.4781630000000 1.0
C      1  0.5899850000000  0.5361040000000  0.5216790000000 1.0
C      1  0.4118140000000  0.4626010000000  0.5207650000000 1.0
C      1  0.4781600000000  0.5953110000000  0.5557940000000 1.0
C      1  0.5957240000000  0.5541370000000  0.4773510000000 1.0
C      1  0.5529420000000  0.4759370000000  0.5931170000000 1.0
C      1  0.5205430000000  0.4083240000000  0.5551670000000 1.0
C      1  0.4760110000000  0.4120670000000  0.4349510000000 1.0
C      1  0.5232710000000  0.5956850000000  0.4438860000000 1.0
C      1  0.4033540000000  0.4457790000000  0.4734620000000 1.0
C      1  0.5849250000000  0.4335590000000  0.5225840000000 1.0
C      1  0.4055620000000  0.5562400000000  0.5232850000000 1.0
C      1  0.4433640000000  0.5220700000000  0.5941320000000 1.0
C      1  0.5538320000000  0.5251160000000  0.4068900000000 1.0
C      1  0.4414450000000  0.4772480000000  0.4054660000000 1.0
C      1  0.5799610000000  0.5386520000000  0.5496070000000 1.0
C      1  0.5399520000000  0.5488730000000  0.5792610000000 1.0
C      1  0.5499260000000  0.5757670000000  0.5364190000000 1.0
C      1  0.4186810000000  0.4570210000000  0.5474590000000 1.0
C      1  0.5800130000000  0.4628910000000  0.4457480000000 1.0
C      1  0.4222880000000  0.5382300000000  0.4497430000000 1.0
C      1  0.4607230000000  0.4497770000000  0.5748030000000 1.0
C      1  0.5392970000000  0.4530980000000  0.4211330000000 1.0
C      1  0.4617850000000  0.5483510000000  0.4216850000000 1.0
C      1  0.4510540000000  0.4209550000000  0.5333350000000 1.0
C      1  0.5541130000000  0.4250400000000  0.4603830000000 1.0
C      1  0.4518160000000  0.5759220000000  0.4636240000000 1.0
C      1  0.5607590000000  0.4415130000000  0.4372590000000 1.0
C      1  0.4410350000000  0.4400050000000  0.5550030000000 1.0
C      1  0.4424150000000  0.5575300000000  0.4419860000000 1.0
C      1  0.5586900000000  0.5569180000000  0.5576260000000 1.0
END
