TITL C-2441154-10-987 0.000268338311453658 125000 -4796.37421557138 0 0 35 (C1) n - 1
REM
REM in /home/bkarasulu/work/CARBON/AIRSS/Generating-Clusters/ReaxFF-fromJPCA2015/Units_Real/with-SteepDescent/Higher-Symm
REM
REM
REM
REM
REM
REM ./C.cell (1df0a924f5614ab8850e4351716899ee)
REM
REM compiler GCC version 9.2.1 20190827 (Red Hat 9.2.1-1)
REM options -cpp -mtune=generic -march=x86-64 -g -O0 -fpre-include=/usr/include/finclude/math-vector-fortran.h
REM seed 1981276475 1018235109 10814782 -142546589 -340016269 1378706722 -1290604387 -913612942 67764560 -852376709 498476700 222323190 -2026143038 -731876609 168965971 149682809 -2038096447 -1984754125 1201041315 -1861548948 130244713 1566885677 -660928091 1875806867 215485947 1479995993 -1370863354 1428874352 1255800970 -1080174868 2105895179 879396774 -666915746
REM
CELL 1.54180   50.00000   50.00000   50.00000   90.00000   90.00000   90.00000
LATT -1
SFAC C  
C      1  0.5235870000000  0.4798610000000  0.4582280000000 1.0
C      1  0.5227360000000  0.5332270000000  0.4691300000000 1.0
C      1  0.5237910000000  0.5405080000000  0.5223000000000 1.0
C      1  0.5215800000000  0.4912050000000  0.5450720000000 1.0
C      1  0.5228710000000  0.4539760000000  0.5052320000000 1.0
C      1  0.5024880000000  0.4471630000000  0.5233300000000 1.0
C      1  0.5046500000000  0.4579280000000  0.4567830000000 1.0
C      1  0.5020780000000  0.5280380000000  0.4505850000000 1.0
C      1  0.5054640000000  0.5597590000000  0.5104530000000 1.0
C      1  0.5016480000000  0.5069260000000  0.5569620000000 1.0
C      1  0.4541910000000  0.5155950000000  0.5397430000000 1.0
C      1  0.4543160000000  0.4630860000000  0.5318150000000 1.0
C      1  0.4549680000000  0.4631450000000  0.4779470000000 1.0
C      1  0.4540510000000  0.5118900000000  0.4572970000000 1.0
C      1  0.4551900000000  0.5453260000000  0.4959210000000 1.0
C      1  0.4736180000000  0.5058460000000  0.5572780000000 1.0
C      1  0.4743940000000  0.4456710000000  0.5233060000000 1.0
C      1  0.4784340000000  0.4596420000000  0.4645700000000 1.0
C      1  0.4739320000000  0.5296830000000  0.4493670000000 1.0
C      1  0.4790390000000  0.5549810000000  0.5048840000000 1.0
C      1  0.5252480000000  0.5456260000000  0.4946690000000 1.0
C      1  0.5213720000000  0.5196510000000  0.5415150000000 1.0
C      1  0.5216600000000  0.4661540000000  0.5311590000000 1.0
C      1  0.5249220000000  0.4591590000000  0.4773110000000 1.0
C      1  0.5216020000000  0.5081620000000  0.4553400000000 1.0
C      1  0.4537060000000  0.4526060000000  0.5053040000000 1.0
C      1  0.4563360000000  0.4915330000000  0.4765360000000 1.0
C      1  0.4538270000000  0.5386000000000  0.4671680000000 1.0
C      1  0.4567100000000  0.5219560000000  0.5128150000000 1.0
C      1  0.4539620000000  0.4877870000000  0.5467940000000 1.0
C      1  0.5498760000000  0.4994110000000  0.5002640000000 1.0
C      1  0.5236810000000  0.4996250000000  0.5001580000000 1.0
C      1  0.4980780000000  0.5003840000000  0.4996940000000 1.0
C      1  0.5742120000000  0.4993990000000  0.5001450000000 1.0
C      1  0.4710800000000  0.5011850000000  0.4992050000000 1.0
END
