TITL C-2441165-58-303 3.65563855011627e-07 125000 -12640.8137015542 0 0 80 (C1) n - 1
REM
REM in /home/bkarasulu/work/CARBON/AIRSS/Generating-Clusters/ReaxFF-fromJPCA2015/Units_Real/with-SteepDescent/Higher-Symm
REM
REM
REM
REM
REM
REM ./C.cell (1df0a924f5614ab8850e4351716899ee)
REM
REM compiler GCC version 9.2.1 20190827 (Red Hat 9.2.1-1)
REM options -cpp -mtune=generic -march=x86-64 -g -O0 -fpre-include=/usr/include/finclude/math-vector-fortran.h
REM seed -1002715790 -1683819660 1555537040 1138273998 -42658097 413167693 1085982759 -1442266586 -2031541942 -1569612322 1026329488 -872773795 -402153088 -477151570 -353012592 -1540667916 1602650058 886672928 1563548806 678903392 -1647371251 479437199 1874254240 -1700888059 -786125930 -2007597483 -538391985 -726101888 587722879 1265968059 -942640595 1305859578 1261121616
REM
CELL 1.54180   50.00000   50.00000   50.00000   90.00000   90.00000   90.00000
LATT -1
SFAC C  
C      1  0.4884020000000  0.4396250000000  0.5463880000000 1.0
C      1  0.5172920000000  0.4419300000000  0.5444850000000 1.0
C      1  0.5418210000000  0.4433080000000  0.5285780000000 1.0
C      1  0.5529520000000  0.4464350000000  0.5022150000000 1.0
C      1  0.5374800000000  0.4430660000000  0.4757980000000 1.0
C      1  0.5116950000000  0.4356250000000  0.4722520000000 1.0
C      1  0.4902830000000  0.4362230000000  0.4541870000000 1.0
C      1  0.4609150000000  0.4387460000000  0.4578280000000 1.0
C      1  0.4444920000000  0.4327610000000  0.4805760000000 1.0
C      1  0.4468250000000  0.4298030000000  0.5098740000000 1.0
C      1  0.4626450000000  0.4377110000000  0.5331670000000 1.0
C      1  0.4849710000000  0.5508110000000  0.5514120000000 1.0
C      1  0.5127420000000  0.5479590000000  0.5443160000000 1.0
C      1  0.5179600000000  0.5452810000000  0.5152050000000 1.0
C      1  0.5459120000000  0.5481560000000  0.5054810000000 1.0
C      1  0.5487690000000  0.5526960000000  0.4771620000000 1.0
C      1  0.5289960000000  0.5504180000000  0.4551460000000 1.0
C      1  0.5010200000000  0.5509060000000  0.4484320000000 1.0
C      1  0.4725410000000  0.5508250000000  0.4566890000000 1.0
C      1  0.4533910000000  0.5525180000000  0.4785250000000 1.0
C      1  0.4507430000000  0.5489130000000  0.5077700000000 1.0
C      1  0.4603960000000  0.5510120000000  0.5348080000000 1.0
C      1  0.4536760000000  0.4939820000000  0.5724900000000 1.0
C      1  0.5024160000000  0.4978550000000  0.5823700000000 1.0
C      1  0.5514500000000  0.4944550000000  0.5751050000000 1.0
C      1  0.5850590000000  0.4959410000000  0.5383640000000 1.0
C      1  0.5867050000000  0.5004020000000  0.4890520000000 1.0
C      1  0.5683840000000  0.4965500000000  0.4433220000000 1.0
C      1  0.5235150000000  0.4961440000000  0.4231070000000 1.0
C      1  0.4740830000000  0.4961900000000  0.4177100000000 1.0
C      1  0.4310800000000  0.5041560000000  0.4404840000000 1.0
C      1  0.4113230000000  0.4981490000000  0.4824690000000 1.0
C      1  0.4235620000000  0.4949520000000  0.5323680000000 1.0
C      1  0.5238900000000  0.4552950000000  0.5687500000000 1.0
C      1  0.5605480000000  0.4548730000000  0.5470790000000 1.0
C      1  0.5798700000000  0.4566340000000  0.5093610000000 1.0
C      1  0.5759060000000  0.4576280000000  0.4693120000000 1.0
C      1  0.5420620000000  0.4566420000000  0.4469380000000 1.0
C      1  0.4964600000000  0.4556320000000  0.4323310000000 1.0
C      1  0.4512030000000  0.4583740000000  0.4393750000000 1.0
C      1  0.4205300000000  0.4481490000000  0.4849600000000 1.0
C      1  0.4226630000000  0.4459740000000  0.5122020000000 1.0
C      1  0.4443470000000  0.4534510000000  0.5484190000000 1.0
C      1  0.4818000000000  0.4546590000000  0.5698210000000 1.0
C      1  0.5586040000000  0.5318340000000  0.5497000000000 1.0
C      1  0.5657220000000  0.5350920000000  0.5220140000000 1.0
C      1  0.5683970000000  0.5392450000000  0.4598600000000 1.0
C      1  0.5489160000000  0.5371150000000  0.4396320000000 1.0
C      1  0.4930930000000  0.5377100000000  0.4234930000000 1.0
C      1  0.4661140000000  0.5391770000000  0.4310200000000 1.0
C      1  0.4271230000000  0.5409800000000  0.4756290000000 1.0
C      1  0.4245120000000  0.5367200000000  0.5032520000000 1.0
C      1  0.4469930000000  0.5354830000000  0.5556820000000 1.0
C      1  0.4705750000000  0.5359210000000  0.5711500000000 1.0
C      1  0.5321970000000  0.5343310000000  0.5607310000000 1.0
C      1  0.4728380000000  0.4687300000000  0.4243200000000 1.0
C      1  0.4293210000000  0.4757310000000  0.4460080000000 1.0
C      1  0.4156660000000  0.4720750000000  0.4708180000000 1.0
C      1  0.4240720000000  0.4658440000000  0.5329910000000 1.0
C      1  0.4564210000000  0.4653660000000  0.5700020000000 1.0
C      1  0.5028440000000  0.4688170000000  0.5808930000000 1.0
C      1  0.5493060000000  0.4658720000000  0.5699610000000 1.0
C      1  0.5820610000000  0.4673000000000  0.5353880000000 1.0
C      1  0.5881240000000  0.4720150000000  0.4882500000000 1.0
C      1  0.5668090000000  0.4682730000000  0.4468380000000 1.0
C      1  0.5215550000000  0.4685750000000  0.4313980000000 1.0
C      1  0.4189890000000  0.5176760000000  0.4627330000000 1.0
C      1  0.4167360000000  0.5091160000000  0.5086470000000 1.0
C      1  0.4369910000000  0.5083400000000  0.5539260000000 1.0
C      1  0.4766420000000  0.5100120000000  0.5799660000000 1.0
C      1  0.5275300000000  0.5106790000000  0.5767730000000 1.0
C      1  0.5704270000000  0.5086770000000  0.5593600000000 1.0
C      1  0.5827110000000  0.5127590000000  0.5149280000000 1.0
C      1  0.5796120000000  0.5128850000000  0.4640160000000 1.0
C      1  0.5473070000000  0.5105850000000  0.4302510000000 1.0
C      1  0.4991670000000  0.5099800000000  0.4169380000000 1.0
C      1  0.4537420000000  0.5143320000000  0.4262250000000 1.0
C      1  0.5042400000000  0.5235960000000  0.5046580000000 1.0
C      1  0.4914110000000  0.5035720000000  0.4953730000000 1.0
C      1  0.4788920000000  0.4842530000000  0.4873180000000 1.0
END
