TITL C-2441154-10-1432 0.0224589702828669 125000 -10511.9905124347 0 0 76 (C1) n - 1
REM
REM in /home/bkarasulu/work/CARBON/AIRSS/Generating-Clusters/ReaxFF-fromJPCA2015/Units_Real/with-SteepDescent/Higher-Symm
REM
REM
REM
REM
REM
REM ./C.cell (1df0a924f5614ab8850e4351716899ee)
REM
REM compiler GCC version 9.2.1 20190827 (Red Hat 9.2.1-1)
REM options -cpp -mtune=generic -march=x86-64 -g -O0 -fpre-include=/usr/include/finclude/math-vector-fortran.h
REM seed -916206697 884761332 -1961384088 -1233791810 -1709708702 -1017231607 2024714708 1616035784 -1787418233 -56211656 579400844 1150538300 -1007542147 -1489111214 1580538729 -1526503767 1684116092 -1237788450 342455126 1447465193 -554867029 1024483731 -1402254966 2006411676 923230641 1395233826 2040936836 -353500110 -1080537484 -939292832 -1291656212 1842019851 276048604
REM
CELL 1.54180   50.00000   50.00000   50.00000   90.00000   90.00000   90.00000
LATT -1
SFAC C  
C      1  0.5678650000000  0.5016120000000  0.4510760000000 1.0
C      1  0.5026500000000  0.4503710000000  0.5664420000000 1.0
C      1  0.4442150000000  0.5753710000000  0.4979280000000 1.0
C      1  0.4285610000000  0.4969640000000  0.4508730000000 1.0
C      1  0.5691340000000  0.4997860000000  0.5490830000000 1.0
C      1  0.4284290000000  0.5010960000000  0.5476230000000 1.0
C      1  0.5049350000000  0.5541250000000  0.5713930000000 1.0
C      1  0.4974060000000  0.5573830000000  0.4263000000000 1.0
C      1  0.5060120000000  0.4455830000000  0.4254480000000 1.0
C      1  0.5519350000000  0.4246270000000  0.4895220000000 1.0
C      1  0.4501080000000  0.4278280000000  0.4940010000000 1.0
C      1  0.5526920000000  0.5729170000000  0.5050200000000 1.0
C      1  0.5017350000000  0.5697440000000  0.4513370000000 1.0
C      1  0.4484360000000  0.5008080000000  0.5695520000000 1.0
C      1  0.5703890000000  0.4461980000000  0.4927320000000 1.0
C      1  0.5045870000000  0.4249550000000  0.4448060000000 1.0
C      1  0.5048430000000  0.5740560000000  0.5507760000000 1.0
C      1  0.5029910000000  0.4302800000000  0.5451020000000 1.0
C      1  0.5528620000000  0.5073110000000  0.5722780000000 1.0
C      1  0.5471100000000  0.5010340000000  0.4299900000000 1.0
C      1  0.4493770000000  0.4959160000000  0.4302340000000 1.0
C      1  0.4249290000000  0.5589970000000  0.4965350000000 1.0
C      1  0.4251760000000  0.4403060000000  0.4987150000000 1.0
C      1  0.5718930000000  0.5519220000000  0.5072340000000 1.0
C      1  0.5504350000000  0.4679270000000  0.4910940000000 1.0
C      1  0.4653620000000  0.4843550000000  0.5515900000000 1.0
C      1  0.4865190000000  0.5478630000000  0.4653120000000 1.0
C      1  0.4488490000000  0.5265570000000  0.4908330000000 1.0
C      1  0.5520150000000  0.5284230000000  0.5084350000000 1.0
C      1  0.4476540000000  0.4729390000000  0.5075510000000 1.0
C      1  0.5286290000000  0.5094920000000  0.5522780000000 1.0
C      1  0.4642270000000  0.5149890000000  0.4455420000000 1.0
C      1  0.5328790000000  0.4810760000000  0.4459500000000 1.0
C      1  0.5053600000000  0.4436870000000  0.4676990000000 1.0
C      1  0.4839660000000  0.4473910000000  0.5299070000000 1.0
C      1  0.5079530000000  0.5561070000000  0.5288920000000 1.0
C      1  0.4717180000000  0.5453020000000  0.4903890000000 1.0
C      1  0.4861050000000  0.4666810000000  0.5496840000000 1.0
C      1  0.5520610000000  0.4813810000000  0.4657780000000 1.0
C      1  0.5280570000000  0.4430580000000  0.4895570000000 1.0
C      1  0.5297250000000  0.5541130000000  0.5071820000000 1.0
C      1  0.4637610000000  0.4493210000000  0.5098360000000 1.0
C      1  0.5053000000000  0.5307520000000  0.5526280000000 1.0
C      1  0.5070940000000  0.4691170000000  0.4459570000000 1.0
C      1  0.4901660000000  0.5242770000000  0.4484150000000 1.0
C      1  0.4448530000000  0.5165350000000  0.4649750000000 1.0
C      1  0.4455980000000  0.4844780000000  0.5319160000000 1.0
C      1  0.5491250000000  0.5106080000000  0.5312810000000 1.0
C      1  0.5679390000000  0.5291760000000  0.4610490000000 1.0
C      1  0.5294750000000  0.4619380000000  0.5693020000000 1.0
C      1  0.4688280000000  0.5681930000000  0.5092700000000 1.0
C      1  0.4269620000000  0.4702870000000  0.4624910000000 1.0
C      1  0.5668700000000  0.4722700000000  0.5401180000000 1.0
C      1  0.4248690000000  0.5278800000000  0.5358590000000 1.0
C      1  0.4878420000000  0.5316570000000  0.5768760000000 1.0
C      1  0.5056530000000  0.5305160000000  0.4231620000000 1.0
C      1  0.4881610000000  0.4672790000000  0.4218260000000 1.0
C      1  0.5314880000000  0.4200630000000  0.5092370000000 1.0
C      1  0.4592060000000  0.4314550000000  0.4659480000000 1.0
C      1  0.5313340000000  0.5732610000000  0.4869380000000 1.0
C      1  0.5297190000000  0.5654720000000  0.4603950000000 1.0
C      1  0.4588260000000  0.5278860000000  0.5736770000000 1.0
C      1  0.5717010000000  0.4649820000000  0.5142710000000 1.0
C      1  0.4858400000000  0.4238900000000  0.4650740000000 1.0
C      1  0.4894450000000  0.5780190000000  0.5273000000000 1.0
C      1  0.5307880000000  0.4307680000000  0.5357480000000 1.0
C      1  0.5312810000000  0.4892850000000  0.5770610000000 1.0
C      1  0.5348730000000  0.5272980000000  0.4275950000000 1.0
C      1  0.4602850000000  0.4687220000000  0.4290130000000 1.0
C      1  0.4241230000000  0.5327380000000  0.5060820000000 1.0
C      1  0.4223880000000  0.4675460000000  0.4917010000000 1.0
C      1  0.5757130000000  0.5307070000000  0.4887350000000 1.0
C      1  0.4435660000000  0.5434430000000  0.5527450000000 1.0
C      1  0.4483350000000  0.4540170000000  0.4514460000000 1.0
C      1  0.5449290000000  0.5434880000000  0.4493330000000 1.0
C      1  0.5457350000000  0.4546990000000  0.5454780000000 1.0
END
