TITL C-2441159-1093-1331 0.000401255984359566 125000 -5454.62513633137 0 0 38 (C1) n - 1
REM
REM in /home/bkarasulu/work/CARBON/AIRSS/Generating-Clusters/ReaxFF-fromJPCA2015/Units_Real/with-SteepDescent/Higher-Symm
REM
REM
REM
REM
REM
REM ./C.cell (1df0a924f5614ab8850e4351716899ee)
REM
REM compiler GCC version 9.2.1 20190827 (Red Hat 9.2.1-1)
REM options -cpp -mtune=generic -march=x86-64 -g -O0 -fpre-include=/usr/include/finclude/math-vector-fortran.h
REM seed -981114526 44824800 -1071912075 -384656160 1170259456 -1508497346 1375076879 -436357300 1691141722 632935449 -1039750140 1041107938 -843359439 904167784 -1856645079 -1594406107 -843337574 -1152537302 -674361514 -627225370 618929566 -442367812 1239875955 506911475 -1407343691 -500259640 2112181094 1426709107 424665260 -624888541 1556217141 1601878776 1665377209
REM
CELL 1.54180   50.00000   50.00000   50.00000   90.00000   90.00000   90.00000
LATT -1
SFAC C  
C      1  0.4842760000000  0.5394070000000  0.4918680000000 1.0
C      1  0.5448530000000  0.5463400000000  0.4770720000000 1.0
C      1  0.5541260000000  0.4753900000000  0.4801170000000 1.0
C      1  0.4919890000000  0.4380850000000  0.4804080000000 1.0
C      1  0.4399880000000  0.4904440000000  0.4818210000000 1.0
C      1  0.4497050000000  0.5270650000000  0.5304180000000 1.0
C      1  0.5196210000000  0.5494660000000  0.5244260000000 1.0
C      1  0.5292470000000  0.5058160000000  0.5156950000000 1.0
C      1  0.5052500000000  0.4500400000000  0.5297930000000 1.0
C      1  0.4582990000000  0.4813200000000  0.5323000000000 1.0
C      1  0.5194280000000  0.4405660000000  0.4783590000000 1.0
C      1  0.4500320000000  0.4647040000000  0.4828160000000 1.0
C      1  0.4564390000000  0.5369330000000  0.4833220000000 1.0
C      1  0.5221180000000  0.5613420000000  0.4755410000000 1.0
C      1  0.5612600000000  0.5016710000000  0.4765870000000 1.0
C      1  0.4870150000000  0.4791430000000  0.4537130000000 1.0
C      1  0.4759650000000  0.5063850000000  0.4522300000000 1.0
C      1  0.4980710000000  0.5251580000000  0.4502750000000 1.0
C      1  0.5226860000000  0.5100470000000  0.4502620000000 1.0
C      1  0.5161080000000  0.4818730000000  0.4515040000000 1.0
C      1  0.4529300000000  0.5119250000000  0.4682340000000 1.0
C      1  0.4981670000000  0.5484050000000  0.4679540000000 1.0
C      1  0.5455600000000  0.5208920000000  0.4638960000000 1.0
C      1  0.5323690000000  0.4631920000000  0.4662460000000 1.0
C      1  0.4746950000000  0.4582430000000  0.4701890000000 1.0
C      1  0.5047500000000  0.5388140000000  0.5462210000000 1.0
C      1  0.5300920000000  0.4943630000000  0.5434420000000 1.0
C      1  0.5269210000000  0.4646960000000  0.5443110000000 1.0
C      1  0.4786960000000  0.4610680000000  0.5370120000000 1.0
C      1  0.4600970000000  0.5079180000000  0.5477040000000 1.0
C      1  0.5332870000000  0.5588630000000  0.5019540000000 1.0
C      1  0.5518240000000  0.4937250000000  0.5018460000000 1.0
C      1  0.5078420000000  0.4362960000000  0.5037760000000 1.0
C      1  0.4435090000000  0.4778760000000  0.5069750000000 1.0
C      1  0.4479020000000  0.5385570000000  0.5102270000000 1.0
C      1  0.4849430000000  0.5195270000000  0.5583040000000 1.0
C      1  0.5004940000000  0.4913070000000  0.4912740000000 1.0
C      1  0.5007870000000  0.5143780000000  0.5024500000000 1.0
END
