TITL C-2441168-9922-393 -5.32289245472016e-05 125000 -2915.17274261523 0 0 22 (C1) n - 1
REM
REM in /home/bkarasulu/work/CARBON/AIRSS/Generating-Clusters/ReaxFF-fromJPCA2015/Units_Real/with-SteepDescent/Higher-Symm
REM
REM
REM
REM
REM
REM ./C.cell (1df0a924f5614ab8850e4351716899ee)
REM
REM compiler GCC version 9.2.1 20190827 (Red Hat 9.2.1-1)
REM options -cpp -mtune=generic -march=x86-64 -g -O0 -fpre-include=/usr/include/finclude/math-vector-fortran.h
REM seed 1440074346 56026012 -1695576748 920306335 800914406 2025890399 -2005209397 -250386533 -2127202318 -678397728 -1817493303 -1290979753 151925534 -1947706609 -2031944852 1168181949 301723149 -1628082140 1187025146 265499380 -1886247071 -559317274 1316113544 -1913853858 -1961309970 2009108736 -1916306207 1869239341 -819182693 -335715451 377884720 -916769756 1250468358
REM
CELL 1.54180   50.00000   50.00000   50.00000   90.00000   90.00000   90.00000
LATT -1
SFAC C  
C      1  0.5238000000000  0.5668090000000  0.5327060000000 1.0
C      1  0.5026870000000  0.4420390000000  0.4765660000000 1.0
C      1  0.4775550000000  0.5468090000000  0.4955730000000 1.0
C      1  0.4564360000000  0.5349300000000  0.4778640000000 1.0
C      1  0.4802190000000  0.4833480000000  0.5130510000000 1.0
C      1  0.5324110000000  0.4969260000000  0.4672640000000 1.0
C      1  0.5716100000000  0.5450970000000  0.4845930000000 1.0
C      1  0.4873860000000  0.4534990000000  0.5513550000000 1.0
C      1  0.4721410000000  0.4831510000000  0.4856460000000 1.0
C      1  0.5148010000000  0.4791950000000  0.4636970000000 1.0
C      1  0.5460880000000  0.5162510000000  0.4748280000000 1.0
C      1  0.4892600000000  0.4574990000000  0.5259170000000 1.0
C      1  0.4874540000000  0.5095360000000  0.5273150000000 1.0
C      1  0.4898860000000  0.4672750000000  0.4667680000000 1.0
C      1  0.5041130000000  0.4346110000000  0.5064150000000 1.0
C      1  0.5243170000000  0.5497080000000  0.5149020000000 1.0
C      1  0.4911150000000  0.5167280000000  0.5511430000000 1.0
C      1  0.4951550000000  0.5406130000000  0.5177020000000 1.0
C      1  0.4548800000000  0.5039990000000  0.4738120000000 1.0
C      1  0.5480920000000  0.5391550000000  0.4928790000000 1.0
C      1  0.5164230000000  0.4136760000000  0.5154000000000 1.0
C      1  0.4341710000000  0.5191480000000  0.4846030000000 1.0
END
