TITL C-2441157-2117-30 0.0472399814272267 125000 -6216.97663909505 0 0 52 (C4) n - 1
REM
REM in /home/bkarasulu/work/CARBON/AIRSS/Generating-Clusters/ReaxFF-fromJPCA2015/Units_Real/with-SteepDescent/Higher-Symm
REM
REM
REM
REM
REM
REM ./C.cell (1df0a924f5614ab8850e4351716899ee)
REM
REM compiler GCC version 9.2.1 20190827 (Red Hat 9.2.1-1)
REM options -cpp -mtune=generic -march=x86-64 -g -O0 -fpre-include=/usr/include/finclude/math-vector-fortran.h
REM seed 2032338636 1331484308 -1736257689 -469167502 -1465087909 -1641355480 -1214299226 690301234 645937832 535187681 249136929 -562447317 -267361666 1414154926 1698450852 1864547691 818247190 -703755556 1262722053 586396811 687951264 -2031021163 539791510 -2047067296 -1603268628 -1413882974 242770642 -1783448101 -1337753929 416987260 -1061741966 1077995010 -129900772
REM
CELL 1.54180   50.00000   50.00000   50.00000   90.00000   90.00000   90.00000
LATT -1
SFAC C  
C      1  0.5104120000000  0.5079770000000  0.5570820000000 1.0
C      1  0.5104390000000  0.4429390000000  0.5079730000000 1.0
C      1  0.5103930000000  0.4920930000000  0.4428820000000 1.0
C      1  0.5103940000000  0.5570110000000  0.4919650000000 1.0
C      1  0.4646560000000  0.5299330000000  0.5531340000000 1.0
C      1  0.4652730000000  0.4473950000000  0.5300810000000 1.0
C      1  0.4647570000000  0.4700020000000  0.4468540000000 1.0
C      1  0.4646030000000  0.5531340000000  0.4699960000000 1.0
C      1  0.4907500000000  0.4327640000000  0.4908350000000 1.0
C      1  0.4903780000000  0.5091220000000  0.4331020000000 1.0
C      1  0.4904890000000  0.5669590000000  0.5091450000000 1.0
C      1  0.4904200000000  0.4908940000000  0.5670090000000 1.0
C      1  0.4659970000000  0.4958510000000  0.5328930000000 1.0
C      1  0.4659080000000  0.4674570000000  0.4956430000000 1.0
C      1  0.4659890000000  0.5040160000000  0.4669630000000 1.0
C      1  0.4659600000000  0.5330230000000  0.5040960000000 1.0
C      1  0.5196590000000  0.5487660000000  0.5437160000000 1.0
C      1  0.5195650000000  0.4562930000000  0.5487470000000 1.0
C      1  0.5196310000000  0.4512540000000  0.4562730000000 1.0
C      1  0.5195760000000  0.5437130000000  0.4512510000000 1.0
C      1  0.5110970000000  0.5131210000000  0.4842890000000 1.0
C      1  0.5110870000000  0.5157060000000  0.5131140000000 1.0
C      1  0.5110990000000  0.4869120000000  0.5157000000000 1.0
C      1  0.5111000000000  0.4842840000000  0.4868950000000 1.0
C      1  0.4960130000000  0.4406090000000  0.4642170000000 1.0
C      1  0.4959590000000  0.5356170000000  0.4406300000000 1.0
C      1  0.4960100000000  0.5593520000000  0.5357360000000 1.0
C      1  0.4960090000000  0.4643580000000  0.5593820000000 1.0
C      1  0.4641480000000  0.4980940000000  0.4391990000000 1.0
C      1  0.4639600000000  0.5608310000000  0.4979050000000 1.0
C      1  0.4639470000000  0.5020490000000  0.5608630000000 1.0
C      1  0.4635820000000  0.4389030000000  0.5022330000000 1.0
C      1  0.5375670000000  0.5000370000000  0.5496270000000 1.0
C      1  0.5375940000000  0.4503570000000  0.5000190000000 1.0
C      1  0.5375560000000  0.4999940000000  0.4503620000000 1.0
C      1  0.5375790000000  0.5495990000000  0.4999700000000 1.0
C      1  0.5512820000000  0.5173830000000  0.5344390000000 1.0
C      1  0.5513410000000  0.4655610000000  0.5173910000000 1.0
C      1  0.5513010000000  0.4826300000000  0.4655500000000 1.0
C      1  0.5513010000000  0.5344500000000  0.4826190000000 1.0
C      1  0.5349380000000  0.5351370000000  0.5251930000000 1.0
C      1  0.5349280000000  0.4747990000000  0.5351540000000 1.0
C      1  0.5349280000000  0.4648610000000  0.4747710000000 1.0
C      1  0.5349430000000  0.5251980000000  0.4648630000000 1.0
C      1  0.4590580000000  0.5259250000000  0.4790210000000 1.0
C      1  0.4587470000000  0.5209240000000  0.5259540000000 1.0
C      1  0.4589300000000  0.4736050000000  0.5212950000000 1.0
C      1  0.4587470000000  0.4791180000000  0.4738780000000 1.0
C      1  0.4950820000000  0.4652970000000  0.4459960000000 1.0
C      1  0.4950840000000  0.5540000000000  0.4653040000000 1.0
C      1  0.4951950000000  0.5347370000000  0.5540180000000 1.0
C      1  0.4946400000000  0.4459540000000  0.5347700000000 1.0
END
