TITL C-2441167-4473-1080 0.157339129911058 125000 -22370.4312956574 0 0 177 (C1) n - 1
REM
REM in /home/bkarasulu/work/CARBON/AIRSS/Generating-Clusters/ReaxFF-fromJPCA2015/Units_Real/with-SteepDescent/Higher-Symm
REM
REM
REM
REM
REM
REM ./C.cell (1df0a924f5614ab8850e4351716899ee)
REM
REM compiler GCC version 9.2.1 20190827 (Red Hat 9.2.1-1)
REM options -cpp -mtune=generic -march=x86-64 -g -O0 -fpre-include=/usr/include/finclude/math-vector-fortran.h
REM seed -994894932 -691250291 2074424016 -1618520740 1746329409 -1921448850 -970917966 -1712515578 -735262629 -989140707 1040135927 -195394570 2110545639 2086511758 1930203776 2091917563 -768017922 -652130694 1835176723 -1873365246 1337015445 -130779615 1166084204 -1462348835 -12940130 1206053948 -57548923 -971071680 1827191033 477968399 -1284893328 1880690348 1303276370
REM
CELL 1.54180   50.00000   50.00000   50.00000   90.00000   90.00000   90.00000
LATT -1
SFAC C  
C      1  0.4434220000000  0.4517830000000  0.5466700000000 1.0
C      1  0.4421860000000  0.4489610000000  0.4523440000000 1.0
C      1  0.4417640000000  0.5495050000000  0.4414370000000 1.0
C      1  0.4408080000000  0.5448490000000  0.5538280000000 1.0
C      1  0.5615690000000  0.5529700000000  0.5575840000000 1.0
C      1  0.5573150000000  0.5500610000000  0.4552680000000 1.0
C      1  0.5584320000000  0.4439530000000  0.4551090000000 1.0
C      1  0.5561800000000  0.4518320000000  0.5471980000000 1.0
C      1  0.4703800000000  0.4269680000000  0.4295930000000 1.0
C      1  0.4754510000000  0.5715060000000  0.4247350000000 1.0
C      1  0.4691450000000  0.5717110000000  0.5699920000000 1.0
C      1  0.4697850000000  0.4288310000000  0.5715990000000 1.0
C      1  0.5311930000000  0.5740970000000  0.4306750000000 1.0
C      1  0.5295570000000  0.4294960000000  0.4289180000000 1.0
C      1  0.5305420000000  0.4284940000000  0.5717150000000 1.0
C      1  0.5236810000000  0.5665120000000  0.5752890000000 1.0
C      1  0.4289420000000  0.4307830000000  0.5063200000000 1.0
C      1  0.4289590000000  0.4904340000000  0.4326430000000 1.0
C      1  0.4344380000000  0.5725230000000  0.4881400000000 1.0
C      1  0.4268740000000  0.5065400000000  0.5685910000000 1.0
C      1  0.5719560000000  0.5708490000000  0.5070170000000 1.0
C      1  0.5728630000000  0.5088540000000  0.4275750000000 1.0
C      1  0.5733160000000  0.4311200000000  0.4934480000000 1.0
C      1  0.5752790000000  0.4910490000000  0.5701430000000 1.0
C      1  0.4177560000000  0.4177940000000  0.4830900000000 1.0
C      1  0.4199910000000  0.5152180000000  0.4204860000000 1.0
C      1  0.4226070000000  0.5826970000000  0.5149130000000 1.0
C      1  0.4195860000000  0.4826520000000  0.5825360000000 1.0
C      1  0.5806140000000  0.5837700000000  0.4825300000000 1.0
C      1  0.5796380000000  0.4823460000000  0.4152210000000 1.0
C      1  0.5814620000000  0.4172940000000  0.5174000000000 1.0
C      1  0.5851140000000  0.5175160000000  0.5779850000000 1.0
C      1  0.5091920000000  0.4779710000000  0.4581880000000 1.0
C      1  0.5068040000000  0.5390180000000  0.4798850000000 1.0
C      1  0.5084930000000  0.5224960000000  0.5391200000000 1.0
C      1  0.5087280000000  0.4600870000000  0.5242030000000 1.0
C      1  0.4830080000000  0.5239750000000  0.4628300000000 1.0
C      1  0.4869820000000  0.4667860000000  0.4752820000000 1.0
C      1  0.4892290000000  0.4758210000000  0.5396180000000 1.0
C      1  0.4884250000000  0.5378880000000  0.5233820000000 1.0
C      1  0.4561170000000  0.5216890000000  0.5443070000000 1.0
C      1  0.4569130000000  0.4581580000000  0.5190410000000 1.0
C      1  0.4602200000000  0.4719240000000  0.4580290000000 1.0
C      1  0.4618460000000  0.5431270000000  0.4623970000000 1.0
C      1  0.5418980000000  0.4781150000000  0.5425590000000 1.0
C      1  0.5427080000000  0.5432110000000  0.5207560000000 1.0
C      1  0.5413320000000  0.5224710000000  0.4587320000000 1.0
C      1  0.5434630000000  0.4556530000000  0.4786920000000 1.0
C      1  0.5228590000000  0.4783090000000  0.5647360000000 1.0
C      1  0.5220130000000  0.4356850000000  0.4774780000000 1.0
C      1  0.5227290000000  0.5238540000000  0.4355740000000 1.0
C      1  0.5231710000000  0.5647830000000  0.5248130000000 1.0
C      1  0.4766420000000  0.5227510000000  0.5643290000000 1.0
C      1  0.4744620000000  0.5663500000000  0.4741400000000 1.0
C      1  0.4750360000000  0.4764870000000  0.4329660000000 1.0
C      1  0.4754880000000  0.4359590000000  0.5210710000000 1.0
C      1  0.5993820000000  0.4405700000000  0.5237720000000 1.0
C      1  0.5956550000000  0.4757840000000  0.4398470000000 1.0
C      1  0.5983870000000  0.5604010000000  0.4767550000000 1.0
C      1  0.6006330000000  0.5197780000000  0.5529700000000 1.0
C      1  0.4044580000000  0.5611880000000  0.5228270000000 1.0
C      1  0.4016230000000  0.5230280000000  0.4426360000000 1.0
C      1  0.3997500000000  0.4421950000000  0.4797050000000 1.0
C      1  0.4011990000000  0.4756730000000  0.5593060000000 1.0
C      1  0.3997490000000  0.4946760000000  0.5366610000000 1.0
C      1  0.3994530000000  0.4619030000000  0.5012170000000 1.0
C      1  0.3995760000000  0.5008760000000  0.4610920000000 1.0
C      1  0.4010950000000  0.5435190000000  0.4994360000000 1.0
C      1  0.6015710000000  0.4963900000000  0.5341140000000 1.0
C      1  0.6004090000000  0.5404740000000  0.4981650000000 1.0
C      1  0.6001400000000  0.4987660000000  0.4575820000000 1.0
C      1  0.6004430000000  0.4646500000000  0.5060540000000 1.0
C      1  0.5097770000000  0.4921640000000  0.6038380000000 1.0
C      1  0.5088500000000  0.3941310000000  0.4885680000000 1.0
C      1  0.5070460000000  0.5378590000000  0.3976090000000 1.0
C      1  0.5119240000000  0.6088460000000  0.5140570000000 1.0
C      1  0.4976610000000  0.5218670000000  0.6031270000000 1.0
C      1  0.4947040000000  0.6051320000000  0.4914990000000 1.0
C      1  0.4898390000000  0.4732380000000  0.3945450000000 1.0
C      1  0.4899840000000  0.3955380000000  0.5120530000000 1.0
C      1  0.5528630000000  0.5552570000000  0.4269870000000 1.0
C      1  0.5452840000000  0.5769350000000  0.5590610000000 1.0
C      1  0.5483490000000  0.4504410000000  0.5752270000000 1.0
C      1  0.5468380000000  0.4176850000000  0.4496880000000 1.0
C      1  0.4497240000000  0.4459460000000  0.4235780000000 1.0
C      1  0.4514190000000  0.4234530000000  0.5496000000000 1.0
C      1  0.4508910000000  0.5517350000000  0.5804160000000 1.0
C      1  0.4527090000000  0.5803670000000  0.4402220000000 1.0
C      1  0.5863690000000  0.5483450000000  0.4523970000000 1.0
C      1  0.5888530000000  0.5462080000000  0.5467550000000 1.0
C      1  0.5853520000000  0.4509680000000  0.5472990000000 1.0
C      1  0.5862170000000  0.4527990000000  0.4553010000000 1.0
C      1  0.4133060000000  0.4524210000000  0.4552880000000 1.0
C      1  0.4146020000000  0.4515770000000  0.5484640000000 1.0
C      1  0.4125520000000  0.5451950000000  0.5459020000000 1.0
C      1  0.4139420000000  0.5469910000000  0.4518420000000 1.0
C      1  0.5964320000000  0.4767260000000  0.5548990000000 1.0
C      1  0.5958920000000  0.4474320000000  0.4825230000000 1.0
C      1  0.5951770000000  0.5223160000000  0.4413650000000 1.0
C      1  0.5949010000000  0.5576600000000  0.5208550000000 1.0
C      1  0.4035470000000  0.5179120000000  0.5534640000000 1.0
C      1  0.4109200000000  0.5584630000000  0.4766930000000 1.0
C      1  0.4049420000000  0.4778320000000  0.4441140000000 1.0
C      1  0.4059780000000  0.4427410000000  0.5214910000000 1.0
C      1  0.5572060000000  0.5473460000000  0.4961440000000 1.0
C      1  0.5592670000000  0.4977720000000  0.5467500000000 1.0
C      1  0.5571970000000  0.4522870000000  0.5059720000000 1.0
C      1  0.5589690000000  0.5022620000000  0.4525070000000 1.0
C      1  0.4424600000000  0.4535480000000  0.4933870000000 1.0
C      1  0.4438280000000  0.4946410000000  0.5461330000000 1.0
C      1  0.4431510000000  0.5452960000000  0.5043920000000 1.0
C      1  0.4446670000000  0.4964180000000  0.4574370000000 1.0
C      1  0.5133450000000  0.5057890000000  0.5648920000000 1.0
C      1  0.5120040000000  0.4356470000000  0.5061520000000 1.0
C      1  0.5105680000000  0.4964710000000  0.4334300000000 1.0
C      1  0.5106740000000  0.5642070000000  0.4947580000000 1.0
C      1  0.4866650000000  0.4933770000000  0.5659190000000 1.0
C      1  0.4842290000000  0.5647040000000  0.5086370000000 1.0
C      1  0.4834360000000  0.5055120000000  0.4333710000000 1.0
C      1  0.4854200000000  0.4368700000000  0.4930440000000 1.0
C      1  0.4422120000000  0.4069550000000  0.4714120000000 1.0
C      1  0.4434840000000  0.5313560000000  0.4158190000000 1.0
C      1  0.4436890000000  0.5957930000000  0.5293560000000 1.0
C      1  0.4443020000000  0.4718450000000  0.5946730000000 1.0
C      1  0.5561430000000  0.5956450000000  0.4712730000000 1.0
C      1  0.5562580000000  0.4685320000000  0.4087890000000 1.0
C      1  0.5565890000000  0.4060580000000  0.5284870000000 1.0
C      1  0.5604970000000  0.5339770000000  0.5802700000000 1.0
C      1  0.4652200000000  0.4509260000000  0.5914140000000 1.0
C      1  0.4646990000000  0.4080330000000  0.4514300000000 1.0
C      1  0.4813190000000  0.5478200000000  0.4043580000000 1.0
C      1  0.4653580000000  0.5920570000000  0.5485790000000 1.0
C      1  0.5195030000000  0.5425280000000  0.5941640000000 1.0
C      1  0.5339230000000  0.5945560000000  0.4516830000000 1.0
C      1  0.5339330000000  0.4536460000000  0.4091350000000 1.0
C      1  0.5354480000000  0.4087930000000  0.5492720000000 1.0
C      1  0.4674270000000  0.5293450000000  0.5959310000000 1.0
C      1  0.4672290000000  0.4085490000000  0.5265730000000 1.0
C      1  0.4630650000000  0.4673210000000  0.4070230000000 1.0
C      1  0.4538680000000  0.5862070000000  0.4682420000000 1.0
C      1  0.5306110000000  0.4747420000000  0.5928530000000 1.0
C      1  0.5337180000000  0.5945970000000  0.5314650000000 1.0
C      1  0.5367190000000  0.5344190000000  0.4071720000000 1.0
C      1  0.5305780000000  0.4076940000000  0.4731830000000 1.0
C      1  0.5760730000000  0.4985110000000  0.4754540000000 1.0
C      1  0.5758720000000  0.5236150000000  0.4964140000000 1.0
C      1  0.5740580000000  0.5010870000000  0.5224530000000 1.0
C      1  0.5734170000000  0.4772020000000  0.5033000000000 1.0
C      1  0.4241070000000  0.5002740000000  0.4768510000000 1.0
C      1  0.4245380000000  0.4773140000000  0.4963050000000 1.0
C      1  0.4254140000000  0.4961950000000  0.5218780000000 1.0
C      1  0.4239750000000  0.5239180000000  0.5015970000000 1.0
C      1  0.4724080000000  0.5906000000000  0.5201880000000 1.0
C      1  0.4728360000000  0.4788350000000  0.5911160000000 1.0
C      1  0.4699270000000  0.4138030000000  0.4790920000000 1.0
C      1  0.4702480000000  0.5215110000000  0.4109570000000 1.0
C      1  0.5280400000000  0.4103030000000  0.5213790000000 1.0
C      1  0.5353930000000  0.5203080000000  0.5867350000000 1.0
C      1  0.5280290000000  0.5905900000000  0.4799450000000 1.0
C      1  0.5160870000000  0.4778020000000  0.4065830000000 1.0
C      1  0.4867220000000  0.5501950000000  0.5628620000000 1.0
C      1  0.4911770000000  0.4322150000000  0.5522440000000 1.0
C      1  0.4901910000000  0.4479980000000  0.4316460000000 1.0
C      1  0.4917100000000  0.5686170000000  0.4476620000000 1.0
C      1  0.5083920000000  0.4479330000000  0.5688010000000 1.0
C      1  0.5072160000000  0.5653400000000  0.5509840000000 1.0
C      1  0.5135150000000  0.5522310000000  0.4385190000000 1.0
C      1  0.5091280000000  0.4350990000000  0.4480860000000 1.0
C      1  0.4701370000000  0.5084940000000  0.4844090000000 1.0
C      1  0.4665310000000  0.5275900000000  0.5064580000000 1.0
C      1  0.4712700000000  0.4837200000000  0.5188790000000 1.0
C      1  0.4855810000000  0.4891650000000  0.4949870000000 1.0
C      1  0.5307890000000  0.4803680000000  0.4757810000000 1.0
C      1  0.5280480000000  0.4792750000000  0.5179860000000 1.0
C      1  0.5318720000000  0.5181460000000  0.5238150000000 1.0
C      1  0.5274580000000  0.5206930000000  0.4832190000000 1.0
C      1  0.5198790000000  0.4968390000000  0.4970730000000 1.0
END
