TITL C-2441158-471-519 0.00918214538497367 125000 -12519.7839116801 0 0 84 (D3) n - 1
REM
REM in /home/bkarasulu/work/CARBON/AIRSS/Generating-Clusters/ReaxFF-fromJPCA2015/Units_Real/with-SteepDescent/Higher-Symm
REM
REM
REM
REM
REM
REM ./C.cell (1df0a924f5614ab8850e4351716899ee)
REM
REM compiler GCC version 9.2.1 20190827 (Red Hat 9.2.1-1)
REM options -cpp -mtune=generic -march=x86-64 -g -O0 -fpre-include=/usr/include/finclude/math-vector-fortran.h
REM seed -545784449 -1007536693 -553931368 -634628752 125200006 691101821 852192386 -499300669 -103573556 532958116 -351628332 -937175250 512063447 993966454 -683580957 784251050 1886674148 1538453133 -1611790306 2025364057 -1498178986 -539975893 -1116941757 481075372 75792610 -86398096 1034914680 2060448869 1489106710 864277507 1827983100 2109020058 -1145680024
REM
CELL 1.54180   50.00000   50.00000   50.00000   90.00000   90.00000   90.00000
LATT -1
SFAC C  
C      1  0.4939570000000  0.5355400000000  0.4200260000000 1.0
C      1  0.4940900000000  0.5516300000000  0.5708900000000 1.0
C      1  0.4940550000000  0.4131320000000  0.5094330000000 1.0
C      1  0.5060860000000  0.4647290000000  0.4198220000000 1.0
C      1  0.5058580000000  0.4487060000000  0.5709240000000 1.0
C      1  0.5061510000000  0.5868010000000  0.5093420000000 1.0
C      1  0.4418110000000  0.5040800000000  0.5270270000000 1.0
C      1  0.4419280000000  0.4743870000000  0.4899780000000 1.0
C      1  0.4419270000000  0.5212990000000  0.4828620000000 1.0
C      1  0.5579450000000  0.4958240000000  0.5270510000000 1.0
C      1  0.5579830000000  0.5254150000000  0.4900590000000 1.0
C      1  0.5580420000000  0.4786120000000  0.4827960000000 1.0
C      1  0.5319170000000  0.5761820000000  0.4981470000000 1.0
C      1  0.5316140000000  0.4636690000000  0.5671410000000 1.0
C      1  0.5318340000000  0.4600570000000  0.4345720000000 1.0
C      1  0.4682820000000  0.4235870000000  0.4980010000000 1.0
C      1  0.4683080000000  0.5366280000000  0.5672540000000 1.0
C      1  0.4681790000000  0.5398220000000  0.4348650000000 1.0
C      1  0.4716830000000  0.4755410000000  0.4842330000000 1.0
C      1  0.4716450000000  0.5257480000000  0.4867580000000 1.0
C      1  0.4715810000000  0.4985670000000  0.5289880000000 1.0
C      1  0.5282920000000  0.5243550000000  0.4843030000000 1.0
C      1  0.5283070000000  0.4741750000000  0.4865930000000 1.0
C      1  0.5282100000000  0.5013480000000  0.5289700000000 1.0
C      1  0.4650730000000  0.5095040000000  0.5786400000000 1.0
C      1  0.4653110000000  0.4273410000000  0.4688310000000 1.0
C      1  0.4650910000000  0.5632440000000  0.4526950000000 1.0
C      1  0.5347330000000  0.4908110000000  0.5784910000000 1.0
C      1  0.5350300000000  0.5724640000000  0.4689390000000 1.0
C      1  0.5348540000000  0.4366930000000  0.4524500000000 1.0
C      1  0.4842870000000  0.4508460000000  0.4638110000000 1.0
C      1  0.4842060000000  0.5557390000000  0.4755020000000 1.0
C      1  0.4840520000000  0.4934820000000  0.5606030000000 1.0
C      1  0.5157960000000  0.5490850000000  0.4639820000000 1.0
C      1  0.5158670000000  0.4441510000000  0.4753690000000 1.0
C      1  0.5156590000000  0.5067230000000  0.5605320000000 1.0
C      1  0.4820620000000  0.4650470000000  0.5695670000000 1.0
C      1  0.4823900000000  0.4574360000000  0.4346770000000 1.0
C      1  0.4823680000000  0.5776910000000  0.4957000000000 1.0
C      1  0.5178030000000  0.5351490000000  0.5695540000000 1.0
C      1  0.5177210000000  0.5426640000000  0.4348320000000 1.0
C      1  0.5177910000000  0.4223420000000  0.4957620000000 1.0
C      1  0.4673060000000  0.5121410000000  0.4460570000000 1.0
C      1  0.4674130000000  0.5406190000000  0.5376470000000 1.0
C      1  0.4673700000000  0.4471190000000  0.5164240000000 1.0
C      1  0.5325970000000  0.4877580000000  0.4458700000000 1.0
C      1  0.5325240000000  0.4594850000000  0.5375810000000 1.0
C      1  0.5328050000000  0.5526040000000  0.5163740000000 1.0
C      1  0.5609140000000  0.4457430000000  0.5077280000000 1.0
C      1  0.5609570000000  0.5205730000000  0.4491010000000 1.0
C      1  0.5611050000000  0.5336590000000  0.5433020000000 1.0
C      1  0.4391270000000  0.5542460000000  0.5077070000000 1.0
C      1  0.4390810000000  0.4793640000000  0.4490510000000 1.0
C      1  0.4388680000000  0.4661550000000  0.5431520000000 1.0
C      1  0.5362040000000  0.5674920000000  0.5412300000000 1.0
C      1  0.5362510000000  0.4305750000000  0.5382700000000 1.0
C      1  0.5360870000000  0.5020150000000  0.4206190000000 1.0
C      1  0.4638240000000  0.4322710000000  0.5413480000000 1.0
C      1  0.4638800000000  0.5696120000000  0.5381260000000 1.0
C      1  0.4638280000000  0.4981610000000  0.4206610000000 1.0
C      1  0.5439530000000  0.5470460000000  0.5616860000000 1.0
C      1  0.5437850000000  0.4231380000000  0.5102470000000 1.0
C      1  0.5438250000000  0.5299100000000  0.4283360000000 1.0
C      1  0.4560470000000  0.4529230000000  0.5616200000000 1.0
C      1  0.4562970000000  0.5768600000000  0.5100700000000 1.0
C      1  0.4562760000000  0.4702000000000  0.4282520000000 1.0
C      1  0.4309340000000  0.4782960000000  0.5186500000000 1.0
C      1  0.4310490000000  0.4944960000000  0.4718060000000 1.0
C      1  0.4309630000000  0.5270110000000  0.5093300000000 1.0
C      1  0.5689700000000  0.5215710000000  0.5187710000000 1.0
C      1  0.5689620000000  0.5053960000000  0.4717990000000 1.0
C      1  0.5689570000000  0.4729700000000  0.5093080000000 1.0
C      1  0.5113440000000  0.5837250000000  0.5380100000000 1.0
C      1  0.5112390000000  0.4254940000000  0.5538300000000 1.0
C      1  0.5112490000000  0.4911260000000  0.4081420000000 1.0
C      1  0.4888970000000  0.4163490000000  0.5381230000000 1.0
C      1  0.4889120000000  0.5747430000000  0.5536450000000 1.0
C      1  0.4887630000000  0.5091440000000  0.4083800000000 1.0
C      1  0.4827100000000  0.5024130000000  0.4701120000000 1.0
C      1  0.4826490000000  0.5246180000000  0.5171370000000 1.0
C      1  0.4827140000000  0.4728490000000  0.5127610000000 1.0
C      1  0.5172190000000  0.4973970000000  0.4699670000000 1.0
C      1  0.5171730000000  0.4753650000000  0.5170330000000 1.0
C      1  0.5171950000000  0.5271230000000  0.5127690000000 1.0
END
