TITL C-2441169-1362-1185 0.00510968831145137 125000 -7034.84761123147 0 0 48 (C1) n - 1
REM
REM in /home/bkarasulu/work/CARBON/AIRSS/Generating-Clusters/ReaxFF-fromJPCA2015/Units_Real/with-SteepDescent/Higher-Symm
REM
REM
REM
REM
REM
REM ./C.cell (1df0a924f5614ab8850e4351716899ee)
REM
REM compiler GCC version 9.2.1 20190827 (Red Hat 9.2.1-1)
REM options -cpp -mtune=generic -march=x86-64 -g -O0 -fpre-include=/usr/include/finclude/math-vector-fortran.h
REM seed -462105988 -1893133286 -1918022084 466933041 1324710479 -465536877 -1497906428 1735491831 -948357632 -1124043861 -1690828754 -1985042279 -439675848 373718479 505284867 1468455366 1319078109 -1293559850 -328304870 -555155228 -407187630 -1743437117 -1980560135 -743035425 4889633 -1133474362 1218620595 -1159204751 1997948312 2126307565 158343392 1799032706 1435769597
REM
CELL 1.54180   50.00000   50.00000   50.00000   90.00000   90.00000   90.00000
LATT -1
SFAC C  
C      1  0.5014420000000  0.5393120000000  0.5526220000000 1.0
C      1  0.4743500000000  0.5393390000000  0.5413070000000 1.0
C      1  0.4717150000000  0.5487120000000  0.5138960000000 1.0
C      1  0.4512760000000  0.5396700000000  0.4952280000000 1.0
C      1  0.4586770000000  0.5389220000000  0.4668940000000 1.0
C      1  0.4831340000000  0.5391200000000  0.4502880000000 1.0
C      1  0.5124800000000  0.5382860000000  0.4496780000000 1.0
C      1  0.5379560000000  0.5390640000000  0.4643280000000 1.0
C      1  0.5506300000000  0.5382030000000  0.4907640000000 1.0
C      1  0.5479420000000  0.5390200000000  0.5200510000000 1.0
C      1  0.5293960000000  0.5387670000000  0.5428000000000 1.0
C      1  0.4374480000000  0.4785090000000  0.5317840000000 1.0
C      1  0.4344370000000  0.4913350000000  0.4884210000000 1.0
C      1  0.4429540000000  0.4905140000000  0.4619550000000 1.0
C      1  0.4840940000000  0.4893530000000  0.4316400000000 1.0
C      1  0.5115220000000  0.4892190000000  0.4315540000000 1.0
C      1  0.5551460000000  0.4891930000000  0.4572400000000 1.0
C      1  0.5669680000000  0.4890610000000  0.4819560000000 1.0
C      1  0.5614390000000  0.4893140000000  0.5322720000000 1.0
C      1  0.5447630000000  0.4890810000000  0.5539130000000 1.0
C      1  0.4956900000000  0.4905940000000  0.5681890000000 1.0
C      1  0.4691190000000  0.4904390000000  0.5585300000000 1.0
C      1  0.4590680000000  0.4666460000000  0.4662460000000 1.0
C      1  0.4834610000000  0.4664170000000  0.4499820000000 1.0
C      1  0.5130720000000  0.4663470000000  0.4492150000000 1.0
C      1  0.5380640000000  0.4665240000000  0.4643690000000 1.0
C      1  0.5515020000000  0.4661260000000  0.4907660000000 1.0
C      1  0.5484930000000  0.4667630000000  0.5198100000000 1.0
C      1  0.5303730000000  0.4656420000000  0.5433640000000 1.0
C      1  0.5026560000000  0.4668060000000  0.5525050000000 1.0
C      1  0.4744600000000  0.4648220000000  0.5443420000000 1.0
C      1  0.4541930000000  0.4578240000000  0.5228150000000 1.0
C      1  0.4496320000000  0.4663800000000  0.4940420000000 1.0
C      1  0.4360040000000  0.5163100000000  0.5034140000000 1.0
C      1  0.4504360000000  0.5153780000000  0.4523580000000 1.0
C      1  0.4726630000000  0.5154910000000  0.4363070000000 1.0
C      1  0.5224500000000  0.5147860000000  0.4355840000000 1.0
C      1  0.5465620000000  0.5154020000000  0.4489880000000 1.0
C      1  0.5674120000000  0.5147610000000  0.4938330000000 1.0
C      1  0.5653860000000  0.5152360000000  0.5212500000000 1.0
C      1  0.5336050000000  0.5150470000000  0.5594920000000 1.0
C      1  0.5077460000000  0.5158110000000  0.5682380000000 1.0
C      1  0.4587930000000  0.5157520000000  0.5480460000000 1.0
C      1  0.4359150000000  0.5073170000000  0.5315050000000 1.0
C      1  0.5011070000000  0.4574370000000  0.4993070000000 1.0
C      1  0.5008630000000  0.4820740000000  0.4994390000000 1.0
C      1  0.4998760000000  0.5074780000000  0.4999130000000 1.0
C      1  0.4967620000000  0.5363120000000  0.5014190000000 1.0
END
