TITL C-2441169-1362-1287 -0.0119238383634889 125000 -3967.56804976129 0 0 29 (C1) n - 1
REM
REM in /home/bkarasulu/work/CARBON/AIRSS/Generating-Clusters/ReaxFF-fromJPCA2015/Units_Real/with-SteepDescent/Higher-Symm
REM
REM
REM
REM
REM
REM ./C.cell (1df0a924f5614ab8850e4351716899ee)
REM
REM compiler GCC version 9.2.1 20190827 (Red Hat 9.2.1-1)
REM options -cpp -mtune=generic -march=x86-64 -g -O0 -fpre-include=/usr/include/finclude/math-vector-fortran.h
REM seed 1126882132 392245304 1218004957 2045998882 420061988 906278128 -1767773782 281955705 232119018 -164866170 1877176970 -389316559 -678256787 -311059018 1551532538 -1830009375 -738218676 2054107580 -49390515 -968963886 -540192210 1295777418 -1024878702 112305912 -472675418 -1453664864 -595554350 -2023449327 -1409716988 -1065896526 -955821074 1051170896 -321746486
REM
CELL 1.54180   50.00000   50.00000   50.00000   90.00000   90.00000   90.00000
LATT -1
SFAC C  
C      1  0.4761980000000  0.5345700000000  0.5439930000000 1.0
C      1  0.4837910000000  0.5490580000000  0.4677530000000 1.0
C      1  0.4768690000000  0.4663350000000  0.4563230000000 1.0
C      1  0.4833950000000  0.4528480000000  0.5310680000000 1.0
C      1  0.5216470000000  0.5352150000000  0.4549200000000 1.0
C      1  0.5139510000000  0.5494530000000  0.5313890000000 1.0
C      1  0.5213760000000  0.4660180000000  0.5433890000000 1.0
C      1  0.5142480000000  0.4517290000000  0.4679260000000 1.0
C      1  0.5128410000000  0.4467690000000  0.5242400000000 1.0
C      1  0.5142310000000  0.5207750000000  0.5474060000000 1.0
C      1  0.5134250000000  0.5536220000000  0.4749090000000 1.0
C      1  0.5167290000000  0.4810300000000  0.4524220000000 1.0
C      1  0.4850760000000  0.4467220000000  0.4749250000000 1.0
C      1  0.4828910000000  0.5207610000000  0.4521500000000 1.0
C      1  0.4846280000000  0.5533880000000  0.5241210000000 1.0
C      1  0.4811400000000  0.4811010000000  0.5471200000000 1.0
C      1  0.4753670000000  0.5500240000000  0.4956430000000 1.0
C      1  0.4713830000000  0.4925270000000  0.4471540000000 1.0
C      1  0.4750450000000  0.4498090000000  0.5033200000000 1.0
C      1  0.4750760000000  0.5084290000000  0.5496100000000 1.0
C      1  0.5226040000000  0.5509190000000  0.5036260000000 1.0
C      1  0.5263170000000  0.4925190000000  0.5521330000000 1.0
C      1  0.5226100000000  0.4497140000000  0.4956180000000 1.0
C      1  0.5234500000000  0.5084260000000  0.4489760000000 1.0
C      1  0.4968080000000  0.4881070000000  0.5233400000000 1.0
C      1  0.5086720000000  0.5110970000000  0.5208980000000 1.0
C      1  0.4946160000000  0.5127630000000  0.4773640000000 1.0
C      1  0.5046600000000  0.4888150000000  0.4771900000000 1.0
C      1  0.4909630000000  0.4981330000000  0.4998470000000 1.0
END
