TITL C-2441154-10-201 0.0463206024914933 125000 -18018.9104052315 0 0 128 (C1) n - 1
REM
REM in /home/bkarasulu/work/CARBON/AIRSS/Generating-Clusters/ReaxFF-fromJPCA2015/Units_Real/with-SteepDescent/Higher-Symm
REM
REM
REM
REM
REM
REM ./C.cell (1df0a924f5614ab8850e4351716899ee)
REM
REM compiler GCC version 9.2.1 20190827 (Red Hat 9.2.1-1)
REM options -cpp -mtune=generic -march=x86-64 -g -O0 -fpre-include=/usr/include/finclude/math-vector-fortran.h
REM seed -635233312 1037105606 -256492781 690462751 1321351618 586543063 235876528 -834527591 2103971466 1504709339 694866918 368915870 787489793 2085409184 1904981155 -1365578144 881285192 1692410459 425535973 344174869 703205903 -1455256665 -1358330356 1103033903 1329658206 -1379789840 1547566621 -364638435 -882436180 1278009242 2018498410 1890711351 103705772
REM
CELL 1.54180   50.00000   50.00000   50.00000   90.00000   90.00000   90.00000
LATT -1
SFAC C  
C      1  0.4723850000000  0.5642320000000  0.5668460000000 1.0
C      1  0.4704770000000  0.5932460000000  0.5068790000000 1.0
C      1  0.4745940000000  0.5733130000000  0.4479790000000 1.0
C      1  0.4760940000000  0.5177260000000  0.4270850000000 1.0
C      1  0.4724740000000  0.4611640000000  0.4149110000000 1.0
C      1  0.4731770000000  0.4150400000000  0.4597810000000 1.0
C      1  0.4706910000000  0.4094090000000  0.5247070000000 1.0
C      1  0.4716170000000  0.4460090000000  0.5773900000000 1.0
C      1  0.4720230000000  0.5052290000000  0.5728530000000 1.0
C      1  0.4479100000000  0.4922960000000  0.5811730000000 1.0
C      1  0.4507900000000  0.5463150000000  0.5705390000000 1.0
C      1  0.4531520000000  0.5768950000000  0.5217030000000 1.0
C      1  0.4524890000000  0.5747720000000  0.4649190000000 1.0
C      1  0.4516960000000  0.5338110000000  0.4258030000000 1.0
C      1  0.4523290000000  0.4807980000000  0.4182810000000 1.0
C      1  0.4522490000000  0.4323690000000  0.4544080000000 1.0
C      1  0.4504280000000  0.4157860000000  0.5063680000000 1.0
C      1  0.4517930000000  0.4411880000000  0.5574690000000 1.0
C      1  0.5398750000000  0.5005470000000  0.4631170000000 1.0
C      1  0.5537300000000  0.4787210000000  0.4736210000000 1.0
C      1  0.5406890000000  0.4647910000000  0.4937360000000 1.0
C      1  0.5548220000000  0.4684940000000  0.5179140000000 1.0
C      1  0.5410250000000  0.4863520000000  0.5344140000000 1.0
C      1  0.5545450000000  0.5111130000000  0.5334590000000 1.0
C      1  0.5396410000000  0.5288650000000  0.5174060000000 1.0
C      1  0.5534100000000  0.5348400000000  0.4931170000000 1.0
C      1  0.5471050000000  0.5277550000000  0.4674160000000 1.0
C      1  0.4101660000000  0.4981560000000  0.5426140000000 1.0
C      1  0.4101430000000  0.5261690000000  0.5337080000000 1.0
C      1  0.4106500000000  0.5419530000000  0.5095310000000 1.0
C      1  0.4134240000000  0.5377360000000  0.4801060000000 1.0
C      1  0.4105500000000  0.5167530000000  0.4602750000000 1.0
C      1  0.4130760000000  0.4869050000000  0.4602990000000 1.0
C      1  0.4114100000000  0.4654350000000  0.4791170000000 1.0
C      1  0.4116840000000  0.4571380000000  0.5067750000000 1.0
C      1  0.4142540000000  0.4707710000000  0.5329370000000 1.0
C      1  0.5907150000000  0.5206650000000  0.4635210000000 1.0
C      1  0.5901720000000  0.4950830000000  0.4500560000000 1.0
C      1  0.5810600000000  0.4694970000000  0.4676860000000 1.0
C      1  0.5870240000000  0.4533520000000  0.4936090000000 1.0
C      1  0.5833190000000  0.4617060000000  0.5229560000000 1.0
C      1  0.5873720000000  0.4850330000000  0.5438300000000 1.0
C      1  0.5831230000000  0.5155320000000  0.5413120000000 1.0
C      1  0.5874450000000  0.5424150000000  0.5242420000000 1.0
C      1  0.5815470000000  0.5457750000000  0.4959250000000 1.0
C      1  0.5284910000000  0.4508020000000  0.5617790000000 1.0
C      1  0.5293030000000  0.5008310000000  0.5802730000000 1.0
C      1  0.5289100000000  0.5524670000000  0.5600480000000 1.0
C      1  0.5279470000000  0.5774420000000  0.5128880000000 1.0
C      1  0.5279120000000  0.5678280000000  0.4593540000000 1.0
C      1  0.5284540000000  0.5257480000000  0.4245710000000 1.0
C      1  0.5279740000000  0.4713630000000  0.4262590000000 1.0
C      1  0.5287260000000  0.4305360000000  0.4610460000000 1.0
C      1  0.5288380000000  0.4216650000000  0.5141460000000 1.0
C      1  0.5128630000000  0.5295840000000  0.5219430000000 1.0
C      1  0.5000080000000  0.5404030000000  0.5017550000000 1.0
C      1  0.5033440000000  0.5291130000000  0.4750030000000 1.0
C      1  0.5128530000000  0.5026190000000  0.4671490000000 1.0
C      1  0.5021160000000  0.4771880000000  0.4728880000000 1.0
C      1  0.5133640000000  0.4623790000000  0.4936790000000 1.0
C      1  0.5012690000000  0.4608380000000  0.5195880000000 1.0
C      1  0.5134350000000  0.4842350000000  0.5333050000000 1.0
C      1  0.5016890000000  0.5093370000000  0.5360720000000 1.0
C      1  0.5574390000000  0.4232280000000  0.5162360000000 1.0
C      1  0.5570200000000  0.4509450000000  0.5606030000000 1.0
C      1  0.5577830000000  0.5020890000000  0.5776940000000 1.0
C      1  0.5574550000000  0.5510590000000  0.5589190000000 1.0
C      1  0.5567810000000  0.5773060000000  0.5119890000000 1.0
C      1  0.5565510000000  0.5672790000000  0.4609770000000 1.0
C      1  0.5567670000000  0.5227610000000  0.4263970000000 1.0
C      1  0.5568300000000  0.4702780000000  0.4284260000000 1.0
C      1  0.5574820000000  0.4315170000000  0.4629580000000 1.0
C      1  0.4914080000000  0.4161720000000  0.5434340000000 1.0
C      1  0.4913120000000  0.4646260000000  0.5889440000000 1.0
C      1  0.4943040000000  0.5308010000000  0.5924900000000 1.0
C      1  0.4912980000000  0.5799600000000  0.5510080000000 1.0
C      1  0.4923060000000  0.5942870000000  0.4881500000000 1.0
C      1  0.4911340000000  0.5615260000000  0.4278040000000 1.0
C      1  0.4924980000000  0.5031410000000  0.4048670000000 1.0
C      1  0.4906420000000  0.4410320000000  0.4259930000000 1.0
C      1  0.4932350000000  0.4048090000000  0.4794620000000 1.0
C      1  0.5164460000000  0.5703120000000  0.5404580000000 1.0
C      1  0.5163730000000  0.5788080000000  0.4856290000000 1.0
C      1  0.5165070000000  0.5512780000000  0.4366790000000 1.0
C      1  0.5172610000000  0.4983860000000  0.4177060000000 1.0
C      1  0.5159150000000  0.4471200000000  0.4389700000000 1.0
C      1  0.5178940000000  0.4186690000000  0.4863810000000 1.0
C      1  0.5142140000000  0.4343150000000  0.5379100000000 1.0
C      1  0.5170410000000  0.4728960000000  0.5773410000000 1.0
C      1  0.5184930000000  0.5288580000000  0.5781980000000 1.0
C      1  0.5705410000000  0.4968480000000  0.4288130000000 1.0
C      1  0.5694000000000  0.4516290000000  0.4465880000000 1.0
C      1  0.5711770000000  0.4308790000000  0.4901530000000 1.0
C      1  0.5701120000000  0.4371800000000  0.5385540000000 1.0
C      1  0.5715280000000  0.4778540000000  0.5653770000000 1.0
C      1  0.5704480000000  0.5263780000000  0.5678050000000 1.0
C      1  0.5706560000000  0.5624400000000  0.5342780000000 1.0
C      1  0.5694850000000  0.5723550000000  0.4861750000000 1.0
C      1  0.5672020000000  0.5402110000000  0.4491270000000 1.0
C      1  0.4741010000000  0.4637280000000  0.5125120000000 1.0
C      1  0.4604060000000  0.4812920000000  0.5294820000000 1.0
C      1  0.4753730000000  0.5064880000000  0.5436170000000 1.0
C      1  0.4584960000000  0.5235580000000  0.5235810000000 1.0
C      1  0.4719120000000  0.5371950000000  0.5003820000000 1.0
C      1  0.4743210000000  0.5278240000000  0.4724720000000 1.0
C      1  0.4715510000000  0.5055020000000  0.4552560000000 1.0
C      1  0.4752290000000  0.4788590000000  0.4652600000000 1.0
C      1  0.4632310000000  0.4641190000000  0.4865200000000 1.0
C      1  0.4622790000000  0.4692930000000  0.5906840000000 1.0
C      1  0.4663170000000  0.5296550000000  0.5887850000000 1.0
C      1  0.4638140000000  0.5807110000000  0.5471190000000 1.0
C      1  0.4649540000000  0.5948000000000  0.4805960000000 1.0
C      1  0.4616540000000  0.5600890000000  0.4283850000000 1.0
C      1  0.4651110000000  0.5019270000000  0.4059810000000 1.0
C      1  0.4610060000000  0.4383590000000  0.4280650000000 1.0
C      1  0.4647980000000  0.4040050000000  0.4846050000000 1.0
C      1  0.4642140000000  0.4175230000000  0.5491500000000 1.0
C      1  0.4397250000000  0.4486840000000  0.4759230000000 1.0
C      1  0.4310570000000  0.4359760000000  0.5005990000000 1.0
C      1  0.4402000000000  0.4638870000000  0.5437930000000 1.0
C      1  0.4295270000000  0.5041570000000  0.5629050000000 1.0
C      1  0.4357600000000  0.5303950000000  0.5498760000000 1.0
C      1  0.4333250000000  0.5611090000000  0.5081150000000 1.0
C      1  0.4360590000000  0.5565590000000  0.4802560000000 1.0
C      1  0.4315010000000  0.5181330000000  0.4396990000000 1.0
C      1  0.4344150000000  0.4896170000000  0.4395330000000 1.0
C      1  0.5901150000000  0.5098370000000  0.4886390000000 1.0
C      1  0.4471430000000  0.5008840000000  0.5082930000000 1.0
END
