TITL C-2441167-4473-60 0.00972176897770369 125000 -3207.04201636416 0 0 27 (Cs) n - 1
REM
REM in /home/bkarasulu/work/CARBON/AIRSS/Generating-Clusters/ReaxFF-fromJPCA2015/Units_Real/with-SteepDescent/Higher-Symm
REM
REM
REM
REM
REM
REM ./C.cell (1df0a924f5614ab8850e4351716899ee)
REM
REM compiler GCC version 9.2.1 20190827 (Red Hat 9.2.1-1)
REM options -cpp -mtune=generic -march=x86-64 -g -O0 -fpre-include=/usr/include/finclude/math-vector-fortran.h
REM seed -384668851 -380835223 1338794968 -2001162872 142369512 1055562479 -382158482 805481063 1270848046 1457042345 823212518 -470391932 1325197017 1951550785 -136035850 700523362 -48338078 215761433 -1533618503 -706246754 -1290314826 -563105544 -1181521229 -1935178600 189551938 -1612925519 1231808330 -836764844 377454001 -1445198205 447795100 -1072981568 -1609705400
REM
CELL 1.54180   50.00000   50.00000   50.00000   90.00000   90.00000   90.00000
LATT -1
SFAC C  
C      1  0.5212610000000  0.5038630000000  0.4859580000000 1.0
C      1  0.4812880000000  0.5037680000000  0.4860170000000 1.0
C      1  0.4777870000000  0.5018060000000  0.5360030000000 1.0
C      1  0.5246980000000  0.5018570000000  0.5361100000000 1.0
C      1  0.4840830000000  0.4564930000000  0.4859960000000 1.0
C      1  0.5180620000000  0.4564630000000  0.4862600000000 1.0
C      1  0.5349550000000  0.4822520000000  0.4785600000000 1.0
C      1  0.4673870000000  0.4823320000000  0.4785660000000 1.0
C      1  0.5358540000000  0.4999060000000  0.5587640000000 1.0
C      1  0.4666620000000  0.4999440000000  0.5586880000000 1.0
C      1  0.4871840000000  0.4384030000000  0.5101070000000 1.0
C      1  0.5158840000000  0.4383290000000  0.5103980000000 1.0
C      1  0.5152650000000  0.5513010000000  0.4601510000000 1.0
C      1  0.4872530000000  0.5512930000000  0.4604750000000 1.0
C      1  0.5234460000000  0.4658860000000  0.5151000000000 1.0
C      1  0.4791460000000  0.4657940000000  0.5148900000000 1.0
C      1  0.5340190000000  0.5120230000000  0.5074340000000 1.0
C      1  0.4685010000000  0.5121130000000  0.5073540000000 1.0
C      1  0.5333250000000  0.4935570000000  0.4503430000000 1.0
C      1  0.4692200000000  0.4936880000000  0.4503340000000 1.0
C      1  0.5190440000000  0.5370520000000  0.5066820000000 1.0
C      1  0.4834050000000  0.5371380000000  0.5064810000000 1.0
C      1  0.5160270000000  0.5178540000000  0.4608230000000 1.0
C      1  0.4865720000000  0.5178240000000  0.4608680000000 1.0
C      1  0.4882500000000  0.5606770000000  0.5192140000000 1.0
C      1  0.5142630000000  0.5605230000000  0.5193550000000 1.0
C      1  0.5011970000000  0.4777140000000  0.5315760000000 1.0
END
