TITL C-2441169-1362-669 8.20354016084825e-07 125000 -4385.29766038366 0 0 32 (C4) n - 1
REM
REM in /home/bkarasulu/work/CARBON/AIRSS/Generating-Clusters/ReaxFF-fromJPCA2015/Units_Real/with-SteepDescent/Higher-Symm
REM
REM
REM
REM
REM
REM ./C.cell (1df0a924f5614ab8850e4351716899ee)
REM
REM compiler GCC version 9.2.1 20190827 (Red Hat 9.2.1-1)
REM options -cpp -mtune=generic -march=x86-64 -g -O0 -fpre-include=/usr/include/finclude/math-vector-fortran.h
REM seed -800074375 1033910435 -295374207 1462914515 -1332653042 -539904361 37138677 -2098634233 131326830 778108793 700858977 -2137114253 1511592371 1035884176 771641006 1235072003 -397373053 533560900 -992090823 -1535911382 1782129719 -1202648070 1666702335 1921859116 1105392023 -1472953427 -164306542 8491828 1947291690 -1906197752 1528654667 -547106506 -10881342
REM
CELL 1.54180   50.00000   50.00000   50.00000   90.00000   90.00000   90.00000
LATT -1
SFAC C  
C      1  0.5685050000000  0.4491570000000  0.4981000000000 1.0
C      1  0.5018350000000  0.4492090000000  0.5685080000000 1.0
C      1  0.4313830000000  0.4493080000000  0.5019030000000 1.0
C      1  0.4980540000000  0.4492090000000  0.4314950000000 1.0
C      1  0.5034800000000  0.5392160000000  0.4609370000000 1.0
C      1  0.5391060000000  0.5391820000000  0.5034360000000 1.0
C      1  0.4966060000000  0.5392260000000  0.5390600000000 1.0
C      1  0.4609800000000  0.5392670000000  0.4965610000000 1.0
C      1  0.5171250000000  0.4936650000000  0.5481160000000 1.0
C      1  0.4518630000000  0.4937430000000  0.5171360000000 1.0
C      1  0.4828610000000  0.4936990000000  0.4518850000000 1.0
C      1  0.5481240000000  0.4936360000000  0.4828650000000 1.0
C      1  0.5222660000000  0.5466070000000  0.4813920000000 1.0
C      1  0.5186580000000  0.5466120000000  0.5222150000000 1.0
C      1  0.4778360000000  0.5466570000000  0.5186040000000 1.0
C      1  0.4814450000000  0.5466510000000  0.4777820000000 1.0
C      1  0.5481450000000  0.5096420000000  0.5056240000000 1.0
C      1  0.4943850000000  0.5096960000000  0.5481250000000 1.0
C      1  0.4518770000000  0.5097470000000  0.4943750000000 1.0
C      1  0.5056360000000  0.5096800000000  0.4518740000000 1.0
C      1  0.4530990000000  0.4986330000000  0.4657520000000 1.0
C      1  0.5342500000000  0.4985420000000  0.4531010000000 1.0
C      1  0.5468980000000  0.4985330000000  0.5342480000000 1.0
C      1  0.4657470000000  0.4986210000000  0.5468990000000 1.0
C      1  0.4915040000000  0.4707020000000  0.4411090000000 1.0
C      1  0.5588950000000  0.4706460000000  0.4915300000000 1.0
C      1  0.5084320000000  0.4706880000000  0.5588930000000 1.0
C      1  0.4410410000000  0.4707760000000  0.5084720000000 1.0
C      1  0.5472750000000  0.4922060000000  0.4319640000000 1.0
C      1  0.5680250000000  0.4921930000000  0.5472880000000 1.0
C      1  0.4527080000000  0.4923140000000  0.5680370000000 1.0
C      1  0.4319580000000  0.4923380000000  0.4527130000000 1.0
END
