TITL C-2441156-4686-388 0.038904939782201 125000 -21373.0056085889 0 0 152 (C1) n - 1
REM
REM in /home/bkarasulu/work/CARBON/AIRSS/Generating-Clusters/ReaxFF-fromJPCA2015/Units_Real/with-SteepDescent/Higher-Symm
REM
REM
REM
REM
REM
REM ./C.cell (1df0a924f5614ab8850e4351716899ee)
REM
REM compiler GCC version 9.2.1 20190827 (Red Hat 9.2.1-1)
REM options -cpp -mtune=generic -march=x86-64 -g -O0 -fpre-include=/usr/include/finclude/math-vector-fortran.h
REM seed 613049689 1911932644 1968176916 -181168943 1394560528 -800047054 1097527685 1843442136 -538297568 -1929468498 523773111 1380734223 -1232241218 114664489 -860742876 1465415854 1457116803 -968225698 427458573 -1671706137 1979168917 756551853 986121897 -1833377600 -1947915675 547605271 838625077 -1055250222 1020890304 845625665 -1948502763 2046551646 -715002688
REM
CELL 1.54180   50.00000   50.00000   50.00000   90.00000   90.00000   90.00000
LATT -1
SFAC C  
C      1  0.5586930000000  0.4438280000000  0.4640570000000 1.0
C      1  0.5595810000000  0.5561730000000  0.5349170000000 1.0
C      1  0.4407900000000  0.4425400000000  0.4663850000000 1.0
C      1  0.4380820000000  0.5572220000000  0.5372770000000 1.0
C      1  0.5591710000000  0.5583010000000  0.4668540000000 1.0
C      1  0.5585620000000  0.4415100000000  0.5337740000000 1.0
C      1  0.4405620000000  0.5589300000000  0.4652630000000 1.0
C      1  0.4393250000000  0.4401740000000  0.5343790000000 1.0
C      1  0.4320800000000  0.5270780000000  0.4424750000000 1.0
C      1  0.4297920000000  0.4724640000000  0.5581050000000 1.0
C      1  0.5691050000000  0.5272710000000  0.4423890000000 1.0
C      1  0.5709210000000  0.4738700000000  0.5586960000000 1.0
C      1  0.4324400000000  0.4715990000000  0.4449940000000 1.0
C      1  0.4304530000000  0.5292310000000  0.5574820000000 1.0
C      1  0.5684020000000  0.4717300000000  0.4426390000000 1.0
C      1  0.5686700000000  0.5287420000000  0.5567800000000 1.0
C      1  0.5215380000000  0.5994010000000  0.5145950000000 1.0
C      1  0.5207800000000  0.3991190000000  0.4850270000000 1.0
C      1  0.4802870000000  0.6009330000000  0.5152570000000 1.0
C      1  0.4784860000000  0.3993880000000  0.4855230000000 1.0
C      1  0.5205730000000  0.3973530000000  0.5146070000000 1.0
C      1  0.5213740000000  0.5993230000000  0.4854880000000 1.0
C      1  0.4786780000000  0.4001770000000  0.5144320000000 1.0
C      1  0.4796690000000  0.6025340000000  0.4853500000000 1.0
C      1  0.5978110000000  0.4867880000000  0.5575180000000 1.0
C      1  0.5962180000000  0.5142870000000  0.4423660000000 1.0
C      1  0.4032820000000  0.4865840000000  0.5572530000000 1.0
C      1  0.4047200000000  0.5140400000000  0.4432820000000 1.0
C      1  0.5964350000000  0.5162870000000  0.5559530000000 1.0
C      1  0.5960070000000  0.4846520000000  0.4431530000000 1.0
C      1  0.4036710000000  0.5161300000000  0.5556500000000 1.0
C      1  0.4050730000000  0.4842360000000  0.4444150000000 1.0
C      1  0.5528330000000  0.5144510000000  0.4218640000000 1.0
C      1  0.5524080000000  0.4870560000000  0.5769790000000 1.0
C      1  0.4468850000000  0.5128610000000  0.4216480000000 1.0
C      1  0.4471720000000  0.4857420000000  0.5774850000000 1.0
C      1  0.5531510000000  0.4855170000000  0.4219230000000 1.0
C      1  0.5521130000000  0.5159960000000  0.5770980000000 1.0
C      1  0.4473680000000  0.4836270000000  0.4232310000000 1.0
C      1  0.4461860000000  0.5148680000000  0.5771210000000 1.0
C      1  0.5134090000000  0.5237690000000  0.4515550000000 1.0
C      1  0.5097830000000  0.4781730000000  0.5469810000000 1.0
C      1  0.4852240000000  0.5234760000000  0.4540270000000 1.0
C      1  0.4820620000000  0.4770360000000  0.5433990000000 1.0
C      1  0.5130830000000  0.4762860000000  0.4471720000000 1.0
C      1  0.5132270000000  0.5237090000000  0.5537710000000 1.0
C      1  0.4872280000000  0.4765990000000  0.4506450000000 1.0
C      1  0.4870160000000  0.5229900000000  0.5528630000000 1.0
C      1  0.6052810000000  0.5153260000000  0.5283360000000 1.0
C      1  0.6057190000000  0.4853940000000  0.4705280000000 1.0
C      1  0.3972320000000  0.5148750000000  0.5268750000000 1.0
C      1  0.3955030000000  0.4856240000000  0.4719990000000 1.0
C      1  0.6070880000000  0.4858880000000  0.5292460000000 1.0
C      1  0.6044050000000  0.5149030000000  0.4706550000000 1.0
C      1  0.3947810000000  0.4850390000000  0.5291960000000 1.0
C      1  0.3971940000000  0.5149000000000  0.4714370000000 1.0
C      1  0.5563730000000  0.4869860000000  0.4678370000000 1.0
C      1  0.5566580000000  0.5122770000000  0.5319960000000 1.0
C      1  0.4467410000000  0.4868950000000  0.4702850000000 1.0
C      1  0.4443810000000  0.5118260000000  0.5313080000000 1.0
C      1  0.5559740000000  0.5164590000000  0.4670830000000 1.0
C      1  0.5603210000000  0.4828000000000  0.5325670000000 1.0
C      1  0.4463680000000  0.5164140000000  0.4665520000000 1.0
C      1  0.4426890000000  0.4817060000000  0.5329270000000 1.0
C      1  0.4860170000000  0.4295320000000  0.4749880000000 1.0
C      1  0.4865410000000  0.5695540000000  0.5149130000000 1.0
C      1  0.5131660000000  0.4310520000000  0.4855660000000 1.0
C      1  0.5134250000000  0.5705790000000  0.5253600000000 1.0
C      1  0.4857630000000  0.5702980000000  0.4855150000000 1.0
C      1  0.4860820000000  0.4295350000000  0.5253690000000 1.0
C      1  0.5139300000000  0.5702640000000  0.4747530000000 1.0
C      1  0.5139610000000  0.4301850000000  0.5145190000000 1.0
C      1  0.4625980000000  0.4461130000000  0.5141480000000 1.0
C      1  0.4613860000000  0.5522950000000  0.4855830000000 1.0
C      1  0.5364070000000  0.4504140000000  0.5151090000000 1.0
C      1  0.5363540000000  0.5528000000000  0.4859540000000 1.0
C      1  0.4632580000000  0.5475410000000  0.5148270000000 1.0
C      1  0.4629360000000  0.4445800000000  0.4862350000000 1.0
C      1  0.5344450000000  0.5487230000000  0.5147950000000 1.0
C      1  0.5344100000000  0.4525160000000  0.4855130000000 1.0
C      1  0.5789300000000  0.5225920000000  0.4835870000000 1.0
C      1  0.5828090000000  0.4785780000000  0.5151050000000 1.0
C      1  0.4233910000000  0.5236630000000  0.4844610000000 1.0
C      1  0.4198470000000  0.4777080000000  0.5161440000000 1.0
C      1  0.5820520000000  0.4739640000000  0.4860910000000 1.0
C      1  0.5805120000000  0.5252840000000  0.5133270000000 1.0
C      1  0.4189380000000  0.4732680000000  0.4873420000000 1.0
C      1  0.4223100000000  0.5193680000000  0.5128920000000 1.0
C      1  0.4780580000000  0.5761220000000  0.4416200000000 1.0
C      1  0.4788510000000  0.4215730000000  0.5541970000000 1.0
C      1  0.5213060000000  0.5790840000000  0.4458980000000 1.0
C      1  0.5207100000000  0.4235440000000  0.5580170000000 1.0
C      1  0.4782070000000  0.4203390000000  0.4462540000000 1.0
C      1  0.4753340000000  0.5759610000000  0.5594540000000 1.0
C      1  0.5214710000000  0.4235260000000  0.4417130000000 1.0
C      1  0.5227150000000  0.5784900000000  0.5534970000000 1.0
C      1  0.4730600000000  0.5269410000000  0.4218720000000 1.0
C      1  0.4732290000000  0.4715120000000  0.5769980000000 1.0
C      1  0.5264320000000  0.5292190000000  0.4229760000000 1.0
C      1  0.5256900000000  0.4729980000000  0.5767990000000 1.0
C      1  0.4738900000000  0.4695490000000  0.4223650000000 1.0
C      1  0.4730500000000  0.5285950000000  0.5797840000000 1.0
C      1  0.5264230000000  0.4712310000000  0.4189180000000 1.0
C      1  0.5255670000000  0.5305530000000  0.5796580000000 1.0
C      1  0.5481600000000  0.5853500000000  0.4575480000000 1.0
C      1  0.5435740000000  0.4159010000000  0.5428160000000 1.0
C      1  0.4557540000000  0.5839360000000  0.4575290000000 1.0
C      1  0.4519660000000  0.4142370000000  0.5426310000000 1.0
C      1  0.5447310000000  0.4186130000000  0.4577620000000 1.0
C      1  0.5492840000000  0.5833360000000  0.5407200000000 1.0
C      1  0.4514790000000  0.4154200000000  0.4585170000000 1.0
C      1  0.4541520000000  0.5822910000000  0.5421900000000 1.0
C      1  0.4213540000000  0.5629060000000  0.4866760000000 1.0
C      1  0.4227680000000  0.4369960000000  0.5116900000000 1.0
C      1  0.5771260000000  0.5629760000000  0.4886340000000 1.0
C      1  0.5746600000000  0.4374070000000  0.5104190000000 1.0
C      1  0.4171100000000  0.4425110000000  0.4853520000000 1.0
C      1  0.4241260000000  0.5615930000000  0.5131110000000 1.0
C      1  0.5807390000000  0.4425340000000  0.4838040000000 1.0
C      1  0.5818980000000  0.5564580000000  0.5153880000000 1.0
C      1  0.4863510000000  0.4411670000000  0.5739830000000 1.0
C      1  0.4849150000000  0.5578080000000  0.4227130000000 1.0
C      1  0.5145300000000  0.4425950000000  0.5768550000000 1.0
C      1  0.5128750000000  0.5606520000000  0.4255680000000 1.0
C      1  0.4841750000000  0.5603050000000  0.5789980000000 1.0
C      1  0.4864980000000  0.4378540000000  0.4250660000000 1.0
C      1  0.5118330000000  0.5626590000000  0.5745830000000 1.0
C      1  0.5143920000000  0.4399050000000  0.4214720000000 1.0
C      1  0.4502030000000  0.4003090000000  0.4843410000000 1.0
C      1  0.4514530000000  0.6002620000000  0.5155930000000 1.0
C      1  0.5493740000000  0.4007190000000  0.4853570000000 1.0
C      1  0.5502040000000  0.5991170000000  0.5148780000000 1.0
C      1  0.4512000000000  0.6006760000000  0.4854610000000 1.0
C      1  0.4504510000000  0.3997510000000  0.5163370000000 1.0
C      1  0.5496760000000  0.5998570000000  0.4834980000000 1.0
C      1  0.5491320000000  0.3991760000000  0.5154950000000 1.0
C      1  0.5276880000000  0.5190570000000  0.5286090000000 1.0
C      1  0.5281600000000  0.4804560000000  0.4724750000000 1.0
C      1  0.4733230000000  0.5191480000000  0.5271120000000 1.0
C      1  0.4756460000000  0.4833620000000  0.4770750000000 1.0
C      1  0.5135010000000  0.4923840000000  0.5216680000000 1.0
C      1  0.5168250000000  0.5097850000000  0.4771100000000 1.0
C      1  0.4843300000000  0.4911600000000  0.5165070000000 1.0
C      1  0.4870080000000  0.5098430000000  0.4800460000000 1.0
C      1  0.5142980000000  0.4856510000000  0.3977820000000 1.0
C      1  0.5138360000000  0.5147940000000  0.6020730000000 1.0
C      1  0.4856590000000  0.4847800000000  0.3988750000000 1.0
C      1  0.4847480000000  0.5139000000000  0.6023260000000 1.0
C      1  0.5135110000000  0.5147730000000  0.3996280000000 1.0
C      1  0.5137450000000  0.4855460000000  0.5996070000000 1.0
C      1  0.4850230000000  0.5137450000000  0.4002870000000 1.0
C      1  0.4860130000000  0.4853340000000  0.5987940000000 1.0
END
