TITL C-2441160-1326-1498 0.0536747657496504 125000 -16584.7810586585 0 0 119 (C1) n - 1
REM
REM in /home/bkarasulu/work/CARBON/AIRSS/Generating-Clusters/ReaxFF-fromJPCA2015/Units_Real/with-SteepDescent/Higher-Symm
REM
REM
REM
REM
REM
REM ./C.cell (1df0a924f5614ab8850e4351716899ee)
REM
REM compiler GCC version 9.2.1 20190827 (Red Hat 9.2.1-1)
REM options -cpp -mtune=generic -march=x86-64 -g -O0 -fpre-include=/usr/include/finclude/math-vector-fortran.h
REM seed -2006899633 -723284149 -193197145 870321316 1608525755 -27643682 1794297564 1857707236 150654420 1661237798 -826328901 -461319486 141816769 412814561 1057024826 -987343142 1057596916 -1643996103 -1087748713 542669538 -1312438868 -977837237 -1146148122 -2041420553 -1617737476 568307465 92595994 326065799 -37695860 -653463989 1245278079 -1413024897 1793940105
REM
CELL 1.54180   50.00000   50.00000   50.00000   90.00000   90.00000   90.00000
LATT -1
SFAC C  
C      1  0.4309420000000  0.4712930000000  0.5271440000000 1.0
C      1  0.4767850000000  0.5042990000000  0.5148300000000 1.0
C      1  0.4406860000000  0.5143320000000  0.4959910000000 1.0
C      1  0.5377140000000  0.4444040000000  0.5629150000000 1.0
C      1  0.5266980000000  0.5548990000000  0.4861780000000 1.0
C      1  0.4236310000000  0.5276980000000  0.4597990000000 1.0
C      1  0.5658110000000  0.5325720000000  0.5109830000000 1.0
C      1  0.4540560000000  0.5690260000000  0.4767810000000 1.0
C      1  0.5601260000000  0.5626450000000  0.5471360000000 1.0
C      1  0.4663260000000  0.4895570000000  0.4103530000000 1.0
C      1  0.4409250000000  0.4851250000000  0.5531030000000 1.0
C      1  0.5101430000000  0.4809770000000  0.5853530000000 1.0
C      1  0.4027250000000  0.5114160000000  0.5203590000000 1.0
C      1  0.4818230000000  0.5763990000000  0.4756590000000 1.0
C      1  0.4878300000000  0.4949940000000  0.5384770000000 1.0
C      1  0.5776020000000  0.5281130000000  0.5363380000000 1.0
C      1  0.5688920000000  0.5002810000000  0.5392940000000 1.0
C      1  0.4632920000000  0.4728190000000  0.4888130000000 1.0
C      1  0.4417680000000  0.5580560000000  0.5015510000000 1.0
C      1  0.4787630000000  0.5928710000000  0.5044600000000 1.0
C      1  0.4070220000000  0.4828960000000  0.5109100000000 1.0
C      1  0.4852270000000  0.4516870000000  0.4110160000000 1.0
C      1  0.5257380000000  0.4364910000000  0.4347690000000 1.0
C      1  0.4802860000000  0.4174170000000  0.5279610000000 1.0
C      1  0.4880420000000  0.4115130000000  0.4985580000000 1.0
C      1  0.5376120000000  0.5413760000000  0.5089700000000 1.0
C      1  0.4962080000000  0.5257390000000  0.4082280000000 1.0
C      1  0.4851170000000  0.5180880000000  0.5537110000000 1.0
C      1  0.4583100000000  0.5768990000000  0.5173530000000 1.0
C      1  0.4504270000000  0.4249440000000  0.5340030000000 1.0
C      1  0.5661690000000  0.5384090000000  0.5583270000000 1.0
C      1  0.5304720000000  0.4186670000000  0.4717620000000 1.0
C      1  0.5364260000000  0.4953880000000  0.4455470000000 1.0
C      1  0.4372690000000  0.5130030000000  0.5494230000000 1.0
C      1  0.5192060000000  0.4210020000000  0.4982230000000 1.0
C      1  0.4603270000000  0.4762470000000  0.5740140000000 1.0
C      1  0.4910160000000  0.5215880000000  0.4719210000000 1.0
C      1  0.4620340000000  0.4470540000000  0.5457800000000 1.0
C      1  0.4838640000000  0.4482770000000  0.5277870000000 1.0
C      1  0.5134300000000  0.4524330000000  0.4128670000000 1.0
C      1  0.4936370000000  0.4361500000000  0.5724560000000 1.0
C      1  0.5107550000000  0.5316650000000  0.5179310000000 1.0
C      1  0.4323550000000  0.5101990000000  0.4376030000000 1.0
C      1  0.5364750000000  0.5160690000000  0.4666830000000 1.0
C      1  0.5677890000000  0.4460900000000  0.4621630000000 1.0
C      1  0.4332260000000  0.5515380000000  0.4734380000000 1.0
C      1  0.5814280000000  0.5222300000000  0.4631810000000 1.0
C      1  0.4534160000000  0.4904790000000  0.5082210000000 1.0
C      1  0.4910700000000  0.4480070000000  0.4582150000000 1.0
C      1  0.4679790000000  0.5639610000000  0.5428640000000 1.0
C      1  0.4998520000000  0.5123760000000  0.4989030000000 1.0
C      1  0.4825580000000  0.4903170000000  0.5859410000000 1.0
C      1  0.5354620000000  0.4954970000000  0.5823850000000 1.0
C      1  0.4595410000000  0.4605110000000  0.4190090000000 1.0
C      1  0.5322240000000  0.5047500000000  0.4182270000000 1.0
C      1  0.5054100000000  0.4730590000000  0.4623790000000 1.0
C      1  0.4874410000000  0.5387880000000  0.5349180000000 1.0
C      1  0.5377300000000  0.5286530000000  0.5553060000000 1.0
C      1  0.5624170000000  0.4792850000000  0.4437730000000 1.0
C      1  0.5274090000000  0.5235200000000  0.5825290000000 1.0
C      1  0.4637150000000  0.4473810000000  0.4462700000000 1.0
C      1  0.5093260000000  0.4610140000000  0.5246150000000 1.0
C      1  0.5003740000000  0.4176920000000  0.5519140000000 1.0
C      1  0.5150290000000  0.5811380000000  0.5623310000000 1.0
C      1  0.5452560000000  0.5616490000000  0.4486820000000 1.0
C      1  0.4748610000000  0.4162630000000  0.4747380000000 1.0
C      1  0.5517640000000  0.4500990000000  0.4408860000000 1.0
C      1  0.5592330000000  0.4868200000000  0.5667960000000 1.0
C      1  0.5558410000000  0.5839580000000  0.4960800000000 1.0
C      1  0.4281160000000  0.5267360000000  0.5222810000000 1.0
C      1  0.4708930000000  0.5382970000000  0.4169350000000 1.0
C      1  0.5601270000000  0.4604850000000  0.5551000000000 1.0
C      1  0.4477360000000  0.5287660000000  0.5720100000000 1.0
C      1  0.5387630000000  0.4182460000000  0.5208790000000 1.0
C      1  0.5770100000000  0.4809480000000  0.5165350000000 1.0
C      1  0.5238500000000  0.4727980000000  0.4836930000000 1.0
C      1  0.4726220000000  0.5618010000000  0.4321300000000 1.0
C      1  0.5662030000000  0.4884440000000  0.4906320000000 1.0
C      1  0.5393640000000  0.5780650000000  0.4722140000000 1.0
C      1  0.5378110000000  0.4981930000000  0.4898800000000 1.0
C      1  0.4932770000000  0.4970410000000  0.4025510000000 1.0
C      1  0.5562550000000  0.5351840000000  0.4562740000000 1.0
C      1  0.4667080000000  0.4893480000000  0.4635190000000 1.0
C      1  0.4530820000000  0.5142440000000  0.4178030000000 1.0
C      1  0.4872350000000  0.5775460000000  0.5594270000000 1.0
C      1  0.5609250000000  0.4327100000000  0.5110500000000 1.0
C      1  0.5017330000000  0.5353100000000  0.5880950000000 1.0
C      1  0.4364430000000  0.4434820000000  0.5167250000000 1.0
C      1  0.4943950000000  0.5692180000000  0.4461210000000 1.0
C      1  0.5570200000000  0.4294760000000  0.4813120000000 1.0
C      1  0.5216620000000  0.5327940000000  0.4182400000000 1.0
C      1  0.5150640000000  0.4540340000000  0.5771910000000 1.0
C      1  0.5340960000000  0.5878090000000  0.5170210000000 1.0
C      1  0.4394230000000  0.4831210000000  0.4461550000000 1.0
C      1  0.5705290000000  0.4553510000000  0.5272030000000 1.0
C      1  0.5054980000000  0.5829180000000  0.5110930000000 1.0
C      1  0.5394130000000  0.5821570000000  0.5450270000000 1.0
C      1  0.4958010000000  0.4991670000000  0.4539970000000 1.0
C      1  0.5753970000000  0.5646360000000  0.4878330000000 1.0
C      1  0.4091850000000  0.4807080000000  0.4814030000000 1.0
C      1  0.4424770000000  0.5544490000000  0.5625060000000 1.0
C      1  0.4780010000000  0.5189480000000  0.5828650000000 1.0
C      1  0.4154810000000  0.5090230000000  0.4798040000000 1.0
C      1  0.5197600000000  0.5560560000000  0.4364790000000 1.0
C      1  0.4629390000000  0.5172570000000  0.4732220000000 1.0
C      1  0.5020250000000  0.5591780000000  0.5734200000000 1.0
C      1  0.5088570000000  0.4257130000000  0.4550080000000 1.0
C      1  0.5002340000000  0.5611710000000  0.4916960000000 1.0
C      1  0.5789520000000  0.4929470000000  0.4642400000000 1.0
C      1  0.5213410000000  0.4510160000000  0.5016460000000 1.0
C      1  0.5850380000000  0.5377860000000  0.4885880000000 1.0
C      1  0.5152580000000  0.4879200000000  0.5332210000000 1.0
C      1  0.4675790000000  0.4482320000000  0.5720940000000 1.0
C      1  0.4247000000000  0.4642550000000  0.4622610000000 1.0
C      1  0.4516150000000  0.4473220000000  0.4920350000000 1.0
C      1  0.4424300000000  0.4400270000000  0.4647320000000 1.0
C      1  0.5177930000000  0.4820520000000  0.4064160000000 1.0
C      1  0.5282550000000  0.4218990000000  0.5472450000000 1.0
C      1  0.5373170000000  0.5056630000000  0.5371110000000 1.0
END
