TITL C-2441156-4686-616 0.0269325976100084 125000 -20586.4390489563 0 0 142 (C1) n - 1
REM
REM in /home/bkarasulu/work/CARBON/AIRSS/Generating-Clusters/ReaxFF-fromJPCA2015/Units_Real/with-SteepDescent/Higher-Symm
REM
REM
REM
REM
REM
REM ./C.cell (1df0a924f5614ab8850e4351716899ee)
REM
REM compiler GCC version 9.2.1 20190827 (Red Hat 9.2.1-1)
REM options -cpp -mtune=generic -march=x86-64 -g -O0 -fpre-include=/usr/include/finclude/math-vector-fortran.h
REM seed 345751919 819603829 501814922 -1894182139 26716027 922449538 694665051 -1760920773 2056816581 -2018927897 -87739521 1082679598 612306983 64979101 806200786 1421431577 -498915977 635572351 55109133 922537645 -1349405404 1400617725 -1489645383 1157118775 1751905310 -1514138902 -1306728987 -506990154 -953408850 -1062394308 -164901157 856177178 -47493035
REM
CELL 1.54180   50.00000   50.00000   50.00000   90.00000   90.00000   90.00000
LATT -1
SFAC C  
C      1  0.4731630000000  0.5519040000000  0.5772740000000 1.0
C      1  0.5176490000000  0.4474290000000  0.5816440000000 1.0
C      1  0.5666370000000  0.5505510000000  0.5513730000000 1.0
C      1  0.5737660000000  0.4414850000000  0.5045370000000 1.0
C      1  0.5647510000000  0.5563000000000  0.4576950000000 1.0
C      1  0.5242110000000  0.4444800000000  0.4274890000000 1.0
C      1  0.4740430000000  0.5430690000000  0.4114150000000 1.0
C      1  0.4278490000000  0.4562200000000  0.4539560000000 1.0
C      1  0.4181080000000  0.5543460000000  0.4962450000000 1.0
C      1  0.4317440000000  0.4466010000000  0.5415010000000 1.0
C      1  0.4682510000000  0.4958760000000  0.4122930000000 1.0
C      1  0.4268110000000  0.5052090000000  0.4395950000000 1.0
C      1  0.4093980000000  0.4995770000000  0.4820790000000 1.0
C      1  0.4236890000000  0.4996680000000  0.5565440000000 1.0
C      1  0.4634620000000  0.5048830000000  0.5881950000000 1.0
C      1  0.5353160000000  0.5014480000000  0.5908620000000 1.0
C      1  0.5804360000000  0.5028430000000  0.5526160000000 1.0
C      1  0.5942920000000  0.5027080000000  0.5004800000000 1.0
C      1  0.5772500000000  0.5013740000000  0.4475360000000 1.0
C      1  0.5371850000000  0.4926490000000  0.4124550000000 1.0
C      1  0.5665730000000  0.4744460000000  0.5880040000000 1.0
C      1  0.5998350000000  0.5376260000000  0.5442520000000 1.0
C      1  0.6012310000000  0.4744130000000  0.4695210000000 1.0
C      1  0.5651130000000  0.5309200000000  0.4108970000000 1.0
C      1  0.4901840000000  0.4952780000000  0.3912770000000 1.0
C      1  0.4487380000000  0.5318280000000  0.3999600000000 1.0
C      1  0.4090610000000  0.4717410000000  0.4739300000000 1.0
C      1  0.3966930000000  0.5154860000000  0.5285010000000 1.0
C      1  0.4351760000000  0.4662560000000  0.5892270000000 1.0
C      1  0.5045870000000  0.5122560000000  0.6070970000000 1.0
C      1  0.5171900000000  0.4165820000000  0.5416660000000 1.0
C      1  0.5431970000000  0.5782840000000  0.5147700000000 1.0
C      1  0.5433150000000  0.4066210000000  0.4841610000000 1.0
C      1  0.5269630000000  0.5900830000000  0.4580290000000 1.0
C      1  0.5024540000000  0.4073910000000  0.4551320000000 1.0
C      1  0.4765840000000  0.5925300000000  0.4590410000000 1.0
C      1  0.4663260000000  0.4124320000000  0.4993850000000 1.0
C      1  0.4512150000000  0.5850130000000  0.5177230000000 1.0
C      1  0.4658620000000  0.4124860000000  0.5414910000000 1.0
C      1  0.4992360000000  0.5824640000000  0.5502670000000 1.0
C      1  0.4088570000000  0.5180700000000  0.4594700000000 1.0
C      1  0.4046830000000  0.4890480000000  0.5373800000000 1.0
C      1  0.4351690000000  0.4947840000000  0.5843220000000 1.0
C      1  0.4848900000000  0.4901820000000  0.6016710000000 1.0
C      1  0.5680430000000  0.5022840000000  0.5801530000000 1.0
C      1  0.5991980000000  0.5126440000000  0.5312430000000 1.0
C      1  0.5980810000000  0.5044810000000  0.4704450000000 1.0
C      1  0.5656390000000  0.5032700000000  0.4193340000000 1.0
C      1  0.5163600000000  0.5070410000000  0.3976740000000 1.0
C      1  0.4399400000000  0.5057680000000  0.4131620000000 1.0
C      1  0.5747970000000  0.5380430000000  0.4779200000000 1.0
C      1  0.5463030000000  0.4610390000000  0.4381570000000 1.0
C      1  0.5050910000000  0.5316960000000  0.4147150000000 1.0
C      1  0.4524480000000  0.4641400000000  0.4409640000000 1.0
C      1  0.4200940000000  0.5440420000000  0.4685280000000 1.0
C      1  0.4213120000000  0.4643890000000  0.5215700000000 1.0
C      1  0.4523350000000  0.5365770000000  0.5630550000000 1.0
C      1  0.4926760000000  0.4644610000000  0.5835320000000 1.0
C      1  0.5462720000000  0.5338290000000  0.5661160000000 1.0
C      1  0.5685830000000  0.4584320000000  0.5272400000000 1.0
C      1  0.4730830000000  0.5764480000000  0.5618200000000 1.0
C      1  0.5096000000000  0.4228450000000  0.5691770000000 1.0
C      1  0.5489910000000  0.5743630000000  0.5433560000000 1.0
C      1  0.5565170000000  0.4182700000000  0.5080790000000 1.0
C      1  0.5541570000000  0.5813630000000  0.4676220000000 1.0
C      1  0.5255180000000  0.4178770000000  0.4407250000000 1.0
C      1  0.4835530000000  0.5723070000000  0.4397910000000 1.0
C      1  0.4534440000000  0.4164360000000  0.4728680000000 1.0
C      1  0.4341220000000  0.5782500000000  0.4953670000000 1.0
C      1  0.4379190000000  0.4177900000000  0.5367240000000 1.0
C      1  0.4306920000000  0.4352580000000  0.4743110000000 1.0
C      1  0.4190180000000  0.5367560000000  0.5209190000000 1.0
C      1  0.4484050000000  0.4604110000000  0.5591370000000 1.0
C      1  0.4982550000000  0.5370030000000  0.5831220000000 1.0
C      1  0.5426010000000  0.4597300000000  0.5708520000000 1.0
C      1  0.5625140000000  0.5400920000000  0.5242970000000 1.0
C      1  0.5780330000000  0.4559160000000  0.4780750000000 1.0
C      1  0.5496320000000  0.5397690000000  0.4375310000000 1.0
C      1  0.5000960000000  0.4595890000000  0.4269100000000 1.0
C      1  0.4664840000000  0.5467400000000  0.4397020000000 1.0
C      1  0.4674170000000  0.5150800000000  0.5447130000000 1.0
C      1  0.4990970000000  0.4853010000000  0.5566070000000 1.0
C      1  0.5331790000000  0.5143440000000  0.5472750000000 1.0
C      1  0.5543940000000  0.4837310000000  0.5180640000000 1.0
C      1  0.5546640000000  0.5146160000000  0.4841780000000 1.0
C      1  0.5337400000000  0.4842010000000  0.4543080000000 1.0
C      1  0.5022310000000  0.5145750000000  0.4413990000000 1.0
C      1  0.4669460000000  0.4881380000000  0.4548220000000 1.0
C      1  0.4493550000000  0.5190680000000  0.4844920000000 1.0
C      1  0.4444590000000  0.4840140000000  0.5161510000000 1.0
C      1  0.4419260000000  0.4065000000000  0.5106920000000 1.0
C      1  0.4484810000000  0.5758020000000  0.5453240000000 1.0
C      1  0.4798500000000  0.4225110000000  0.5638410000000 1.0
C      1  0.5253670000000  0.5745120000000  0.5604640000000 1.0
C      1  0.5455660000000  0.4197360000000  0.5353430000000 1.0
C      1  0.5641400000000  0.5797300000000  0.4949060000000 1.0
C      1  0.5490980000000  0.4183840000000  0.4577810000000 1.0
C      1  0.5131130000000  0.5728390000000  0.4384130000000 1.0
C      1  0.4766820000000  0.4247990000000  0.4552680000000 1.0
C      1  0.4510070000000  0.5779660000000  0.4703830000000 1.0
C      1  0.5136430000000  0.5214600000000  0.5209720000000 1.0
C      1  0.5229500000000  0.4777500000000  0.5119730000000 1.0
C      1  0.5243460000000  0.5205710000000  0.4941900000000 1.0
C      1  0.5154520000000  0.4784840000000  0.4788560000000 1.0
C      1  0.5055490000000  0.5272010000000  0.4728310000000 1.0
C      1  0.4845630000000  0.4776480000000  0.4806440000000 1.0
C      1  0.4755250000000  0.5277500000000  0.4931100000000 1.0
C      1  0.4751730000000  0.4738230000000  0.5096920000000 1.0
C      1  0.4859350000000  0.5223990000000  0.5203860000000 1.0
C      1  0.4976960000000  0.4789500000000  0.5273780000000 1.0
C      1  0.4301510000000  0.5079140000000  0.5026340000000 1.0
C      1  0.4490280000000  0.4910500000000  0.5430190000000 1.0
C      1  0.4842260000000  0.5099580000000  0.5665870000000 1.0
C      1  0.5267870000000  0.4901820000000  0.5632650000000 1.0
C      1  0.5583080000000  0.5106420000000  0.5327200000000 1.0
C      1  0.5686410000000  0.4909100000000  0.4949570000000 1.0
C      1  0.5504980000000  0.5089930000000  0.4565080000000 1.0
C      1  0.5150060000000  0.4883060000000  0.4331590000000 1.0
C      1  0.4760660000000  0.5088130000000  0.4375490000000 1.0
C      1  0.4452600000000  0.5030150000000  0.4617600000000 1.0
C      1  0.5173390000000  0.4492050000000  0.4791170000000 1.0
C      1  0.5065030000000  0.5558610000000  0.4804960000000 1.0
C      1  0.4879930000000  0.4460790000000  0.4792810000000 1.0
C      1  0.4775780000000  0.5576700000000  0.4867080000000 1.0
C      1  0.4811520000000  0.4392600000000  0.5071240000000 1.0
C      1  0.4754010000000  0.5741230000000  0.5087710000000 1.0
C      1  0.5055310000000  0.4341420000000  0.5218000000000 1.0
C      1  0.4982650000000  0.5747040000000  0.5226900000000 1.0
C      1  0.5248810000000  0.4484100000000  0.5065370000000 1.0
C      1  0.5184230000000  0.5675690000000  0.5047220000000 1.0
C      1  0.4347670000000  0.5502090000000  0.5449690000000 1.0
C      1  0.4696040000000  0.4482570000000  0.5739970000000 1.0
C      1  0.5241180000000  0.5496270000000  0.5758100000000 1.0
C      1  0.5555360000000  0.4439680000000  0.5481960000000 1.0
C      1  0.5756000000000  0.5533670000000  0.5023710000000 1.0
C      1  0.5624640000000  0.4441640000000  0.4550420000000 1.0
C      1  0.5251470000000  0.5510640000000  0.4249230000000 1.0
C      1  0.4749380000000  0.4475880000000  0.4338170000000 1.0
C      1  0.4411030000000  0.5564680000000  0.4530060000000 1.0
C      1  0.4151990000000  0.4519810000000  0.4937400000000 1.0
C      1  0.5024660000000  0.6031390000000  0.4694760000000 1.0
C      1  0.5148280000000  0.3972940000000  0.4801560000000 1.0
END
