TITL C-2441159-1093-543 0.000964975588348975 125000 -2641.30276970241 0 0 20 (C5v) n - 1
REM
REM in /home/bkarasulu/work/CARBON/AIRSS/Generating-Clusters/ReaxFF-fromJPCA2015/Units_Real/with-SteepDescent/Higher-Symm
REM
REM
REM
REM
REM
REM ./C.cell (1df0a924f5614ab8850e4351716899ee)
REM
REM compiler GCC version 9.2.1 20190827 (Red Hat 9.2.1-1)
REM options -cpp -mtune=generic -march=x86-64 -g -O0 -fpre-include=/usr/include/finclude/math-vector-fortran.h
REM seed -961917924 2117459428 289958534 1253678934 -1238403527 -5896160 452489434 -1006793890 -136460192 -1348539999 -2026412869 -579148351 -2018148447 1032273055 627714769 -165377289 1906328767 1422829282 -1221363210 1834803951 1059669042 1420014176 86300629 228118263 152077732 -281940522 -289677838 -1195749878 1972454314 -1686891745 -2095559591 695432363 -2014212158
REM
CELL 1.54180   50.00000   50.00000   50.00000   90.00000   90.00000   90.00000
LATT -1
SFAC C  
C      1  0.4101150000000  0.4794930000000  0.4783590000000 1.0
C      1  0.4928090000000  0.4794910000000  0.4078280000000 1.0
C      1  0.5854370000000  0.4794920000000  0.4646740000000 1.0
C      1  0.5599980000000  0.4794930000000  0.5703410000000 1.0
C      1  0.4516400000000  0.4794930000000  0.5787980000000 1.0
C      1  0.5476020000000  0.4937200000000  0.5558080000000 1.0
C      1  0.4616320000000  0.4937190000000  0.5625180000000 1.0
C      1  0.4286860000000  0.4937190000000  0.4828300000000 1.0
C      1  0.4942950000000  0.4937190000000  0.4268710000000 1.0
C      1  0.5677860000000  0.4937190000000  0.4719730000000 1.0
C      1  0.5027990000000  0.5138700000000  0.5358710000000 1.0
C      1  0.4667500000000  0.5138690000000  0.5137470000000 1.0
C      1  0.4766510000000  0.5138690000000  0.4726250000000 1.0
C      1  0.5188190000000  0.5138700000000  0.4693350000000 1.0
C      1  0.5349800000000  0.5138700000000  0.5084230000000 1.0
C      1  0.4751160000000  0.5129180000000  0.5405480000000 1.0
C      1  0.4537480000000  0.5129180000000  0.4888640000000 1.0
C      1  0.4962990000000  0.5129190000000  0.4525690000000 1.0
C      1  0.5439650000000  0.5129190000000  0.4818230000000 1.0
C      1  0.5308730000000  0.5129190000000  0.5361960000000 1.0
END
