TITL C-2441164-471-1141 0.0280046936364584 125000 -9312.38222953544 0 0 69 (C1) n - 1
REM
REM in /home/bkarasulu/work/CARBON/AIRSS/Generating-Clusters/ReaxFF-fromJPCA2015/Units_Real/with-SteepDescent/Higher-Symm
REM
REM
REM
REM
REM
REM ./C.cell (1df0a924f5614ab8850e4351716899ee)
REM
REM compiler GCC version 9.2.1 20190827 (Red Hat 9.2.1-1)
REM options -cpp -mtune=generic -march=x86-64 -g -O0 -fpre-include=/usr/include/finclude/math-vector-fortran.h
REM seed -476577164 -970521657 1138884269 -314871626 242308131 -1640185446 1596745276 1175922855 392644687 173208381 692577205 482331 -280675914 -2063446847 910402179 -1722342361 1330092392 -29567706 194774506 124278309 -1638476559 -1280703062 -984372368 760188769 232716767 2145783952 -1480049247 628551850 -118920985 -1362277551 281162848 1510936339 -178511804
REM
CELL 1.54180   50.00000   50.00000   50.00000   90.00000   90.00000   90.00000
LATT -1
SFAC C  
C      1  0.5508150000000  0.5186750000000  0.4695410000000 1.0
C      1  0.5195710000000  0.4642410000000  0.5520900000000 1.0
C      1  0.4671400000000  0.5515430000000  0.5194050000000 1.0
C      1  0.4444390000000  0.4813060000000  0.4629420000000 1.0
C      1  0.5523730000000  0.4806810000000  0.5349660000000 1.0
C      1  0.4499070000000  0.5175530000000  0.5311300000000 1.0
C      1  0.4827770000000  0.5320770000000  0.5506180000000 1.0
C      1  0.5178830000000  0.5305970000000  0.4503700000000 1.0
C      1  0.4784000000000  0.4647600000000  0.4454000000000 1.0
C      1  0.5350530000000  0.4484490000000  0.5187590000000 1.0
C      1  0.4650770000000  0.4469110000000  0.4816150000000 1.0
C      1  0.5304250000000  0.5506810000000  0.4834230000000 1.0
C      1  0.5523160000000  0.5203190000000  0.5342850000000 1.0
C      1  0.5175520000000  0.4659990000000  0.4495130000000 1.0
C      1  0.4625590000000  0.5546580000000  0.4807090000000 1.0
C      1  0.4496200000000  0.4830910000000  0.5324510000000 1.0
C      1  0.5499510000000  0.4811440000000  0.4673840000000 1.0
C      1  0.4447300000000  0.5208140000000  0.4644170000000 1.0
C      1  0.4802210000000  0.5345810000000  0.4467460000000 1.0
C      1  0.5181220000000  0.5316300000000  0.5519670000000 1.0
C      1  0.4801360000000  0.4669900000000  0.5523180000000 1.0
C      1  0.5332750000000  0.4477380000000  0.4812330000000 1.0
C      1  0.4685170000000  0.4498170000000  0.5183310000000 1.0
C      1  0.5326590000000  0.5513870000000  0.5167530000000 1.0
C      1  0.5697720000000  0.5279470000000  0.4879880000000 1.0
C      1  0.5147520000000  0.4851030000000  0.5719510000000 1.0
C      1  0.4863670000000  0.5716190000000  0.5148830000000 1.0
C      1  0.4273870000000  0.4851960000000  0.4856540000000 1.0
C      1  0.5716560000000  0.4859260000000  0.5138330000000 1.0
C      1  0.4294510000000  0.5270530000000  0.5122160000000 1.0
C      1  0.4727650000000  0.5120970000000  0.5693640000000 1.0
C      1  0.5272340000000  0.5116050000000  0.4313770000000 1.0
C      1  0.4844830000000  0.4865660000000  0.4279810000000 1.0
C      1  0.5144320000000  0.4281720000000  0.5152460000000 1.0
C      1  0.4873350000000  0.4302670000000  0.4734910000000 1.0
C      1  0.5109600000000  0.5700040000000  0.4722600000000 1.0
C      1  0.5722480000000  0.5160500000000  0.5141970000000 1.0
C      1  0.5150840000000  0.4856090000000  0.4292920000000 1.0
C      1  0.4851110000000  0.5720330000000  0.4841890000000 1.0
C      1  0.4305010000000  0.4739040000000  0.5117930000000 1.0
C      1  0.5690130000000  0.4741390000000  0.4877540000000 1.0
C      1  0.4267900000000  0.5157990000000  0.4860580000000 1.0
C      1  0.4727220000000  0.5126500000000  0.4298440000000 1.0
C      1  0.5268660000000  0.5110780000000  0.5705160000000 1.0
C      1  0.4843710000000  0.4859100000000  0.5718890000000 1.0
C      1  0.5134300000000  0.4275440000000  0.4850690000000 1.0
C      1  0.4881330000000  0.4302260000000  0.5265920000000 1.0
C      1  0.5121370000000  0.5693580000000  0.5272240000000 1.0
C      1  0.4982460000000  0.4437820000000  0.4500340000000 1.0
C      1  0.4437770000000  0.4505140000000  0.5020670000000 1.0
C      1  0.5500400000000  0.5008560000000  0.4457610000000 1.0
C      1  0.4499900000000  0.5015760000000  0.5555550000000 1.0
C      1  0.5012550000000  0.5550670000000  0.4496690000000 1.0
C      1  0.4981380000000  0.4438790000000  0.5502200000000 1.0
C      1  0.5561620000000  0.5508840000000  0.4984120000000 1.0
C      1  0.4429390000000  0.5506440000000  0.5022770000000 1.0
C      1  0.5564120000000  0.4503160000000  0.4988130000000 1.0
C      1  0.5016030000000  0.5555580000000  0.5499810000000 1.0
C      1  0.4485460000000  0.5019450000000  0.4423500000000 1.0
C      1  0.5501940000000  0.5011760000000  0.5563750000000 1.0
C      1  0.5256750000000  0.4746120000000  0.5251930000000 1.0
C      1  0.5230290000000  0.5223270000000  0.4778510000000 1.0
C      1  0.4702150000000  0.5292300000000  0.4725790000000 1.0
C      1  0.4776370000000  0.4769790000000  0.5254020000000 1.0
C      1  0.4776910000000  0.5248070000000  0.5229680000000 1.0
C      1  0.5228990000000  0.4749570000000  0.4766660000000 1.0
C      1  0.4693260000000  0.4724170000000  0.4704960000000 1.0
C      1  0.5258750000000  0.5237260000000  0.5247540000000 1.0
C      1  0.5065980000000  0.4996520000000  0.5061920000000 1.0
END
