TITL C-2441163-1170-469 0.0877446881313521 125000 -23319.0970644211 0 0 173 (C1) n - 1
REM
REM in /home/bkarasulu/work/CARBON/AIRSS/Generating-Clusters/ReaxFF-fromJPCA2015/Units_Real/with-SteepDescent/Higher-Symm
REM
REM
REM
REM
REM
REM ./C.cell (1df0a924f5614ab8850e4351716899ee)
REM
REM compiler GCC version 9.2.1 20190827 (Red Hat 9.2.1-1)
REM options -cpp -mtune=generic -march=x86-64 -g -O0 -fpre-include=/usr/include/finclude/math-vector-fortran.h
REM seed -46192127 1974572373 -927805671 1521513335 1070171817 -857451641 1368857651 2026173430 1910338096 1010842560 -106675377 -348245232 -1358046118 -767940839 -133922896 -2098750690 -1296644423 -1098996388 -353020137 -577966989 2022272430 -576299370 369644973 -1462438541 -168611908 -372044608 1002781611 -1657495683 1462861638 -1501607939 -2105501092 1315269864 -1894987206
REM
CELL 1.54180   50.00000   50.00000   50.00000   90.00000   90.00000   90.00000
LATT -1
SFAC C  
C      1  0.4150170000000  0.4305280000000  0.4751640000000 1.0
C      1  0.4367280000000  0.4686870000000  0.4144130000000 1.0
C      1  0.4631720000000  0.4159270000000  0.4395120000000 1.0
C      1  0.5851890000000  0.5655170000000  0.4669080000000 1.0
C      1  0.4165370000000  0.5631740000000  0.5336310000000 1.0
C      1  0.5839980000000  0.4362660000000  0.5362540000000 1.0
C      1  0.5620220000000  0.5341300000000  0.4145110000000 1.0
C      1  0.4355560000000  0.5355870000000  0.5827970000000 1.0
C      1  0.5658580000000  0.4694000000000  0.5848810000000 1.0
C      1  0.5310590000000  0.5861090000000  0.4362040000000 1.0
C      1  0.4667570000000  0.5839970000000  0.5610330000000 1.0
C      1  0.5284810000000  0.4128790000000  0.5602720000000 1.0
C      1  0.4399470000000  0.4147810000000  0.4734460000000 1.0
C      1  0.4630880000000  0.4367120000000  0.4163190000000 1.0
C      1  0.4160280000000  0.4690940000000  0.4357710000000 1.0
C      1  0.5665900000000  0.5877240000000  0.4746950000000 1.0
C      1  0.5613430000000  0.4148580000000  0.5361880000000 1.0
C      1  0.4388760000000  0.5855040000000  0.5304570000000 1.0
C      1  0.5333430000000  0.5639270000000  0.4154320000000 1.0
C      1  0.5311000000000  0.4315080000000  0.5836770000000 1.0
C      1  0.4666090000000  0.5637690000000  0.5834350000000 1.0
C      1  0.5828680000000  0.5370190000000  0.4365440000000 1.0
C      1  0.5857000000000  0.4679710000000  0.5627300000000 1.0
C      1  0.4151090000000  0.5331340000000  0.5612840000000 1.0
C      1  0.4730860000000  0.4552850000000  0.4371530000000 1.0
C      1  0.4597660000000  0.4403050000000  0.4818840000000 1.0
C      1  0.4351850000000  0.4764250000000  0.4579750000000 1.0
C      1  0.5272730000000  0.5458840000000  0.4373770000000 1.0
C      1  0.4734180000000  0.5434370000000  0.5629240000000 1.0
C      1  0.5279380000000  0.4535130000000  0.5649830000000 1.0
C      1  0.5445500000000  0.5656450000000  0.4804870000000 1.0
C      1  0.4564180000000  0.5617440000000  0.5254620000000 1.0
C      1  0.5433210000000  0.4357420000000  0.5267960000000 1.0
C      1  0.5626160000000  0.5293020000000  0.4561270000000 1.0
C      1  0.4382710000000  0.5209300000000  0.5397900000000 1.0
C      1  0.5631840000000  0.4733770000000  0.5449850000000 1.0
C      1  0.4553440000000  0.4738260000000  0.4372830000000 1.0
C      1  0.4334880000000  0.4549790000000  0.4783540000000 1.0
C      1  0.4724100000000  0.4370280000000  0.4573060000000 1.0
C      1  0.5425190000000  0.5233010000000  0.4372240000000 1.0
C      1  0.5426570000000  0.4773970000000  0.5654310000000 1.0
C      1  0.4552430000000  0.5261280000000  0.5628840000000 1.0
C      1  0.5650370000000  0.5459440000000  0.4757300000000 1.0
C      1  0.5626080000000  0.4551070000000  0.5271030000000 1.0
C      1  0.4375350000000  0.5443280000000  0.5265980000000 1.0
C      1  0.5286120000000  0.5654670000000  0.4564460000000 1.0
C      1  0.5206910000000  0.4387560000000  0.5418950000000 1.0
C      1  0.4788940000000  0.5622280000000  0.5415120000000 1.0
C      1  0.4797140000000  0.4989820000000  0.5395910000000 1.0
C      1  0.5001440000000  0.5341740000000  0.4746530000000 1.0
C      1  0.5385390000000  0.4734550000000  0.4955510000000 1.0
C      1  0.5288200000000  0.5024150000000  0.5440840000000 1.0
C      1  0.4697440000000  0.5113230000000  0.4469290000000 1.0
C      1  0.5239110000000  0.4876200000000  0.4532030000000 1.0
C      1  0.5109760000000  0.4460510000000  0.4697730000000 1.0
C      1  0.4987960000000  0.4608110000000  0.5244150000000 1.0
C      1  0.5032010000000  0.5396640000000  0.5303980000000 1.0
C      1  0.4520710000000  0.5261350000000  0.4876170000000 1.0
C      1  0.5419070000000  0.5280900000000  0.5066050000000 1.0
C      1  0.4500230000000  0.4760200000000  0.5128370000000 1.0
C      1  0.4902350000000  0.4735020000000  0.5484730000000 1.0
C      1  0.5440040000000  0.4924530000000  0.4734430000000 1.0
C      1  0.4754440000000  0.5428120000000  0.4900690000000 1.0
C      1  0.5132500000000  0.5257130000000  0.5525620000000 1.0
C      1  0.5013900000000  0.4722900000000  0.4620240000000 1.0
C      1  0.4905480000000  0.5286000000000  0.4481010000000 1.0
C      1  0.4576210000000  0.5017870000000  0.4721260000000 1.0
C      1  0.4523250000000  0.4962810000000  0.5307470000000 1.0
C      1  0.5509810000000  0.5111350000000  0.5278040000000 1.0
C      1  0.5310700000000  0.4465470000000  0.4881380000000 1.0
C      1  0.5239860000000  0.5489020000000  0.5139880000000 1.0
C      1  0.4733760000000  0.4622940000000  0.5017800000000 1.0
C      1  0.4215500000000  0.4626140000000  0.5512440000000 1.0
C      1  0.4609500000000  0.5564510000000  0.4242920000000 1.0
C      1  0.5576870000000  0.4238770000000  0.4613410000000 1.0
C      1  0.5770030000000  0.5364550000000  0.5575310000000 1.0
C      1  0.4215530000000  0.5373030000000  0.4442730000000 1.0
C      1  0.5757580000000  0.4680590000000  0.4444420000000 1.0
C      1  0.5376670000000  0.4476630000000  0.4216400000000 1.0
C      1  0.4629320000000  0.4444500000000  0.5753930000000 1.0
C      1  0.5358470000000  0.5599630000000  0.5739030000000 1.0
C      1  0.4431820000000  0.5774390000000  0.4683870000000 1.0
C      1  0.5600690000000  0.5783210000000  0.5303180000000 1.0
C      1  0.4435880000000  0.4212360000000  0.5356470000000 1.0
C      1  0.4629590000000  0.4219140000000  0.5567080000000 1.0
C      1  0.5560920000000  0.4705710000000  0.4231450000000 1.0
C      1  0.4230420000000  0.5557820000000  0.4659670000000 1.0
C      1  0.5381020000000  0.5789930000000  0.5516280000000 1.0
C      1  0.5380580000000  0.4257130000000  0.4411640000000 1.0
C      1  0.4624200000000  0.5771070000000  0.4446530000000 1.0
C      1  0.4409710000000  0.5361700000000  0.4219970000000 1.0
C      1  0.4422340000000  0.4644040000000  0.5734350000000 1.0
C      1  0.5553810000000  0.5387560000000  0.5775400000000 1.0
C      1  0.5765170000000  0.4459740000000  0.4633470000000 1.0
C      1  0.5779740000000  0.5548890000000  0.5356100000000 1.0
C      1  0.4219750000000  0.4412490000000  0.5300900000000 1.0
C      1  0.5019500000000  0.3993600000000  0.4781010000000 1.0
C      1  0.4017890000000  0.4807460000000  0.4967910000000 1.0
C      1  0.4791090000000  0.4990840000000  0.3984000000000 1.0
C      1  0.4993820000000  0.5992850000000  0.4775430000000 1.0
C      1  0.5027810000000  0.6013320000000  0.5194090000000 1.0
C      1  0.5003760000000  0.3982040000000  0.5192910000000 1.0
C      1  0.6002740000000  0.5203520000000  0.5014210000000 1.0
C      1  0.4016030000000  0.5213050000000  0.5004280000000 1.0
C      1  0.5962410000000  0.4791600000000  0.4983130000000 1.0
C      1  0.5197130000000  0.5007350000000  0.4022680000000 1.0
C      1  0.4783670000000  0.4976230000000  0.5975820000000 1.0
C      1  0.5208870000000  0.5030950000000  0.5996380000000 1.0
C      1  0.4002770000000  0.5038130000000  0.4783250000000 1.0
C      1  0.4803000000000  0.3986700000000  0.4990640000000 1.0
C      1  0.5011980000000  0.4784640000000  0.4002870000000 1.0
C      1  0.5962950000000  0.4997550000000  0.4793930000000 1.0
C      1  0.5997500000000  0.4988490000000  0.5201300000000 1.0
C      1  0.4003640000000  0.4983220000000  0.5194430000000 1.0
C      1  0.5211820000000  0.5994760000000  0.4976080000000 1.0
C      1  0.5217750000000  0.3987030000000  0.4980720000000 1.0
C      1  0.4797790000000  0.5965060000000  0.4985150000000 1.0
C      1  0.4975670000000  0.5203840000000  0.3999660000000 1.0
C      1  0.5001560000000  0.4795570000000  0.5983090000000 1.0
C      1  0.4985910000000  0.5203110000000  0.5990310000000 1.0
C      1  0.5770080000000  0.4925370000000  0.4598590000000 1.0
C      1  0.4900920000000  0.4589060000000  0.5777970000000 1.0
C      1  0.4649520000000  0.5731030000000  0.4882520000000 1.0
C      1  0.4072980000000  0.5132320000000  0.4515930000000 1.0
C      1  0.5797990000000  0.5098950000000  0.5417710000000 1.0
C      1  0.4083870000000  0.4876530000000  0.5460660000000 1.0
C      1  0.5105960000000  0.5417970000000  0.5777970000000 1.0
C      1  0.4888240000000  0.5446930000000  0.4183720000000 1.0
C      1  0.5110510000000  0.4517190000000  0.4089400000000 1.0
C      1  0.5461610000000  0.4169490000000  0.4893410000000 1.0
C      1  0.4653730000000  0.4177440000000  0.5155940000000 1.0
C      1  0.5355980000000  0.5742910000000  0.5081920000000 1.0
C      1  0.4894890000000  0.5796210000000  0.4564550000000 1.0
C      1  0.4502340000000  0.4884460000000  0.5887360000000 1.0
C      1  0.5872860000000  0.4527830000000  0.4897950000000 1.0
C      1  0.5103910000000  0.4176420000000  0.4535150000000 1.0
C      1  0.5130680000000  0.5927690000000  0.5456900000000 1.0
C      1  0.4860510000000  0.4174470000000  0.5368990000000 1.0
C      1  0.5480450000000  0.5139670000000  0.5922820000000 1.0
C      1  0.5354060000000  0.4933950000000  0.4269130000000 1.0
C      1  0.4560900000000  0.5104890000000  0.4179230000000 1.0
C      1  0.4223550000000  0.5395100000000  0.4902320000000 1.0
C      1  0.4252910000000  0.4650330000000  0.5047600000000 1.0
C      1  0.5934540000000  0.5468230000000  0.5117550000000 1.0
C      1  0.5014930000000  0.4303540000000  0.5868230000000 1.0
C      1  0.4290800000000  0.5887690000000  0.5036190000000 1.0
C      1  0.5872860000000  0.5067200000000  0.4335000000000 1.0
C      1  0.4961500000000  0.5686660000000  0.5862370000000 1.0
C      1  0.5043560000000  0.5694320000000  0.4104960000000 1.0
C      1  0.4915560000000  0.4300620000000  0.4094660000000 1.0
C      1  0.5691780000000  0.4097100000000  0.5080950000000 1.0
C      1  0.4337070000000  0.4045040000000  0.5000030000000 1.0
C      1  0.5760170000000  0.5874900000000  0.5015390000000 1.0
C      1  0.4077220000000  0.4959960000000  0.4277550000000 1.0
C      1  0.5902320000000  0.4973110000000  0.5681200000000 1.0
C      1  0.4078260000000  0.5065390000000  0.5695530000000 1.0
C      1  0.4282840000000  0.5072330000000  0.5912340000000 1.0
C      1  0.5900980000000  0.4301210000000  0.5078020000000 1.0
C      1  0.5010460000000  0.5896660000000  0.4318840000000 1.0
C      1  0.5716490000000  0.4970320000000  0.5914540000000 1.0
C      1  0.5704110000000  0.5068900000000  0.4108950000000 1.0
C      1  0.4308400000000  0.4976840000000  0.4096110000000 1.0
C      1  0.4113790000000  0.5670570000000  0.5044500000000 1.0
C      1  0.4125540000000  0.4237270000000  0.5035390000000 1.0
C      1  0.5982050000000  0.5702420000000  0.4944750000000 1.0
C      1  0.4910510000000  0.4101900000000  0.4310120000000 1.0
C      1  0.4939000000000  0.5922120000000  0.5687210000000 1.0
C      1  0.5004910000000  0.4088310000000  0.5671640000000 1.0
C      1  0.5194270000000  0.4825540000000  0.5167470000000 1.0
C      1  0.4888720000000  0.5177380000000  0.5187470000000 1.0
C      1  0.5240220000000  0.5181000000000  0.4849320000000 1.0
C      1  0.4835310000000  0.4836970000000  0.4829700000000 1.0
C      1  0.5030140000000  0.5017000000000  0.5001400000000 1.0
END
