TITL C-2441163-1170-969 0.06620446766749 125000 -18310.5144304195 0 0 134 (C1) n - 1
REM
REM in /home/bkarasulu/work/CARBON/AIRSS/Generating-Clusters/ReaxFF-fromJPCA2015/Units_Real/with-SteepDescent/Higher-Symm
REM
REM
REM
REM
REM
REM ./C.cell (1df0a924f5614ab8850e4351716899ee)
REM
REM compiler GCC version 9.2.1 20190827 (Red Hat 9.2.1-1)
REM options -cpp -mtune=generic -march=x86-64 -g -O0 -fpre-include=/usr/include/finclude/math-vector-fortran.h
REM seed 1492270581 1279140399 -1937028337 -379862096 -477133913 -874936906 -147842089 1585532334 -1956920463 -927425226 1296795737 619905917 -848217070 1763891402 1394598353 1983090738 -720998885 681723845 -2065422420 -1670607287 1294054102 -1053133626 -244880093 773016039 529599294 -46584303 -717796581 -62245473 -85132713 1151941083 -2106145936 -321404638 1978027145
REM
CELL 1.54180   50.00000   50.00000   50.00000   90.00000   90.00000   90.00000
LATT -1
SFAC C  
C      1  0.5123290000000  0.5738300000000  0.4506630000000 1.0
C      1  0.5376230000000  0.5774200000000  0.5356910000000 1.0
C      1  0.4499660000000  0.5753810000000  0.5137130000000 1.0
C      1  0.4647860000000  0.4418890000000  0.5796700000000 1.0
C      1  0.4548230000000  0.4403950000000  0.4418440000000 1.0
C      1  0.5797000000000  0.4385350000000  0.4894120000000 1.0
C      1  0.5178000000000  0.4203120000000  0.5318890000000 1.0
C      1  0.4597420000000  0.4083440000000  0.4949160000000 1.0
C      1  0.5140300000000  0.4160870000000  0.4750930000000 1.0
C      1  0.4452730000000  0.4839050000000  0.5014930000000 1.0
C      1  0.5255290000000  0.4867530000000  0.4494950000000 1.0
C      1  0.5347760000000  0.4886660000000  0.5438550000000 1.0
C      1  0.4925480000000  0.4914160000000  0.4762090000000 1.0
C      1  0.5132980000000  0.4976760000000  0.5091020000000 1.0
C      1  0.4866030000000  0.4969140000000  0.5193650000000 1.0
C      1  0.5331780000000  0.5129900000000  0.4623470000000 1.0
C      1  0.5281360000000  0.5150300000000  0.5443940000000 1.0
C      1  0.4494160000000  0.5124230000000  0.4986930000000 1.0
C      1  0.4366640000000  0.4237210000000  0.5055370000000 1.0
C      1  0.5224370000000  0.4242260000000  0.4460300000000 1.0
C      1  0.5394440000000  0.4256350000000  0.5506480000000 1.0
C      1  0.5927330000000  0.5295560000000  0.5131210000000 1.0
C      1  0.4404850000000  0.5316660000000  0.5757240000000 1.0
C      1  0.4632280000000  0.5377720000000  0.4122420000000 1.0
C      1  0.5332910000000  0.4778200000000  0.5158380000000 1.0
C      1  0.4671400000000  0.4771990000000  0.5291120000000 1.0
C      1  0.4970320000000  0.4826600000000  0.4487190000000 1.0
C      1  0.5575540000000  0.4596130000000  0.4909650000000 1.0
C      1  0.4888710000000  0.4636430000000  0.5435040000000 1.0
C      1  0.4646780000000  0.4643910000000  0.4556560000000 1.0
C      1  0.4991240000000  0.4657900000000  0.4897180000000 1.0
C      1  0.5199010000000  0.4550270000000  0.5043940000000 1.0
C      1  0.4784160000000  0.4503480000000  0.4980450000000 1.0
C      1  0.5382960000000  0.5656470000000  0.4806920000000 1.0
C      1  0.4913000000000  0.5605270000000  0.5449990000000 1.0
C      1  0.4656390000000  0.5592500000000  0.4691750000000 1.0
C      1  0.4447970000000  0.5604940000000  0.4899810000000 1.0
C      1  0.5376790000000  0.5613490000000  0.4518520000000 1.0
C      1  0.5194230000000  0.5625230000000  0.5537020000000 1.0
C      1  0.5624760000000  0.4345680000000  0.5348650000000 1.0
C      1  0.4430840000000  0.4320590000000  0.5327010000000 1.0
C      1  0.4994200000000  0.4331300000000  0.4322520000000 1.0
C      1  0.4788400000000  0.5136910000000  0.5628200000000 1.0
C      1  0.4581480000000  0.5156400000000  0.4457360000000 1.0
C      1  0.5518970000000  0.5165960000000  0.4840770000000 1.0
C      1  0.4558240000000  0.4581220000000  0.4824900000000 1.0
C      1  0.5428120000000  0.4436570000000  0.4732290000000 1.0
C      1  0.4978260000000  0.4357050000000  0.5472540000000 1.0
C      1  0.4183310000000  0.4785800000000  0.4579010000000 1.0
C      1  0.5764860000000  0.4767410000000  0.4496850000000 1.0
C      1  0.5065910000000  0.4784280000000  0.5907000000000 1.0
C      1  0.5874760000000  0.4916880000000  0.4990560000000 1.0
C      1  0.4576070000000  0.4727620000000  0.5787980000000 1.0
C      1  0.4540840000000  0.4821140000000  0.4164010000000 1.0
C      1  0.5715620000000  0.4809910000000  0.4780840000000 1.0
C      1  0.4871610000000  0.4837890000000  0.5677960000000 1.0
C      1  0.4466020000000  0.4858820000000  0.4459560000000 1.0
C      1  0.5811060000000  0.5597710000000  0.4770660000000 1.0
C      1  0.4766810000000  0.5637930000000  0.5837520000000 1.0
C      1  0.4383610000000  0.5651080000000  0.4394130000000 1.0
C      1  0.4644460000000  0.5239170000000  0.5868790000000 1.0
C      1  0.4448750000000  0.5271380000000  0.4256320000000 1.0
C      1  0.5828510000000  0.5183400000000  0.4884270000000 1.0
C      1  0.4873940000000  0.5415490000000  0.5981330000000 1.0
C      1  0.4226210000000  0.5412000000000  0.4403960000000 1.0
C      1  0.5888820000000  0.5379020000000  0.4622270000000 1.0
C      1  0.4805270000000  0.5331330000000  0.5421260000000 1.0
C      1  0.4752590000000  0.5323780000000  0.4620480000000 1.0
C      1  0.5391180000000  0.5389370000000  0.4959840000000 1.0
C      1  0.4819250000000  0.4226520000000  0.5055090000000 1.0
C      1  0.4862340000000  0.4100840000000  0.4791930000000 1.0
C      1  0.5239770000000  0.4257970000000  0.5031230000000 1.0
C      1  0.4399610000000  0.4765680000000  0.5506810000000 1.0
C      1  0.4846370000000  0.4789330000000  0.4159310000000 1.0
C      1  0.5839850000000  0.4816730000000  0.5267110000000 1.0
C      1  0.5682880000000  0.5081830000000  0.5744370000000 1.0
C      1  0.4043400000000  0.5076220000000  0.5238020000000 1.0
C      1  0.5308640000000  0.5061870000000  0.4022770000000 1.0
C      1  0.5005940000000  0.5216180000000  0.4742550000000 1.0
C      1  0.5211420000000  0.5260110000000  0.5147880000000 1.0
C      1  0.4751410000000  0.5239340000000  0.5118970000000 1.0
C      1  0.4680200000000  0.5751810000000  0.5592480000000 1.0
C      1  0.4635190000000  0.5767870000000  0.4443600000000 1.0
C      1  0.5665140000000  0.5759320000000  0.4939550000000 1.0
C      1  0.5221940000000  0.5016810000000  0.5993940000000 1.0
C      1  0.4051880000000  0.5009820000000  0.4704560000000 1.0
C      1  0.5738760000000  0.4998320000000  0.4315020000000 1.0
C      1  0.4107900000000  0.5383060000000  0.5195990000000 1.0
C      1  0.5281460000000  0.5310330000000  0.4161150000000 1.0
C      1  0.5603350000000  0.5355230000000  0.5770440000000 1.0
C      1  0.5829670000000  0.5507790000000  0.5306710000000 1.0
C      1  0.4261970000000  0.5489640000000  0.5461100000000 1.0
C      1  0.4860980000000  0.5484520000000  0.4151130000000 1.0
C      1  0.5373530000000  0.4449650000000  0.5730440000000 1.0
C      1  0.4157600000000  0.4437670000000  0.4968670000000 1.0
C      1  0.5428720000000  0.4415460000000  0.4321170000000 1.0
C      1  0.4301240000000  0.5349330000000  0.4916900000000 1.0
C      1  0.5445240000000  0.5365560000000  0.4399310000000 1.0
C      1  0.5291040000000  0.5356230000000  0.5667180000000 1.0
C      1  0.4218560000000  0.4994760000000  0.5456510000000 1.0
C      1  0.5023230000000  0.5009990000000  0.4048540000000 1.0
C      1  0.5785890000000  0.5010380000000  0.5462880000000 1.0
C      1  0.5131200000000  0.5285240000000  0.5928980000000 1.0
C      1  0.4145900000000  0.5280360000000  0.4656620000000 1.0
C      1  0.5739000000000  0.5275290000000  0.4401510000000 1.0
C      1  0.4738990000000  0.5855190000000  0.5059770000000 1.0
C      1  0.5143770000000  0.5833550000000  0.4774170000000 1.0
C      1  0.5164500000000  0.5880570000000  0.5215110000000 1.0
C      1  0.4899450000000  0.5703040000000  0.4324750000000 1.0
C      1  0.5654270000000  0.5718310000000  0.5223000000000 1.0
C      1  0.4452960000000  0.5694820000000  0.5418240000000 1.0
C      1  0.4158040000000  0.4512400000000  0.4678990000000 1.0
C      1  0.5698110000000  0.4486510000000  0.4411610000000 1.0
C      1  0.5138640000000  0.4499960000000  0.5895520000000 1.0
C      1  0.5364820000000  0.4702040000000  0.4269570000000 1.0
C      1  0.5459760000000  0.4723150000000  0.5666690000000 1.0
C      1  0.4179990000000  0.4714260000000  0.5071310000000 1.0
C      1  0.5836230000000  0.4533240000000  0.5335410000000 1.0
C      1  0.4302470000000  0.4501230000000  0.5490970000000 1.0
C      1  0.4897560000000  0.4494270000000  0.4117710000000 1.0
C      1  0.4391820000000  0.4339440000000  0.4650530000000 1.0
C      1  0.5668350000000  0.4299690000000  0.4640560000000 1.0
C      1  0.4924990000000  0.4340880000000  0.5768530000000 1.0
C      1  0.4337410000000  0.5232960000000  0.5533410000000 1.0
C      1  0.5003930000000  0.5255630000000  0.4197420000000 1.0
C      1  0.5744360000000  0.5240650000000  0.5324930000000 1.0
C      1  0.5529860000000  0.4900460000000  0.4127950000000 1.0
C      1  0.5479110000000  0.4910040000000  0.5889130000000 1.0
C      1  0.3998340000000  0.4926750000000  0.4994830000000 1.0
C      1  0.5821900000000  0.4311260000000  0.5163630000000 1.0
C      1  0.4456920000000  0.4300330000000  0.5615060000000 1.0
C      1  0.4736280000000  0.4298930000000  0.4240950000000 1.0
C      1  0.4991010000000  0.5355020000000  0.4998330000000 1.0
C      1  0.4993810000000  0.5959690000000  0.4998290000000 1.0
END
