TITL C-2441163-1170-831 0.0179589798555745 125000 -12464.2711517457 0 0 89 (C1) n - 1
REM
REM in /home/bkarasulu/work/CARBON/AIRSS/Generating-Clusters/ReaxFF-fromJPCA2015/Units_Real/with-SteepDescent/Higher-Symm
REM
REM
REM
REM
REM
REM ./C.cell (1df0a924f5614ab8850e4351716899ee)
REM
REM compiler GCC version 9.2.1 20190827 (Red Hat 9.2.1-1)
REM options -cpp -mtune=generic -march=x86-64 -g -O0 -fpre-include=/usr/include/finclude/math-vector-fortran.h
REM seed -271801725 -1136666522 1230180942 956961782 -1594574404 1067937892 -990403751 -1916276865 162289209 976884619 -929897464 -2117861992 -1399845403 2094743661 487512304 1592309643 1521411170 143667298 -1180569854 1912666528 -1422583525 -1586832631 56609033 -1628113484 38601928 1104336500 -458455020 90846613 -2118442664 -443925482 130013453 -544609001 72163410
REM
CELL 1.54180   50.00000   50.00000   50.00000   90.00000   90.00000   90.00000
LATT -1
SFAC C  
C      1  0.5808140000000  0.5286880000000  0.5264670000000 1.0
C      1  0.5279280000000  0.4204520000000  0.4723990000000 1.0
C      1  0.4220170000000  0.4698520000000  0.5233740000000 1.0
C      1  0.4727640000000  0.5760350000000  0.4743830000000 1.0
C      1  0.5421760000000  0.5594810000000  0.4778040000000 1.0
C      1  0.5572440000000  0.4605240000000  0.5226780000000 1.0
C      1  0.4505280000000  0.4403380000000  0.4816640000000 1.0
C      1  0.4391520000000  0.5433970000000  0.5234430000000 1.0
C      1  0.4999280000000  0.5168460000000  0.4645030000000 1.0
C      1  0.5137980000000  0.5050570000000  0.5299370000000 1.0
C      1  0.4870510000000  0.4912090000000  0.4664610000000 1.0
C      1  0.4902250000000  0.5189560000000  0.5168190000000 1.0
C      1  0.5105100000000  0.5616220000000  0.5441520000000 1.0
C      1  0.5640380000000  0.4915650000000  0.4557270000000 1.0
C      1  0.4908500000000  0.4360440000000  0.5503370000000 1.0
C      1  0.4376520000000  0.5094100000000  0.4544540000000 1.0
C      1  0.5872390000000  0.4958190000000  0.4965090000000 1.0
C      1  0.4910550000000  0.4092740000000  0.4994310000000 1.0
C      1  0.4134560000000  0.5032190000000  0.4954280000000 1.0
C      1  0.5050470000000  0.5891490000000  0.5070740000000 1.0
C      1  0.4485210000000  0.5058490000000  0.5531320000000 1.0
C      1  0.5085160000000  0.5511120000000  0.4436340000000 1.0
C      1  0.5516200000000  0.4959390000000  0.5563610000000 1.0
C      1  0.4923980000000  0.4515100000000  0.4490540000000 1.0
C      1  0.5407560000000  0.4681130000000  0.5634620000000 1.0
C      1  0.4678340000000  0.4609520000000  0.4373000000000 1.0
C      1  0.4605980000000  0.5307690000000  0.5617630000000 1.0
C      1  0.5339100000000  0.5399520000000  0.4356640000000 1.0
C      1  0.5416860000000  0.4470810000000  0.5434470000000 1.0
C      1  0.4473770000000  0.4567900000000  0.4574820000000 1.0
C      1  0.4579330000000  0.5526350000000  0.5431660000000 1.0
C      1  0.5533110000000  0.5428140000000  0.4572810000000 1.0
C      1  0.5705370000000  0.5195380000000  0.4606280000000 1.0
C      1  0.5179230000000  0.4299080000000  0.5395040000000 1.0
C      1  0.4307620000000  0.4808400000000  0.4585210000000 1.0
C      1  0.4822720000000  0.5688990000000  0.5404130000000 1.0
C      1  0.5128310000000  0.4976540000000  0.5637880000000 1.0
C      1  0.4963200000000  0.4878480000000  0.4347150000000 1.0
C      1  0.4874660000000  0.5017530000000  0.5711470000000 1.0
C      1  0.5040890000000  0.5132090000000  0.4325050000000 1.0
C      1  0.4702660000000  0.4824470000000  0.5561000000000 1.0
C      1  0.4806720000000  0.5385420000000  0.4362550000000 1.0
C      1  0.5350420000000  0.5183320000000  0.5670910000000 1.0
C      1  0.5190620000000  0.4658740000000  0.4421740000000 1.0
C      1  0.5004140000000  0.5816340000000  0.4796520000000 1.0
C      1  0.5788730000000  0.4997640000000  0.5247910000000 1.0
C      1  0.4990880000000  0.4188930000000  0.4727800000000 1.0
C      1  0.4194830000000  0.4987900000000  0.5243540000000 1.0
C      1  0.4687130000000  0.4880490000000  0.4259590000000 1.0
C      1  0.4876760000000  0.5295100000000  0.5725930000000 1.0
C      1  0.5323540000000  0.5122560000000  0.4252360000000 1.0
C      1  0.5143960000000  0.4697970000000  0.5739930000000 1.0
C      1  0.5554040000000  0.5422150000000  0.5214800000000 1.0
C      1  0.5417370000000  0.4443680000000  0.4874990000000 1.0
C      1  0.4477900000000  0.4618460000000  0.5201260000000 1.0
C      1  0.4631670000000  0.5495930000000  0.4888740000000 1.0
C      1  0.4717500000000  0.4289270000000  0.5298840000000 1.0
C      1  0.4260410000000  0.5229580000000  0.4789290000000 1.0
C      1  0.5251390000000  0.5744120000000  0.5220390000000 1.0
C      1  0.5755450000000  0.4765180000000  0.4788690000000 1.0
C      1  0.5097380000000  0.5353790000000  0.5021360000000 1.0
C      1  0.5276540000000  0.4959770000000  0.4846380000000 1.0
C      1  0.4899210000000  0.4588030000000  0.5051940000000 1.0
C      1  0.4680210000000  0.5051810000000  0.5013750000000 1.0
C      1  0.4886490000000  0.4600780000000  0.5665690000000 1.0
C      1  0.4590040000000  0.5132340000000  0.4358240000000 1.0
C      1  0.5147160000000  0.5391890000000  0.5626210000000 1.0
C      1  0.5427110000000  0.4875740000000  0.4366520000000 1.0
C      1  0.4642790000000  0.4212330000000  0.5040120000000 1.0
C      1  0.4351550000000  0.5456620000000  0.4948190000000 1.0
C      1  0.5474630000000  0.5651290000000  0.5055980000000 1.0
C      1  0.5665840000000  0.4550950000000  0.4960300000000 1.0
C      1  0.4797250000000  0.5858270000000  0.5186570000000 1.0
C      1  0.5863750000000  0.5208420000000  0.4836210000000 1.0
C      1  0.5150440000000  0.4139720000000  0.5163340000000 1.0
C      1  0.4168660000000  0.4785170000000  0.4820940000000 1.0
C      1  0.5140270000000  0.5567950000000  0.4742980000000 1.0
C      1  0.5514850000000  0.4890610000000  0.5275790000000 1.0
C      1  0.4836170000000  0.4451920000000  0.4766910000000 1.0
C      1  0.4426130000000  0.5149130000000  0.5277160000000 1.0
C      1  0.5310580000000  0.5232920000000  0.5159020000000 1.0
C      1  0.5276750000000  0.4702740000000  0.4713580000000 1.0
C      1  0.4728730000000  0.4705120000000  0.5249500000000 1.0
C      1  0.4773430000000  0.5360920000000  0.4656480000000 1.0
C      1  0.4257750000000  0.4560840000000  0.4968880000000 1.0
C      1  0.4601820000000  0.5780190000000  0.5000560000000 1.0
C      1  0.5807210000000  0.5413340000000  0.5012430000000 1.0
C      1  0.5361100000000  0.4181870000000  0.4989130000000 1.0
C      1  0.4958770000000  0.4850060000000  0.4937280000000 1.0
END
