TITL C-2441169-1362-762 0.194996058505067 125000 -19701.0788467816 0 0 162 (C1) n - 1
REM
REM in /home/bkarasulu/work/CARBON/AIRSS/Generating-Clusters/ReaxFF-fromJPCA2015/Units_Real/with-SteepDescent/Higher-Symm
REM
REM
REM
REM
REM
REM ./C.cell (1df0a924f5614ab8850e4351716899ee)
REM
REM compiler GCC version 9.2.1 20190827 (Red Hat 9.2.1-1)
REM options -cpp -mtune=generic -march=x86-64 -g -O0 -fpre-include=/usr/include/finclude/math-vector-fortran.h
REM seed -623540943 -1588072123 -592187135 568349907 -1889162396 -1974621104 -23267810 -1457400021 1752887346 1939138006 1408539962 627569525 7073575 -1753807572 396213988 1388860228 1973099220 -1504941451 26891231 2008878860 -797119161 -976958624 449030987 -775956307 1838083015 1511972309 -1759230947 -489793749 -1216525295 -2080647062 -867436503 -831291503 790735885
REM
CELL 1.54180   50.00000   50.00000   50.00000   90.00000   90.00000   90.00000
LATT -1
SFAC C  
C      1  0.4613780000000  0.5316580000000  0.5126500000000 1.0
C      1  0.5172830000000  0.5241990000000  0.4628950000000 1.0
C      1  0.5124780000000  0.4583540000000  0.5199280000000 1.0
C      1  0.4654040000000  0.4849990000000  0.4923000000000 1.0
C      1  0.5386440000000  0.5177480000000  0.4798370000000 1.0
C      1  0.5478030000000  0.4967860000000  0.5139420000000 1.0
C      1  0.5294790000000  0.4798580000000  0.5342230000000 1.0
C      1  0.4863630000000  0.5089090000000  0.5390960000000 1.0
C      1  0.4976920000000  0.4796600000000  0.4556030000000 1.0
C      1  0.5045650000000  0.5392530000000  0.4854640000000 1.0
C      1  0.4822410000000  0.4605420000000  0.4923870000000 1.0
C      1  0.4857300000000  0.5366460000000  0.5275390000000 1.0
C      1  0.5377140000000  0.5255070000000  0.5206160000000 1.0
C      1  0.4989710000000  0.5068290000000  0.4486980000000 1.0
C      1  0.4827570000000  0.4552440000000  0.5213530000000 1.0
C      1  0.5413710000000  0.4906360000000  0.4846190000000 1.0
C      1  0.4638110000000  0.5146590000000  0.4894390000000 1.0
C      1  0.4573610000000  0.4756930000000  0.5189110000000 1.0
C      1  0.4618440000000  0.4935520000000  0.5395780000000 1.0
C      1  0.5087230000000  0.4967330000000  0.5362500000000 1.0
C      1  0.5213710000000  0.4747570000000  0.4712910000000 1.0
C      1  0.4786520000000  0.5345780000000  0.4733830000000 1.0
C      1  0.5093540000000  0.4610250000000  0.4917950000000 1.0
C      1  0.5114260000000  0.5338320000000  0.5124950000000 1.0
C      1  0.5652010000000  0.5546330000000  0.4217670000000 1.0
C      1  0.5488530000000  0.4257880000000  0.5668210000000 1.0
C      1  0.4351100000000  0.5569530000000  0.5551990000000 1.0
C      1  0.5636960000000  0.4491690000000  0.5696970000000 1.0
C      1  0.4471120000000  0.5484130000000  0.5813150000000 1.0
C      1  0.4317100000000  0.4450540000000  0.4273220000000 1.0
C      1  0.5559540000000  0.5779110000000  0.4334300000000 1.0
C      1  0.4497950000000  0.4247720000000  0.4321370000000 1.0
C      1  0.4409480000000  0.5827190000000  0.5581250000000 1.0
C      1  0.4291200000000  0.4318470000000  0.4511340000000 1.0
C      1  0.5784110000000  0.5639890000000  0.4449560000000 1.0
C      1  0.5735690000000  0.4277380000000  0.5529900000000 1.0
C      1  0.4399080000000  0.5525360000000  0.4222670000000 1.0
C      1  0.4473820000000  0.4243690000000  0.5625770000000 1.0
C      1  0.5722940000000  0.5640720000000  0.5500190000000 1.0
C      1  0.4400900000000  0.4457910000000  0.5804090000000 1.0
C      1  0.5683490000000  0.5495870000000  0.5739800000000 1.0
C      1  0.5667890000000  0.4499090000000  0.4300360000000 1.0
C      1  0.4560280000000  0.5765790000000  0.4263910000000 1.0
C      1  0.5520900000000  0.4266810000000  0.4323670000000 1.0
C      1  0.5513740000000  0.5710450000000  0.5638550000000 1.0
C      1  0.5744390000000  0.4282750000000  0.4488360000000 1.0
C      1  0.4334250000000  0.5710370000000  0.4444150000000 1.0
C      1  0.4247090000000  0.4401810000000  0.5567050000000 1.0
C      1  0.5057830000000  0.4314940000000  0.4180930000000 1.0
C      1  0.4346280000000  0.4185650000000  0.5180650000000 1.0
C      1  0.4183910000000  0.5189980000000  0.4312610000000 1.0
C      1  0.5094730000000  0.5671500000000  0.5819190000000 1.0
C      1  0.4846170000000  0.4304340000000  0.5759700000000 1.0
C      1  0.4830790000000  0.5630120000000  0.4255170000000 1.0
C      1  0.4348240000000  0.5772910000000  0.4852490000000 1.0
C      1  0.5673310000000  0.4214060000000  0.4760730000000 1.0
C      1  0.5661720000000  0.5790090000000  0.5105510000000 1.0
C      1  0.4235640000000  0.4793310000000  0.5669300000000 1.0
C      1  0.5739770000000  0.5227140000000  0.5616370000000 1.0
C      1  0.5820990000000  0.4876720000000  0.4330490000000 1.0
C      1  0.4761460000000  0.4376370000000  0.4269980000000 1.0
C      1  0.5637370000000  0.4209890000000  0.5265600000000 1.0
C      1  0.5808890000000  0.5163810000000  0.4332920000000 1.0
C      1  0.4821710000000  0.5718740000000  0.5731400000000 1.0
C      1  0.5112380000000  0.4325840000000  0.5784220000000 1.0
C      1  0.5126780000000  0.5690540000000  0.4198390000000 1.0
C      1  0.5697650000000  0.5796890000000  0.4839510000000 1.0
C      1  0.4332570000000  0.4178680000000  0.4890070000000 1.0
C      1  0.4326200000000  0.5730430000000  0.5140080000000 1.0
C      1  0.5795430000000  0.4940200000000  0.5669940000000 1.0
C      1  0.4227900000000  0.5078800000000  0.5683370000000 1.0
C      1  0.4164320000000  0.4900700000000  0.4315100000000 1.0
C      1  0.5956830000000  0.5177440000000  0.4583170000000 1.0
C      1  0.5085250000000  0.4539790000000  0.5974060000000 1.0
C      1  0.4538790000000  0.5920190000000  0.5206390000000 1.0
C      1  0.5961400000000  0.4924720000000  0.5438990000000 1.0
C      1  0.4052160000000  0.5082130000000  0.5458950000000 1.0
C      1  0.4012480000000  0.4909740000000  0.4555650000000 1.0
C      1  0.5165470000000  0.5426800000000  0.4080620000000 1.0
C      1  0.4768120000000  0.4579120000000  0.4046360000000 1.0
C      1  0.4721860000000  0.5558950000000  0.5955680000000 1.0
C      1  0.4580370000000  0.4016430000000  0.4897680000000 1.0
C      1  0.5440330000000  0.5945410000000  0.4806300000000 1.0
C      1  0.5421630000000  0.4026690000000  0.5197640000000 1.0
C      1  0.4026050000000  0.5198250000000  0.4560340000000 1.0
C      1  0.4786390000000  0.4539790000000  0.5932990000000 1.0
C      1  0.5444680000000  0.5964780000000  0.5105110000000 1.0
C      1  0.4061580000000  0.4799560000000  0.5435760000000 1.0
C      1  0.5946160000000  0.5203210000000  0.5388910000000 1.0
C      1  0.6006990000000  0.4892380000000  0.4559960000000 1.0
C      1  0.4879980000000  0.5396350000000  0.4080740000000 1.0
C      1  0.5047480000000  0.4547650000000  0.4034890000000 1.0
C      1  0.4995410000000  0.5450140000000  0.5978260000000 1.0
C      1  0.5485260000000  0.4046800000000  0.4910850000000 1.0
C      1  0.4545650000000  0.5982380000000  0.4916490000000 1.0
C      1  0.4599300000000  0.4036930000000  0.5189250000000 1.0
C      1  0.4740030000000  0.5071280000000  0.5787030000000 1.0
C      1  0.5220930000000  0.5825290000000  0.4655660000000 1.0
C      1  0.5768820000000  0.4591690000000  0.5148440000000 1.0
C      1  0.4602450000000  0.4804480000000  0.4148470000000 1.0
C      1  0.5337070000000  0.5204220000000  0.4188810000000 1.0
C      1  0.5350140000000  0.4888100000000  0.5748720000000 1.0
C      1  0.5145590000000  0.4122180000000  0.5311510000000 1.0
C      1  0.4783290000000  0.5816000000000  0.5336580000000 1.0
C      1  0.4874550000000  0.4320730000000  0.4648470000000 1.0
C      1  0.5855950000000  0.5312640000000  0.4833440000000 1.0
C      1  0.4225980000000  0.4652390000000  0.4925350000000 1.0
C      1  0.4174680000000  0.5346800000000  0.5051480000000 1.0
C      1  0.5278580000000  0.5150770000000  0.5695030000000 1.0
C      1  0.4941180000000  0.5764990000000  0.4674440000000 1.0
C      1  0.4142190000000  0.4648050000000  0.5198640000000 1.0
C      1  0.5345320000000  0.4919270000000  0.4231580000000 1.0
C      1  0.4622070000000  0.5072400000000  0.4222050000000 1.0
C      1  0.4686220000000  0.4798730000000  0.5840920000000 1.0
C      1  0.4850980000000  0.4118650000000  0.5313630000000 1.0
C      1  0.5078600000000  0.5801940000000  0.5362680000000 1.0
C      1  0.5137910000000  0.4254180000000  0.4629660000000 1.0
C      1  0.4172240000000  0.5342640000000  0.4768510000000 1.0
C      1  0.5773970000000  0.4602790000000  0.4871700000000 1.0
C      1  0.5860620000000  0.5331330000000  0.5134340000000 1.0
C      1  0.4373790000000  0.5458190000000  0.5220950000000 1.0
C      1  0.5576790000000  0.5297740000000  0.4276630000000 1.0
C      1  0.5236300000000  0.4269890000000  0.5538400000000 1.0
C      1  0.4317930000000  0.4432540000000  0.4768270000000 1.0
C      1  0.5734120000000  0.5541900000000  0.4719540000000 1.0
C      1  0.5505040000000  0.4455160000000  0.5151440000000 1.0
C      1  0.5569230000000  0.4757680000000  0.5636160000000 1.0
C      1  0.4492980000000  0.5209960000000  0.5714810000000 1.0
C      1  0.4369930000000  0.4717170000000  0.4260390000000 1.0
C      1  0.5295560000000  0.5744380000000  0.4407540000000 1.0
C      1  0.4805270000000  0.4565510000000  0.4518240000000 1.0
C      1  0.4762860000000  0.5581260000000  0.5485990000000 1.0
C      1  0.5704780000000  0.5555450000000  0.5234810000000 1.0
C      1  0.4458490000000  0.5265430000000  0.4338600000000 1.0
C      1  0.4740130000000  0.4310200000000  0.5504010000000 1.0
C      1  0.5532570000000  0.4452330000000  0.4850310000000 1.0
C      1  0.4355590000000  0.5543090000000  0.4681150000000 1.0
C      1  0.4334800000000  0.4457790000000  0.5292090000000 1.0
C      1  0.4520000000000  0.4780190000000  0.5603660000000 1.0
C      1  0.5441860000000  0.5267250000000  0.5490290000000 1.0
C      1  0.5558490000000  0.4760770000000  0.4332150000000 1.0
C      1  0.4778490000000  0.5560950000000  0.4549200000000 1.0
C      1  0.5254930000000  0.4282090000000  0.4387510000000 1.0
C      1  0.5239200000000  0.5690210000000  0.5574550000000 1.0
C      1  0.4877610000000  0.5145230000000  0.4214310000000 1.0
C      1  0.5222400000000  0.4135930000000  0.4861940000000 1.0
C      1  0.4097050000000  0.5124640000000  0.5178970000000 1.0
C      1  0.5155460000000  0.4790000000000  0.5900910000000 1.0
C      1  0.5008670000000  0.5211840000000  0.5821780000000 1.0
C      1  0.5149340000000  0.4797980000000  0.4080050000000 1.0
C      1  0.5189200000000  0.5893820000000  0.5152520000000 1.0
C      1  0.4812240000000  0.4182490000000  0.4874390000000 1.0
C      1  0.4811160000000  0.5877690000000  0.4892530000000 1.0
C      1  0.4138330000000  0.4892840000000  0.4812250000000 1.0
C      1  0.5855980000000  0.4854050000000  0.4803060000000 1.0
C      1  0.5800940000000  0.4870100000000  0.5202290000000 1.0
C      1  0.3910580000000  0.4981430000000  0.4991890000000 1.0
C      1  0.6042300000000  0.4974860000000  0.5006740000000 1.0
C      1  0.5023280000000  0.4990470000000  0.6065670000000 1.0
C      1  0.4995640000000  0.4995030000000  0.3938670000000 1.0
C      1  0.4991740000000  0.3950340000000  0.4950520000000 1.0
C      1  0.5001680000000  0.6079850000000  0.5010020000000 1.0
END
