TITL C-2441165-58-238 0.0942846991692298 125000 -19064.2816497186 0 0 146 (C1) n - 1
REM
REM in /home/bkarasulu/work/CARBON/AIRSS/Generating-Clusters/ReaxFF-fromJPCA2015/Units_Real/with-SteepDescent/Higher-Symm
REM
REM
REM
REM
REM
REM ./C.cell (1df0a924f5614ab8850e4351716899ee)
REM
REM compiler GCC version 9.2.1 20190827 (Red Hat 9.2.1-1)
REM options -cpp -mtune=generic -march=x86-64 -g -O0 -fpre-include=/usr/include/finclude/math-vector-fortran.h
REM seed -558556931 1073442858 171220450 2112658048 -1964398819 -231749857 -75296716 881696696 1157528395 -1995793881 1061225213 673572372 1862636845 1613665803 -975600725 465344487 -1585936603 1770286187 1262550332 -31815209 1191639871 2091307050 1605914880 1950958974 1885815973 -1548615602 -508980655 -1867256650 257871831 750184064 -1152068011 1873330683 285178544
REM
CELL 1.54180   50.00000   50.00000   50.00000   90.00000   90.00000   90.00000
LATT -1
SFAC C  
C      1  0.5519080000000  0.4627390000000  0.4827740000000 1.0
C      1  0.5458300000000  0.5489830000000  0.5239250000000 1.0
C      1  0.5369810000000  0.4595610000000  0.5301550000000 1.0
C      1  0.5509330000000  0.5412270000000  0.4771840000000 1.0
C      1  0.4232780000000  0.4749020000000  0.5286950000000 1.0
C      1  0.4259010000000  0.5263780000000  0.4751690000000 1.0
C      1  0.4286510000000  0.4722160000000  0.4777980000000 1.0
C      1  0.4218180000000  0.5274960000000  0.5233890000000 1.0
C      1  0.5223110000000  0.4764770000000  0.4422130000000 1.0
C      1  0.5249650000000  0.5294430000000  0.5602580000000 1.0
C      1  0.5188610000000  0.4746910000000  0.5540020000000 1.0
C      1  0.5251650000000  0.5306650000000  0.4420900000000 1.0
C      1  0.5270490000000  0.5293290000000  0.4855850000000 1.0
C      1  0.5191110000000  0.4536500000000  0.5058530000000 1.0
C      1  0.5201910000000  0.5471950000000  0.5055980000000 1.0
C      1  0.5262800000000  0.4738340000000  0.4873600000000 1.0
C      1  0.4435760000000  0.5667590000000  0.4759110000000 1.0
C      1  0.4438480000000  0.4333210000000  0.5239170000000 1.0
C      1  0.4443790000000  0.5684000000000  0.5252350000000 1.0
C      1  0.4441120000000  0.4310320000000  0.4736600000000 1.0
C      1  0.4567120000000  0.5298050000000  0.4441600000000 1.0
C      1  0.4536480000000  0.4599510000000  0.5663150000000 1.0
C      1  0.4533260000000  0.5313080000000  0.5549030000000 1.0
C      1  0.4563230000000  0.4651360000000  0.4379210000000 1.0
C      1  0.4885640000000  0.4865600000000  0.4204290000000 1.0
C      1  0.4908700000000  0.5153960000000  0.5784030000000 1.0
C      1  0.4862010000000  0.4883080000000  0.5828760000000 1.0
C      1  0.4901690000000  0.5133100000000  0.4172420000000 1.0
C      1  0.4008290000000  0.4888610000000  0.5402470000000 1.0
C      1  0.4031610000000  0.5153470000000  0.4612330000000 1.0
C      1  0.4054800000000  0.4806590000000  0.4612090000000 1.0
C      1  0.4051430000000  0.5186340000000  0.5454760000000 1.0
C      1  0.5542090000000  0.5230250000000  0.5866850000000 1.0
C      1  0.5545110000000  0.4740120000000  0.4157330000000 1.0
C      1  0.5536380000000  0.5272940000000  0.4132760000000 1.0
C      1  0.5528450000000  0.4701350000000  0.5814730000000 1.0
C      1  0.4818300000000  0.4098840000000  0.4786080000000 1.0
C      1  0.4881950000000  0.5913850000000  0.5267060000000 1.0
C      1  0.4887550000000  0.4083710000000  0.5267880000000 1.0
C      1  0.4876740000000  0.5904190000000  0.4732800000000 1.0
C      1  0.5129000000000  0.4140470000000  0.5402550000000 1.0
C      1  0.5115550000000  0.5884970000000  0.4577040000000 1.0
C      1  0.5302190000000  0.4236700000000  0.4507960000000 1.0
C      1  0.5131620000000  0.5888040000000  0.5409380000000 1.0
C      1  0.5017610000000  0.4587100000000  0.4521260000000 1.0
C      1  0.5006180000000  0.5429550000000  0.5523860000000 1.0
C      1  0.4950930000000  0.4591690000000  0.5464210000000 1.0
C      1  0.5009840000000  0.5442770000000  0.4523290000000 1.0
C      1  0.5349700000000  0.5884610000000  0.4749460000000 1.0
C      1  0.5355160000000  0.4104940000000  0.5228720000000 1.0
C      1  0.5363350000000  0.5915770000000  0.5228820000000 1.0
C      1  0.5397950000000  0.4159800000000  0.4775540000000 1.0
C      1  0.4732600000000  0.4478430000000  0.5829110000000 1.0
C      1  0.4705780000000  0.5489440000000  0.4112460000000 1.0
C      1  0.4708070000000  0.4515410000000  0.4172220000000 1.0
C      1  0.4684700000000  0.5491320000000  0.5876440000000 1.0
C      1  0.5250570000000  0.5372290000000  0.4122920000000 1.0
C      1  0.5238580000000  0.4609140000000  0.5814760000000 1.0
C      1  0.5265960000000  0.5338220000000  0.5887070000000 1.0
C      1  0.5263680000000  0.4662880000000  0.4153790000000 1.0
C      1  0.4366110000000  0.5461880000000  0.4578650000000 1.0
C      1  0.4357060000000  0.4533720000000  0.5433280000000 1.0
C      1  0.4337240000000  0.5477000000000  0.5403300000000 1.0
C      1  0.4369120000000  0.4532910000000  0.4579560000000 1.0
C      1  0.4470850000000  0.5301140000000  0.4157670000000 1.0
C      1  0.4456740000000  0.4876340000000  0.5710800000000 1.0
C      1  0.4454630000000  0.5321070000000  0.5832640000000 1.0
C      1  0.4394990000000  0.4775000000000  0.4201620000000 1.0
C      1  0.4765310000000  0.4253110000000  0.5658150000000 1.0
C      1  0.4739980000000  0.5682150000000  0.4317630000000 1.0
C      1  0.4774320000000  0.4279990000000  0.4324220000000 1.0
C      1  0.4740690000000  0.5702900000000  0.5679210000000 1.0
C      1  0.5949780000000  0.4674540000000  0.5131960000000 1.0
C      1  0.5980760000000  0.5393100000000  0.4858960000000 1.0
C      1  0.5970500000000  0.4626920000000  0.4861260000000 1.0
C      1  0.5978690000000  0.5357910000000  0.5149190000000 1.0
C      1  0.4165810000000  0.4899890000000  0.4305070000000 1.0
C      1  0.4185640000000  0.5188900000000  0.5730170000000 1.0
C      1  0.4167200000000  0.4906480000000  0.5718340000000 1.0
C      1  0.4231800000000  0.5173280000000  0.4255050000000 1.0
C      1  0.4808630000000  0.4638830000000  0.5227790000000 1.0
C      1  0.4842670000000  0.5407860000000  0.4746450000000 1.0
C      1  0.4878960000000  0.4699960000000  0.4739720000000 1.0
C      1  0.4870950000000  0.5347990000000  0.5288720000000 1.0
C      1  0.4703340000000  0.5683390000000  0.4640960000000 1.0
C      1  0.4655570000000  0.4191030000000  0.5391040000000 1.0
C      1  0.4664940000000  0.5789020000000  0.5404330000000 1.0
C      1  0.4673510000000  0.4187530000000  0.4590730000000 1.0
C      1  0.4973330000000  0.4660250000000  0.4030600000000 1.0
C      1  0.4982450000000  0.5333120000000  0.5989940000000 1.0
C      1  0.4970960000000  0.4637200000000  0.5935090000000 1.0
C      1  0.4979100000000  0.5365800000000  0.4017820000000 1.0
C      1  0.5565100000000  0.5739590000000  0.5124560000000 1.0
C      1  0.5580210000000  0.4346090000000  0.4908300000000 1.0
C      1  0.5554240000000  0.5694300000000  0.4837520000000 1.0
C      1  0.5599880000000  0.4262970000000  0.5189360000000 1.0
C      1  0.5587690000000  0.4428710000000  0.5425940000000 1.0
C      1  0.5495650000000  0.5466510000000  0.4510000000000 1.0
C      1  0.5520770000000  0.4392510000000  0.4457150000000 1.0
C      1  0.5470440000000  0.5464650000000  0.5522070000000 1.0
C      1  0.5699140000000  0.5334710000000  0.5628510000000 1.0
C      1  0.5706960000000  0.4564200000000  0.4372850000000 1.0
C      1  0.5718810000000  0.5356970000000  0.4365380000000 1.0
C      1  0.5721040000000  0.4624020000000  0.5593660000000 1.0
C      1  0.5024500000000  0.5707020000000  0.5609260000000 1.0
C      1  0.5041810000000  0.4325670000000  0.4404230000000 1.0
C      1  0.5020270000000  0.5694130000000  0.4378220000000 1.0
C      1  0.5037970000000  0.4345450000000  0.5588910000000 1.0
C      1  0.5888950000000  0.4680120000000  0.4591110000000 1.0
C      1  0.5832470000000  0.5222010000000  0.5376460000000 1.0
C      1  0.5830220000000  0.4798410000000  0.5370660000000 1.0
C      1  0.5874810000000  0.5280250000000  0.4607540000000 1.0
C      1  0.5598920000000  0.5242150000000  0.5208690000000 1.0
C      1  0.5659120000000  0.4830270000000  0.4680580000000 1.0
C      1  0.5706270000000  0.5104760000000  0.4766440000000 1.0
C      1  0.5563520000000  0.4804360000000  0.5254710000000 1.0
C      1  0.5591750000000  0.5012400000000  0.4170590000000 1.0
C      1  0.5600690000000  0.4967300000000  0.5798710000000 1.0
C      1  0.4406920000000  0.4448660000000  0.4978040000000 1.0
C      1  0.4397910000000  0.5546950000000  0.5010230000000 1.0
C      1  0.4955220000000  0.5977810000000  0.4994550000000 1.0
C      1  0.4962300000000  0.4009160000000  0.4990660000000 1.0
C      1  0.4930730000000  0.5070210000000  0.5322220000000 1.0
C      1  0.4902360000000  0.4997620000000  0.4680360000000 1.0
C      1  0.5163800000000  0.5020280000000  0.4545980000000 1.0
C      1  0.5164300000000  0.5032830000000  0.5478420000000 1.0
C      1  0.4407240000000  0.5010050000000  0.5238920000000 1.0
C      1  0.4451500000000  0.5005050000000  0.4772250000000 1.0
C      1  0.4563420000000  0.5034660000000  0.5488060000000 1.0
C      1  0.4641480000000  0.5047800000000  0.4562610000000 1.0
C      1  0.5247270000000  0.4038490000000  0.4980360000000 1.0
C      1  0.5237050000000  0.5980780000000  0.4987820000000 1.0
C      1  0.4915280000000  0.4542090000000  0.4981570000000 1.0
C      1  0.4922840000000  0.5460370000000  0.5026880000000 1.0
C      1  0.4937460000000  0.5036090000000  0.6048760000000 1.0
C      1  0.4931040000000  0.4959440000000  0.3947370000000 1.0
C      1  0.6188230000000  0.4936310000000  0.4957380000000 1.0
C      1  0.4578360000000  0.5018390000000  0.5018280000000 1.0
C      1  0.5927040000000  0.5108720000000  0.4986000000000 1.0
C      1  0.6415880000000  0.4990120000000  0.5007870000000 1.0
C      1  0.3843630000000  0.4951960000000  0.5110670000000 1.0
C      1  0.3599620000000  0.4996700000000  0.5083880000000 1.0
C      1  0.5460180000000  0.5025310000000  0.5144300000000 1.0
C      1  0.3956080000000  0.4977190000000  0.4824170000000 1.0
C      1  0.5243760000000  0.5021060000000  0.4948350000000 1.0
C      1  0.4808100000000  0.4903130000000  0.5125810000000 1.0
END
