TITL C-2441164-471-713 0.120401459452822 125000 -19430.8560925756 0 0 152 (C1) n - 1
REM
REM in /home/bkarasulu/work/CARBON/AIRSS/Generating-Clusters/ReaxFF-fromJPCA2015/Units_Real/with-SteepDescent/Higher-Symm
REM
REM
REM
REM
REM
REM ./C.cell (1df0a924f5614ab8850e4351716899ee)
REM
REM compiler GCC version 9.2.1 20190827 (Red Hat 9.2.1-1)
REM options -cpp -mtune=generic -march=x86-64 -g -O0 -fpre-include=/usr/include/finclude/math-vector-fortran.h
REM seed -919535104 -2143771946 167336082 1727861733 -1150056707 -231734351 148739389 1437866384 -930467862 -364263748 -236570093 767780844 -1495507034 -1745115616 -1910201848 -805707986 -1166463368 1576716266 -1397720232 408686533 1145733169 -1739539058 -1214995156 428262172 -798336475 1988832982 -2045185783 -1251930667 -1248428529 -1589128779 306072947 -920307260 965626354
REM
CELL 1.54180   50.00000   50.00000   50.00000   90.00000   90.00000   90.00000
LATT -1
SFAC C  
C      1  0.5214530000000  0.5295690000000  0.4134060000000 1.0
C      1  0.4140190000000  0.5287440000000  0.5256120000000 1.0
C      1  0.5530810000000  0.5328680000000  0.5678770000000 1.0
C      1  0.4887040000000  0.4132000000000  0.4591830000000 1.0
C      1  0.4729930000000  0.4181610000000  0.5316150000000 1.0
C      1  0.5398150000000  0.4178720000000  0.5118060000000 1.0
C      1  0.4839530000000  0.4393790000000  0.5711080000000 1.0
C      1  0.5702370000000  0.4391780000000  0.4807260000000 1.0
C      1  0.4489680000000  0.4387570000000  0.4468560000000 1.0
C      1  0.4952280000000  0.4607100000000  0.4456620000000 1.0
C      1  0.4591980000000  0.4653880000000  0.5376650000000 1.0
C      1  0.5508000000000  0.4667210000000  0.5172120000000 1.0
C      1  0.5264800000000  0.5799500000000  0.4465800000000 1.0
C      1  0.4376450000000  0.5834750000000  0.5017900000000 1.0
C      1  0.5343010000000  0.5848280000000  0.5503810000000 1.0
C      1  0.4920970000000  0.5086200000000  0.4410030000000 1.0
C      1  0.4555940000000  0.5162130000000  0.5378810000000 1.0
C      1  0.5531410000000  0.5191430000000  0.5160180000000 1.0
C      1  0.5255880000000  0.5250220000000  0.4574880000000 1.0
C      1  0.4555870000000  0.5177450000000  0.5032560000000 1.0
C      1  0.5197020000000  0.5187710000000  0.5365070000000 1.0
C      1  0.5053400000000  0.4915820000000  0.4756860000000 1.0
C      1  0.4701440000000  0.4918480000000  0.5066520000000 1.0
C      1  0.5208500000000  0.4936300000000  0.5249000000000 1.0
C      1  0.5832300000000  0.4821710000000  0.4361260000000 1.0
C      1  0.4032330000000  0.4844810000000  0.4614530000000 1.0
C      1  0.5135440000000  0.4850050000000  0.6026860000000 1.0
C      1  0.5194660000000  0.5562270000000  0.4073160000000 1.0
C      1  0.4080650000000  0.5553900000000  0.5296660000000 1.0
C      1  0.5717190000000  0.5551400000000  0.5643940000000 1.0
C      1  0.4307750000000  0.4797160000000  0.4682170000000 1.0
C      1  0.5066390000000  0.4806680000000  0.5753280000000 1.0
C      1  0.5628480000000  0.4800040000000  0.4562510000000 1.0
C      1  0.5419080000000  0.5282320000000  0.5935160000000 1.0
C      1  0.5611440000000  0.5261200000000  0.4155850000000 1.0
C      1  0.3950360000000  0.5245390000000  0.4892860000000 1.0
C      1  0.5032570000000  0.4553800000000  0.5269790000000 1.0
C      1  0.5239290000000  0.4540700000000  0.4822550000000 1.0
C      1  0.4747290000000  0.4542400000000  0.4868360000000 1.0
C      1  0.4206080000000  0.4446920000000  0.5299680000000 1.0
C      1  0.5633290000000  0.4451240000000  0.5537040000000 1.0
C      1  0.5213190000000  0.4381170000000  0.4186860000000 1.0
C      1  0.4670420000000  0.5461080000000  0.4177050000000 1.0
C      1  0.4492810000000  0.5366780000000  0.5596160000000 1.0
C      1  0.5807090000000  0.5378020000000  0.5158440000000 1.0
C      1  0.5414380000000  0.5086040000000  0.4054790000000 1.0
C      1  0.4007870000000  0.5092500000000  0.5111290000000 1.0
C      1  0.5571400000000  0.5090290000000  0.5799920000000 1.0
C      1  0.4805130000000  0.5705540000000  0.4284410000000 1.0
C      1  0.4448660000000  0.5691350000000  0.5519350000000 1.0
C      1  0.5709380000000  0.5671980000000  0.5191190000000 1.0
C      1  0.5409130000000  0.4806940000000  0.5398330000000 1.0
C      1  0.5079440000000  0.4857970000000  0.4488350000000 1.0
C      1  0.4467130000000  0.4785090000000  0.5163800000000 1.0
C      1  0.5940810000000  0.4711670000000  0.5193170000000 1.0
C      1  0.4724140000000  0.4757760000000  0.4081700000000 1.0
C      1  0.4347490000000  0.4709510000000  0.5736760000000 1.0
C      1  0.5228900000000  0.4116890000000  0.4591010000000 1.0
C      1  0.4469530000000  0.4174160000000  0.4907460000000 1.0
C      1  0.5264740000000  0.4137070000000  0.5404600000000 1.0
C      1  0.5591090000000  0.4662710000000  0.4302110000000 1.0
C      1  0.4113220000000  0.4672450000000  0.4838440000000 1.0
C      1  0.5295290000000  0.4675760000000  0.5853710000000 1.0
C      1  0.5812820000000  0.5353590000000  0.4858000000000 1.0
C      1  0.4468220000000  0.5371540000000  0.4348010000000 1.0
C      1  0.4740500000000  0.5492830000000  0.5728830000000 1.0
C      1  0.5952410000000  0.5169070000000  0.5373180000000 1.0
C      1  0.4793560000000  0.5264680000000  0.3990940000000 1.0
C      1  0.4236400000000  0.5183970000000  0.5640910000000 1.0
C      1  0.5523990000000  0.4937830000000  0.5011930000000 1.0
C      1  0.4676610000000  0.5016120000000  0.4558710000000 1.0
C      1  0.4715210000000  0.4963060000000  0.5505490000000 1.0
C      1  0.4383070000000  0.5112000000000  0.4802550000000 1.0
C      1  0.5108960000000  0.5111280000000  0.5627840000000 1.0
C      1  0.5511030000000  0.5120850000000  0.4532460000000 1.0
C      1  0.4401220000000  0.5584930000000  0.4872140000000 1.0
C      1  0.5215450000000  0.5590760000000  0.5518040000000 1.0
C      1  0.5376410000000  0.5548790000000  0.4578400000000 1.0
C      1  0.5746280000000  0.4703620000000  0.5604240000000 1.0
C      1  0.5174310000000  0.4621180000000  0.4058830000000 1.0
C      1  0.4110630000000  0.4714860000000  0.5353480000000 1.0
C      1  0.4161270000000  0.4821020000000  0.5093320000000 1.0
C      1  0.5500040000000  0.4827880000000  0.5691490000000 1.0
C      1  0.5388630000000  0.4798630000000  0.4141950000000 1.0
C      1  0.5180430000000  0.5887100000000  0.5230540000000 1.0
C      1  0.5129590000000  0.5899400000000  0.4723020000000 1.0
C      1  0.4679080000000  0.5873960000000  0.5015580000000 1.0
C      1  0.4665100000000  0.5566940000000  0.5007410000000 1.0
C      1  0.5217580000000  0.5589900000000  0.5227430000000 1.0
C      1  0.5058640000000  0.5599230000000  0.4747200000000 1.0
C      1  0.5922110000000  0.5066080000000  0.4490350000000 1.0
C      1  0.4115590000000  0.5088330000000  0.4485290000000 1.0
C      1  0.4960640000000  0.5086140000000  0.6012200000000 1.0
C      1  0.4623740000000  0.4258190000000  0.5572810000000 1.0
C      1  0.5677200000000  0.4264070000000  0.5062880000000 1.0
C      1  0.4688600000000  0.4204390000000  0.4394470000000 1.0
C      1  0.4406050000000  0.4469750000000  0.5547010000000 1.0
C      1  0.5760600000000  0.4465210000000  0.5261620000000 1.0
C      1  0.4886800000000  0.4528350000000  0.4182040000000 1.0
C      1  0.4799380000000  0.4643690000000  0.5843910000000 1.0
C      1  0.5810440000000  0.4653220000000  0.4762010000000 1.0
C      1  0.4391550000000  0.4654250000000  0.4401730000000 1.0
C      1  0.4739860000000  0.4062890000000  0.4853750000000 1.0
C      1  0.4998700000000  0.4060180000000  0.5308210000000 1.0
C      1  0.5238240000000  0.4061060000000  0.4868650000000 1.0
C      1  0.4050980000000  0.5359100000000  0.5509030000000 1.0
C      1  0.5915430000000  0.5368220000000  0.5562760000000 1.0
C      1  0.5051410000000  0.5376870000000  0.3921330000000 1.0
C      1  0.5452630000000  0.4446790000000  0.4657410000000 1.0
C      1  0.4498360000000  0.4438620000000  0.4777990000000 1.0
C      1  0.5086670000000  0.4464280000000  0.5553370000000 1.0
C      1  0.5283030000000  0.4836760000000  0.4883480000000 1.0
C      1  0.4773980000000  0.4844390000000  0.4792380000000 1.0
C      1  0.4936460000000  0.4845440000000  0.5269970000000 1.0
C      1  0.4797820000000  0.5520450000000  0.5254290000000 1.0
C      1  0.5361540000000  0.5406400000000  0.5058070000000 1.0
C      1  0.4826570000000  0.5462000000000  0.4660670000000 1.0
C      1  0.4671790000000  0.5822410000000  0.4512570000000 1.0
C      1  0.4723290000000  0.5747540000000  0.5585360000000 1.0
C      1  0.5575520000000  0.5767940000000  0.4949160000000 1.0
C      1  0.5136780000000  0.5316250000000  0.5981920000000 1.0
C      1  0.5726110000000  0.5290930000000  0.4416000000000 1.0
C      1  0.4161020000000  0.5293300000000  0.4706290000000 1.0
C      1  0.5220640000000  0.5257730000000  0.4865500000000 1.0
C      1  0.4778730000000  0.5253380000000  0.4848670000000 1.0
C      1  0.4955030000000  0.5289000000000  0.5251930000000 1.0
C      1  0.4525620000000  0.5559220000000  0.4587120000000 1.0
C      1  0.5032950000000  0.5391910000000  0.5717430000000 1.0
C      1  0.5631880000000  0.5560660000000  0.4742000000000 1.0
C      1  0.4803880000000  0.5926920000000  0.4745310000000 1.0
C      1  0.4854980000000  0.5803220000000  0.5312270000000 1.0
C      1  0.5315300000000  0.5899260000000  0.4970080000000 1.0
C      1  0.4731900000000  0.5049350000000  0.5829490000000 1.0
C      1  0.5910770000000  0.5089370000000  0.4780310000000 1.0
C      1  0.4396590000000  0.5082920000000  0.4371620000000 1.0
C      1  0.5620890000000  0.5755520000000  0.5450700000000 1.0
C      1  0.5087900000000  0.5739740000000  0.4252320000000 1.0
C      1  0.4286430000000  0.5761350000000  0.5290300000000 1.0
C      1  0.4856370000000  0.5014410000000  0.4122730000000 1.0
C      1  0.4211100000000  0.4893240000000  0.5576150000000 1.0
C      1  0.5903360000000  0.4876950000000  0.5412900000000 1.0
C      1  0.4463060000000  0.4820240000000  0.4193360000000 1.0
C      1  0.4569900000000  0.4813230000000  0.5894860000000 1.0
C      1  0.5959620000000  0.4824020000000  0.4926930000000 1.0
C      1  0.4752900000000  0.4458090000000  0.5181540000000 1.0
C      1  0.5282250000000  0.4480490000000  0.5098390000000 1.0
C      1  0.4968660000000  0.4453470000000  0.4701950000000 1.0
C      1  0.5356480000000  0.4356310000000  0.5600710000000 1.0
C      1  0.5382500000000  0.4308960000000  0.4408020000000 1.0
C      1  0.4259450000000  0.4343600000000  0.5038360000000 1.0
C      1  0.4989540000000  0.5216290000000  0.4989890000000 1.0
C      1  0.4978550000000  0.4019210000000  0.5011970000000 1.0
END
