TITL C-2441167-4473-993 0.169316253592166 125000 -18219.9120971879 0 0 154 (C1) n - 1
REM
REM in /home/bkarasulu/work/CARBON/AIRSS/Generating-Clusters/ReaxFF-fromJPCA2015/Units_Real/with-SteepDescent/Higher-Symm
REM
REM
REM
REM
REM
REM ./C.cell (1df0a924f5614ab8850e4351716899ee)
REM
REM compiler GCC version 9.2.1 20190827 (Red Hat 9.2.1-1)
REM options -cpp -mtune=generic -march=x86-64 -g -O0 -fpre-include=/usr/include/finclude/math-vector-fortran.h
REM seed -1096729856 1759624042 1425704331 -302915994 -125859811 1309974822 827511763 834304889 -750695087 -1428814459 1434157956 1153802591 416633273 2101442519 -1864353563 923562108 616388655 -1401776587 -1166858171 1537193324 2066528374 -127189343 1500304097 -1184687039 -1814962565 -1731663458 -1498935013 946949707 -1194033723 -285802450 1231293939 -1709659615 -36563655
REM
CELL 1.54180   50.00000   50.00000   50.00000   90.00000   90.00000   90.00000
LATT -1
SFAC C  
C      1  0.5539040000000  0.4799610000000  0.4859620000000 1.0
C      1  0.5268040000000  0.4482110000000  0.4849570000000 1.0
C      1  0.4882890000000  0.4410210000000  0.4883300000000 1.0
C      1  0.4560870000000  0.4658780000000  0.4848690000000 1.0
C      1  0.4413450000000  0.5032400000000  0.4914870000000 1.0
C      1  0.4553310000000  0.5422800000000  0.4909960000000 1.0
C      1  0.4921040000000  0.5557870000000  0.4819000000000 1.0
C      1  0.5358380000000  0.5537250000000  0.4917200000000 1.0
C      1  0.5582550000000  0.5197660000000  0.4895140000000 1.0
C      1  0.4696530000000  0.5465800000000  0.5996090000000 1.0
C      1  0.4936690000000  0.5458340000000  0.5917530000000 1.0
C      1  0.5393290000000  0.5305930000000  0.5896850000000 1.0
C      1  0.5477480000000  0.5093940000000  0.5985030000000 1.0
C      1  0.5494570000000  0.4850180000000  0.5932520000000 1.0
C      1  0.5074760000000  0.4540000000000  0.5874400000000 1.0
C      1  0.4839240000000  0.4565240000000  0.5955270000000 1.0
C      1  0.4513630000000  0.4795650000000  0.5913090000000 1.0
C      1  0.4564340000000  0.5079190000000  0.5907240000000 1.0
C      1  0.5472500000000  0.5214220000000  0.4260020000000 1.0
C      1  0.5726560000000  0.4812840000000  0.4282260000000 1.0
C      1  0.5347050000000  0.4551950000000  0.4295430000000 1.0
C      1  0.4962500000000  0.4447630000000  0.4286180000000 1.0
C      1  0.4487480000000  0.4482820000000  0.4290080000000 1.0
C      1  0.4458500000000  0.4939370000000  0.4262010000000 1.0
C      1  0.4424460000000  0.5390760000000  0.4284890000000 1.0
C      1  0.4859060000000  0.5518940000000  0.4291460000000 1.0
C      1  0.5320690000000  0.5665190000000  0.4261130000000 1.0
C      1  0.5751800000000  0.4184250000000  0.4844130000000 1.0
C      1  0.5116980000000  0.3900260000000  0.4859240000000 1.0
C      1  0.4405440000000  0.4076890000000  0.4863140000000 1.0
C      1  0.3911860000000  0.4766640000000  0.4847370000000 1.0
C      1  0.4013450000000  0.5412240000000  0.4857810000000 1.0
C      1  0.4532710000000  0.5993790000000  0.4854160000000 1.0
C      1  0.5293590000000  0.6078550000000  0.4866580000000 1.0
C      1  0.5861740000000  0.5642340000000  0.4856770000000 1.0
C      1  0.6106510000000  0.4948180000000  0.4875250000000 1.0
C      1  0.5516310000000  0.5190040000000  0.5439680000000 1.0
C      1  0.5535560000000  0.4918100000000  0.5402380000000 1.0
C      1  0.5309270000000  0.4517570000000  0.5389240000000 1.0
C      1  0.4895470000000  0.4477430000000  0.5454430000000 1.0
C      1  0.4648040000000  0.4561430000000  0.5368270000000 1.0
C      1  0.4494790000000  0.5020850000000  0.5439240000000 1.0
C      1  0.4538810000000  0.5302010000000  0.5472940000000 1.0
C      1  0.4872800000000  0.5498750000000  0.5426180000000 1.0
C      1  0.5174050000000  0.5506770000000  0.5404250000000 1.0
C      1  0.4799160000000  0.5756510000000  0.5546620000000 1.0
C      1  0.5328460000000  0.5708680000000  0.5551950000000 1.0
C      1  0.5731240000000  0.5330210000000  0.5560520000000 1.0
C      1  0.5766350000000  0.4794210000000  0.5543200000000 1.0
C      1  0.5464720000000  0.4325250000000  0.5538730000000 1.0
C      1  0.4917260000000  0.4209970000000  0.5564840000000 1.0
C      1  0.4441570000000  0.4445160000000  0.5528060000000 1.0
C      1  0.4220080000000  0.4945770000000  0.5540490000000 1.0
C      1  0.4330330000000  0.5472580000000  0.5565440000000 1.0
C      1  0.4163170000000  0.4479200000000  0.4996050000000 1.0
C      1  0.3982010000000  0.5192200000000  0.5043110000000 1.0
C      1  0.4345170000000  0.5780970000000  0.5009190000000 1.0
C      1  0.4998680000000  0.6010810000000  0.5011930000000 1.0
C      1  0.5674580000000  0.5788100000000  0.5040550000000 1.0
C      1  0.6027330000000  0.5187120000000  0.5038640000000 1.0
C      1  0.5885600000000  0.4530810000000  0.5001740000000 1.0
C      1  0.5340280000000  0.4019080000000  0.5035530000000 1.0
C      1  0.4643930000000  0.4018100000000  0.5029770000000 1.0
C      1  0.5185270000000  0.5371970000000  0.5661710000000 1.0
C      1  0.5309240000000  0.5157800000000  0.5621020000000 1.0
C      1  0.5357630000000  0.4887410000000  0.5681710000000 1.0
C      1  0.5265000000000  0.4652360000000  0.5621560000000 1.0
C      1  0.5022100000000  0.4665460000000  0.5602620000000 1.0
C      1  0.4659420000000  0.4657470000000  0.5769730000000 1.0
C      1  0.4664160000000  0.4912240000000  0.5679310000000 1.0
C      1  0.4647400000000  0.5293420000000  0.5732360000000 1.0
C      1  0.4915410000000  0.5301700000000  0.5651470000000 1.0
C      1  0.4658410000000  0.5877010000000  0.4619160000000 1.0
C      1  0.5294580000000  0.5920970000000  0.4630850000000 1.0
C      1  0.5790060000000  0.5508550000000  0.4610030000000 1.0
C      1  0.5966650000000  0.4903270000000  0.4630780000000 1.0
C      1  0.5623870000000  0.4280780000000  0.4614860000000 1.0
C      1  0.5032720000000  0.4041800000000  0.4612930000000 1.0
C      1  0.4434710000000  0.4237960000000  0.4629510000000 1.0
C      1  0.4065710000000  0.4842030000000  0.4628380000000 1.0
C      1  0.4140850000000  0.5385870000000  0.4608950000000 1.0
C      1  0.4941580000000  0.5409370000000  0.5051670000000 1.0
C      1  0.5212770000000  0.5371380000000  0.5141750000000 1.0
C      1  0.5367250000000  0.5133930000000  0.5046500000000 1.0
C      1  0.5415110000000  0.4854160000000  0.5121270000000 1.0
C      1  0.5222010000000  0.4607350000000  0.5126220000000 1.0
C      1  0.4939580000000  0.4626210000000  0.5038940000000 1.0
C      1  0.4675760000000  0.4714070000000  0.5121490000000 1.0
C      1  0.4593280000000  0.4998080000000  0.5148670000000 1.0
C      1  0.4705810000000  0.5265080000000  0.5069700000000 1.0
C      1  0.4277220000000  0.5150960000000  0.4239400000000 1.0
C      1  0.4599530000000  0.5567590000000  0.4232140000000 1.0
C      1  0.5037350000000  0.5737680000000  0.4270150000000 1.0
C      1  0.5430290000000  0.5464600000000  0.4211580000000 1.0
C      1  0.5729740000000  0.5104050000000  0.4260530000000 1.0
C      1  0.5552040000000  0.4631480000000  0.4219720000000 1.0
C      1  0.5223750000000  0.4313450000000  0.4250350000000 1.0
C      1  0.4714780000000  0.4304130000000  0.4257240000000 1.0
C      1  0.4388080000000  0.4699620000000  0.4225390000000 1.0
C      1  0.5862520000000  0.5264600000000  0.4470970000000 1.0
C      1  0.5844060000000  0.4684260000000  0.4495060000000 1.0
C      1  0.5386050000000  0.4192100000000  0.4470420000000 1.0
C      1  0.4787880000000  0.4115180000000  0.4470370000000 1.0
C      1  0.4295160000000  0.4445010000000  0.4488250000000 1.0
C      1  0.4099050000000  0.5106800000000  0.4477530000000 1.0
C      1  0.4336010000000  0.5578410000000  0.4465760000000 1.0
C      1  0.4909840000000  0.5889920000000  0.4476150000000 1.0
C      1  0.5469970000000  0.5761890000000  0.4478820000000 1.0
C      1  0.5351030000000  0.5134790000000  0.4504730000000 1.0
C      1  0.5378070000000  0.4895650000000  0.4654020000000 1.0
C      1  0.5237990000000  0.4653550000000  0.4576160000000 1.0
C      1  0.4957540000000  0.4633570000000  0.4494670000000 1.0
C      1  0.4731270000000  0.4738770000000  0.4635230000000 1.0
C      1  0.4627260000000  0.4962160000000  0.4491810000000 1.0
C      1  0.4744770000000  0.5151310000000  0.4657840000000 1.0
C      1  0.4892160000000  0.5393970000000  0.4573290000000 1.0
C      1  0.5139280000000  0.5233190000000  0.4652540000000 1.0
C      1  0.5707170000000  0.4503500000000  0.5481550000000 1.0
C      1  0.5205440000000  0.4154810000000  0.5508340000000 1.0
C      1  0.4616160000000  0.4192240000000  0.5516420000000 1.0
C      1  0.4223280000000  0.4654390000000  0.5479050000000 1.0
C      1  0.4152320000000  0.5235990000000  0.5508110000000 1.0
C      1  0.4508430000000  0.5719520000000  0.5498530000000 1.0
C      1  0.5084620000000  0.5872370000000  0.5505130000000 1.0
C      1  0.5603830000000  0.5600480000000  0.5504670000000 1.0
C      1  0.5883990000000  0.5067210000000  0.5513350000000 1.0
C      1  0.5036700000000  0.5805410000000  0.4729480000000 1.0
C      1  0.5505500000000  0.5540000000000  0.4670990000000 1.0
C      1  0.5777890000000  0.5114960000000  0.4705320000000 1.0
C      1  0.5701550000000  0.4575920000000  0.4741010000000 1.0
C      1  0.5218500000000  0.4250760000000  0.4694090000000 1.0
C      1  0.4715440000000  0.4283180000000  0.4694510000000 1.0
C      1  0.4281540000000  0.4630360000000  0.4739150000000 1.0
C      1  0.4310410000000  0.5161070000000  0.4708710000000 1.0
C      1  0.4516550000000  0.5609890000000  0.4699180000000 1.0
C      1  0.4925960000000  0.3940500000000  0.5067060000000 1.0
C      1  0.4289290000000  0.4231300000000  0.5076910000000 1.0
C      1  0.3949520000000  0.4902910000000  0.5091160000000 1.0
C      1  0.4145230000000  0.5572670000000  0.5054030000000 1.0
C      1  0.4709610000000  0.6003160000000  0.5077180000000 1.0
C      1  0.5437320000000  0.5955540000000  0.5076940000000 1.0
C      1  0.5915780000000  0.5451990000000  0.5063260000000 1.0
C      1  0.6024910000000  0.4765640000000  0.5085840000000 1.0
C      1  0.5606590000000  0.4142710000000  0.5081200000000 1.0
C      1  0.4127540000000  0.5329140000000  0.5238610000000 1.0
C      1  0.4529140000000  0.5810610000000  0.5227100000000 1.0
C      1  0.5172630000000  0.5918770000000  0.5232420000000 1.0
C      1  0.5712940000000  0.5590690000000  0.5236650000000 1.0
C      1  0.5942940000000  0.5013180000000  0.5243330000000 1.0
C      1  0.5719130000000  0.4401860000000  0.5207930000000 1.0
C      1  0.5150880000000  0.4067720000000  0.5238700000000 1.0
C      1  0.4539570000000  0.4174190000000  0.5235370000000 1.0
C      1  0.4136100000000  0.4686520000000  0.5199620000000 1.0
C      1  0.4976660000000  0.5051870000000  0.4827180000000 1.0
END
