TITL C-2441164-471-1038 0.102542260857778 125000 -26154.432634008 0 0 187 (C1) n - 1
REM
REM in /home/bkarasulu/work/CARBON/AIRSS/Generating-Clusters/ReaxFF-fromJPCA2015/Units_Real/with-SteepDescent/Higher-Symm
REM
REM
REM
REM
REM
REM ./C.cell (1df0a924f5614ab8850e4351716899ee)
REM
REM compiler GCC version 9.2.1 20190827 (Red Hat 9.2.1-1)
REM options -cpp -mtune=generic -march=x86-64 -g -O0 -fpre-include=/usr/include/finclude/math-vector-fortran.h
REM seed -895785155 -1894072608 -438904999 475402275 942781897 -632855719 -767655773 -607501964 -941913609 513199655 178853601 532663008 -1675135982 -1754519168 1306535850 1361420529 -350468866 1045024167 -546784905 1500367444 -1455805898 1163947366 -93137646 837878329 1236406718 1521726776 956528571 304318107 -76019291 -1973772191 -1661760973 1984759825 -1663630897
REM
CELL 1.54180   50.00000   50.00000   50.00000   90.00000   90.00000   90.00000
LATT -1
SFAC C  
C      1  0.4951970000000  0.5621380000000  0.5820690000000 1.0
C      1  0.4950310000000  0.4392160000000  0.4197300000000 1.0
C      1  0.5033130000000  0.4386760000000  0.5819230000000 1.0
C      1  0.5028510000000  0.5593800000000  0.4210710000000 1.0
C      1  0.4954330000000  0.5825610000000  0.5628210000000 1.0
C      1  0.4958930000000  0.4195660000000  0.4392790000000 1.0
C      1  0.5019090000000  0.5761920000000  0.4446320000000 1.0
C      1  0.5031880000000  0.4188660000000  0.5621850000000 1.0
C      1  0.4538720000000  0.4671440000000  0.4116240000000 1.0
C      1  0.4535320000000  0.5325780000000  0.5843340000000 1.0
C      1  0.5454120000000  0.5324620000000  0.4126910000000 1.0
C      1  0.5456440000000  0.4674240000000  0.5860630000000 1.0
C      1  0.4567230000000  0.4082940000000  0.4689060000000 1.0
C      1  0.4539390000000  0.5872720000000  0.5334530000000 1.0
C      1  0.5451300000000  0.4123980000000  0.5336560000000 1.0
C      1  0.5462160000000  0.5885600000000  0.4673790000000 1.0
C      1  0.5594860000000  0.4865340000000  0.4105090000000 1.0
C      1  0.5598710000000  0.5123780000000  0.5903410000000 1.0
C      1  0.4385030000000  0.5150370000000  0.4089170000000 1.0
C      1  0.4381310000000  0.4875710000000  0.5884950000000 1.0
C      1  0.5594280000000  0.4121000000000  0.4863760000000 1.0
C      1  0.5635180000000  0.5918020000000  0.5152680000000 1.0
C      1  0.4389160000000  0.4083580000000  0.5151590000000 1.0
C      1  0.4388020000000  0.5898160000000  0.4863090000000 1.0
C      1  0.5297520000000  0.4140650000000  0.4865650000000 1.0
C      1  0.5345950000000  0.5890330000000  0.5139360000000 1.0
C      1  0.4684480000000  0.5876250000000  0.4869100000000 1.0
C      1  0.4676940000000  0.4136980000000  0.5165740000000 1.0
C      1  0.5299690000000  0.4864450000000  0.4115530000000 1.0
C      1  0.5311890000000  0.5128100000000  0.5862200000000 1.0
C      1  0.4672860000000  0.4872880000000  0.5892090000000 1.0
C      1  0.4677840000000  0.5145710000000  0.4096940000000 1.0
C      1  0.4953420000000  0.5138080000000  0.6096990000000 1.0
C      1  0.4958740000000  0.4855750000000  0.3859930000000 1.0
C      1  0.5038860000000  0.4854030000000  0.6084630000000 1.0
C      1  0.5032170000000  0.5144410000000  0.3858420000000 1.0
C      1  0.4955820000000  0.6085810000000  0.5139900000000 1.0
C      1  0.4913990000000  0.3915500000000  0.4844030000000 1.0
C      1  0.5044480000000  0.6089150000000  0.4854760000000 1.0
C      1  0.5027200000000  0.3915550000000  0.5126810000000 1.0
C      1  0.5792800000000  0.5305600000000  0.5523930000000 1.0
C      1  0.5809330000000  0.4693320000000  0.4494630000000 1.0
C      1  0.4152180000000  0.4684940000000  0.5515590000000 1.0
C      1  0.4170170000000  0.5322300000000  0.4479700000000 1.0
C      1  0.5863310000000  0.5539140000000  0.5352080000000 1.0
C      1  0.5840900000000  0.4486130000000  0.4684580000000 1.0
C      1  0.4130410000000  0.5540410000000  0.4678390000000 1.0
C      1  0.4190210000000  0.4490130000000  0.5306190000000 1.0
C      1  0.4316840000000  0.4877760000000  0.4141230000000 1.0
C      1  0.4294160000000  0.5147090000000  0.5857840000000 1.0
C      1  0.5683790000000  0.5129850000000  0.4134760000000 1.0
C      1  0.5687200000000  0.4858120000000  0.5864540000000 1.0
C      1  0.4324290000000  0.4103660000000  0.4873750000000 1.0
C      1  0.4305360000000  0.5855030000000  0.5135170000000 1.0
C      1  0.5685960000000  0.4155730000000  0.5129670000000 1.0
C      1  0.5700090000000  0.5881170000000  0.4872700000000 1.0
C      1  0.4817090000000  0.6089270000000  0.4681520000000 1.0
C      1  0.4819400000000  0.3905830000000  0.5323960000000 1.0
C      1  0.5158530000000  0.3928440000000  0.4692350000000 1.0
C      1  0.5181080000000  0.6089590000000  0.5317500000000 1.0
C      1  0.4816650000000  0.4676780000000  0.6095140000000 1.0
C      1  0.4817340000000  0.5331880000000  0.3893740000000 1.0
C      1  0.5172470000000  0.4670590000000  0.3907240000000 1.0
C      1  0.5175550000000  0.5312920000000  0.6084380000000 1.0
C      1  0.4561410000000  0.5009930000000  0.4684800000000 1.0
C      1  0.4576450000000  0.5060180000000  0.5397070000000 1.0
C      1  0.5294170000000  0.5009080000000  0.4769830000000 1.0
C      1  0.5311660000000  0.4970130000000  0.5262640000000 1.0
C      1  0.4687140000000  0.4734540000000  0.5030290000000 1.0
C      1  0.4687620000000  0.5288160000000  0.4997380000000 1.0
C      1  0.5416050000000  0.4650700000000  0.5029070000000 1.0
C      1  0.5262660000000  0.5357240000000  0.5006290000000 1.0
C      1  0.3924370000000  0.4993630000000  0.5187930000000 1.0
C      1  0.3942670000000  0.5004880000000  0.4777200000000 1.0
C      1  0.6093860000000  0.4993840000000  0.5202550000000 1.0
C      1  0.6052350000000  0.5006840000000  0.4795480000000 1.0
C      1  0.3932100000000  0.5201710000000  0.4981950000000 1.0
C      1  0.3949710000000  0.4786660000000  0.4982380000000 1.0
C      1  0.6048830000000  0.5208330000000  0.5010770000000 1.0
C      1  0.6076010000000  0.4795170000000  0.4986650000000 1.0
C      1  0.5241650000000  0.5240540000000  0.4584640000000 1.0
C      1  0.5258610000000  0.4752670000000  0.5466160000000 1.0
C      1  0.4679450000000  0.4836950000000  0.4490490000000 1.0
C      1  0.4757520000000  0.5276160000000  0.5485160000000 1.0
C      1  0.5348580000000  0.4518490000000  0.5287040000000 1.0
C      1  0.5304630000000  0.5479640000000  0.4749040000000 1.0
C      1  0.4694740000000  0.4493130000000  0.4821620000000 1.0
C      1  0.4678150000000  0.5463290000000  0.5270560000000 1.0
C      1  0.4645740000000  0.5803000000000  0.5595060000000 1.0
C      1  0.4668480000000  0.4208890000000  0.4440160000000 1.0
C      1  0.5340310000000  0.4199170000000  0.5600210000000 1.0
C      1  0.5331500000000  0.5789130000000  0.4431710000000 1.0
C      1  0.4649750000000  0.5586980000000  0.5798190000000 1.0
C      1  0.4657940000000  0.4422530000000  0.4228290000000 1.0
C      1  0.5330820000000  0.5576100000000  0.4223140000000 1.0
C      1  0.5340160000000  0.4412260000000  0.5805040000000 1.0
C      1  0.5814750000000  0.5603880000000  0.4593760000000 1.0
C      1  0.5858630000000  0.4375800000000  0.5447770000000 1.0
C      1  0.4190800000000  0.4379650000000  0.4602080000000 1.0
C      1  0.4169480000000  0.5599080000000  0.5441410000000 1.0
C      1  0.5956100000000  0.4565820000000  0.5622420000000 1.0
C      1  0.5846230000000  0.5382270000000  0.4414880000000 1.0
C      1  0.4179310000000  0.4583690000000  0.4394770000000 1.0
C      1  0.4080190000000  0.5408330000000  0.5619220000000 1.0
C      1  0.5196840000000  0.4398670000000  0.4750260000000 1.0
C      1  0.5336360000000  0.5631800000000  0.5287950000000 1.0
C      1  0.4768670000000  0.5598430000000  0.4737640000000 1.0
C      1  0.4755050000000  0.4423040000000  0.5267240000000 1.0
C      1  0.5208570000000  0.4817140000000  0.4404160000000 1.0
C      1  0.5272340000000  0.5237870000000  0.5583500000000 1.0
C      1  0.4767210000000  0.4758480000000  0.5628070000000 1.0
C      1  0.4737730000000  0.5245220000000  0.4395380000000 1.0
C      1  0.4926570000000  0.5368080000000  0.4833950000000 1.0
C      1  0.4919570000000  0.4647450000000  0.5185410000000 1.0
C      1  0.4957510000000  0.4530870000000  0.4694210000000 1.0
C      1  0.5088520000000  0.5478060000000  0.5220910000000 1.0
C      1  0.4976100000000  0.4763670000000  0.5446760000000 1.0
C      1  0.4951570000000  0.5232290000000  0.4568380000000 1.0
C      1  0.4957920000000  0.4748180000000  0.4515840000000 1.0
C      1  0.5042120000000  0.5290530000000  0.5440560000000 1.0
C      1  0.4752120000000  0.4146830000000  0.4881140000000 1.0
C      1  0.4771020000000  0.5857650000000  0.5163890000000 1.0
C      1  0.5232980000000  0.5860060000000  0.4848050000000 1.0
C      1  0.5216190000000  0.4133900000000  0.5167410000000 1.0
C      1  0.4724360000000  0.4858720000000  0.4018580000000 1.0
C      1  0.4765950000000  0.5154360000000  0.5874440000000 1.0
C      1  0.5218450000000  0.4841720000000  0.5851280000000 1.0
C      1  0.5261650000000  0.5143440000000  0.4022800000000 1.0
C      1  0.4050930000000  0.5154160000000  0.5693300000000 1.0
C      1  0.4100960000000  0.4853190000000  0.4332920000000 1.0
C      1  0.5934530000000  0.4828520000000  0.5709580000000 1.0
C      1  0.5934270000000  0.5138350000000  0.4288620000000 1.0
C      1  0.4095230000000  0.5659140000000  0.5158530000000 1.0
C      1  0.4106010000000  0.4301970000000  0.4864010000000 1.0
C      1  0.5895600000000  0.5668510000000  0.4862400000000 1.0
C      1  0.5903940000000  0.4339990000000  0.5153980000000 1.0
C      1  0.5956310000000  0.4537380000000  0.4947590000000 1.0
C      1  0.5876590000000  0.5449480000000  0.5068290000000 1.0
C      1  0.4040800000000  0.5469290000000  0.4942920000000 1.0
C      1  0.4078180000000  0.4534400000000  0.5034450000000 1.0
C      1  0.5893310000000  0.4975660000000  0.4549590000000 1.0
C      1  0.5917460000000  0.5001690000000  0.5445670000000 1.0
C      1  0.4086490000000  0.4965840000000  0.5431150000000 1.0
C      1  0.4045650000000  0.5058470000000  0.4526310000000 1.0
C      1  0.4392780000000  0.5416850000000  0.5320550000000 1.0
C      1  0.4427390000000  0.4520600000000  0.4721510000000 1.0
C      1  0.5626030000000  0.4573710000000  0.5382410000000 1.0
C      1  0.5584500000000  0.5459760000000  0.4709680000000 1.0
C      1  0.4325870000000  0.5146600000000  0.5331470000000 1.0
C      1  0.4443040000000  0.4675930000000  0.4507920000000 1.0
C      1  0.5648650000000  0.5223050000000  0.4567670000000 1.0
C      1  0.5714640000000  0.4831590000000  0.5299310000000 1.0
C      1  0.4308910000000  0.5387340000000  0.4221760000000 1.0
C      1  0.4305170000000  0.4637250000000  0.5750260000000 1.0
C      1  0.5670290000000  0.4630200000000  0.4250040000000 1.0
C      1  0.5676390000000  0.5370300000000  0.5790200000000 1.0
C      1  0.4307400000000  0.4224730000000  0.5383070000000 1.0
C      1  0.4297680000000  0.5769450000000  0.4623110000000 1.0
C      1  0.5681640000000  0.4248620000000  0.4630910000000 1.0
C      1  0.5712550000000  0.5779200000000  0.5389950000000 1.0
C      1  0.5501410000000  0.5416980000000  0.5162300000000 1.0
C      1  0.5411660000000  0.4575810000000  0.4763870000000 1.0
C      1  0.4523070000000  0.4599490000000  0.5248830000000 1.0
C      1  0.4535070000000  0.5438920000000  0.4798680000000 1.0
C      1  0.5489460000000  0.5239330000000  0.5397180000000 1.0
C      1  0.5411340000000  0.4806890000000  0.4596870000000 1.0
C      1  0.4506050000000  0.5261560000000  0.4579000000000 1.0
C      1  0.4560300000000  0.4793310000000  0.5452460000000 1.0
C      1  0.4766080000000  0.4444960000000  0.5938390000000 1.0
C      1  0.4777560000000  0.5557200000000  0.4061760000000 1.0
C      1  0.5215540000000  0.5555820000000  0.5945110000000 1.0
C      1  0.5210500000000  0.4443320000000  0.4070970000000 1.0
C      1  0.4771500000000  0.5930610000000  0.4448540000000 1.0
C      1  0.4774870000000  0.4059560000000  0.5559110000000 1.0
C      1  0.5207790000000  0.5946520000000  0.5558380000000 1.0
C      1  0.5216060000000  0.4079050000000  0.4460740000000 1.0
C      1  0.5469520000000  0.4414520000000  0.4218220000000 1.0
C      1  0.5475460000000  0.5576370000000  0.5803630000000 1.0
C      1  0.4512510000000  0.5595410000000  0.4204950000000 1.0
C      1  0.4507970000000  0.4417490000000  0.5785500000000 1.0
C      1  0.5476220000000  0.4219630000000  0.4423370000000 1.0
C      1  0.5467080000000  0.5771150000000  0.5580630000000 1.0
C      1  0.4509440000000  0.4207960000000  0.5593220000000 1.0
C      1  0.4506710000000  0.5793520000000  0.4410470000000 1.0
C      1  0.4612960000000  0.5004720000000  0.4953600000000 1.0
C      1  0.5541930000000  0.4903960000000  0.5081700000000 1.0
C      1  0.5120530000000  0.4951250000000  0.5013280000000 1.0
END
