TITL C-2441160-1326-1138 0.00194393824936233 125000 -2637.31569460832 0 0 21 (Cs) n - 1
REM
REM in /home/bkarasulu/work/CARBON/AIRSS/Generating-Clusters/ReaxFF-fromJPCA2015/Units_Real/with-SteepDescent/Higher-Symm
REM
REM
REM
REM
REM
REM ./C.cell (1df0a924f5614ab8850e4351716899ee)
REM
REM compiler GCC version 9.2.1 20190827 (Red Hat 9.2.1-1)
REM options -cpp -mtune=generic -march=x86-64 -g -O0 -fpre-include=/usr/include/finclude/math-vector-fortran.h
REM seed 2127116964 -1717636097 117970242 1758197814 1483771918 -1436438081 439975563 -1629656746 912761011 -829770902 1516588348 -422725461 367478447 -1267934254 584641306 187218989 219856169 2099257038 -366186078 -479068461 -1168094578 1117445250 -1573632542 -1005720554 871220875 -32373423 -1970265029 -1930511763 -1450679072 -815488851 1495308212 -2054630322 -1278174154
REM
CELL 1.54180   50.00000   50.00000   50.00000   90.00000   90.00000   90.00000
LATT -1
SFAC C  
C      1  0.5304510000000  0.4576950000000  0.5398990000000 1.0
C      1  0.5315130000000  0.5390450000000  0.4532490000000 1.0
C      1  0.4708700000000  0.4577870000000  0.5399330000000 1.0
C      1  0.4697460000000  0.5389680000000  0.4531210000000 1.0
C      1  0.5366490000000  0.5436930000000  0.5454410000000 1.0
C      1  0.5291720000000  0.4560490000000  0.4570910000000 1.0
C      1  0.4645810000000  0.5434460000000  0.5456750000000 1.0
C      1  0.4721050000000  0.4560540000000  0.4571450000000 1.0
C      1  0.4661320000000  0.5275550000000  0.4743860000000 1.0
C      1  0.4649000000000  0.4688520000000  0.5190650000000 1.0
C      1  0.5351320000000  0.5275550000000  0.4744730000000 1.0
C      1  0.5364100000000  0.4687610000000  0.5190290000000 1.0
C      1  0.4655880000000  0.4679730000000  0.4773370000000 1.0
C      1  0.4731250000000  0.5278900000000  0.5258870000000 1.0
C      1  0.5356990000000  0.4679360000000  0.4772990000000 1.0
C      1  0.5281500000000  0.5277560000000  0.5259480000000 1.0
C      1  0.5434840000000  0.4852300000000  0.4976660000000 1.0
C      1  0.5390510000000  0.5151120000000  0.4974550000000 1.0
C      1  0.4578230000000  0.4853030000000  0.4976830000000 1.0
C      1  0.4622200000000  0.5151980000000  0.4974100000000 1.0
C      1  0.5006310000000  0.5226830000000  0.5142960000000 1.0
END
