TITL C-2441158-471-886 0.0280582306012373 125000 -15191.7605739538 0 0 106 (C1) n - 1
REM
REM in /home/bkarasulu/work/CARBON/AIRSS/Generating-Clusters/ReaxFF-fromJPCA2015/Units_Real/with-SteepDescent/Higher-Symm
REM
REM
REM
REM
REM
REM ./C.cell (1df0a924f5614ab8850e4351716899ee)
REM
REM compiler GCC version 9.2.1 20190827 (Red Hat 9.2.1-1)
REM options -cpp -mtune=generic -march=x86-64 -g -O0 -fpre-include=/usr/include/finclude/math-vector-fortran.h
REM seed 348240164 -78671182 -1996054828 -1063764572 -242649053 289513900 1650565720 1062618790 -993501035 -777203093 -1690651931 -1612508994 214667670 7779044 916949559 870648706 -317842402 1021144475 -1716089932 254639589 986504688 1700082919 1777612616 1071700466 -634773973 -1744339671 -788469589 1570200157 -2098090606 -2106088007 1030291976 199227293 -1968976375
REM
CELL 1.54180   50.00000   50.00000   50.00000   90.00000   90.00000   90.00000
LATT -1
SFAC C  
C      1  0.5284160000000  0.4638180000000  0.4990730000000 1.0
C      1  0.4859060000000  0.4650430000000  0.4752030000000 1.0
C      1  0.4857410000000  0.4651660000000  0.5238710000000 1.0
C      1  0.4710370000000  0.4678440000000  0.4998100000000 1.0
C      1  0.5140780000000  0.4636480000000  0.4752740000000 1.0
C      1  0.5140810000000  0.4642210000000  0.5234520000000 1.0
C      1  0.5225540000000  0.5415890000000  0.4162730000000 1.0
C      1  0.4171040000000  0.5435880000000  0.5229870000000 1.0
C      1  0.5640310000000  0.5537250000000  0.5491490000000 1.0
C      1  0.4954000000000  0.5499260000000  0.4202750000000 1.0
C      1  0.5775770000000  0.5423500000000  0.5301090000000 1.0
C      1  0.4365500000000  0.5499180000000  0.5452690000000 1.0
C      1  0.5642830000000  0.4999430000000  0.4930120000000 1.0
C      1  0.4543430000000  0.4994290000000  0.4417680000000 1.0
C      1  0.4749890000000  0.4993070000000  0.5618550000000 1.0
C      1  0.4371770000000  0.4997370000000  0.4888750000000 1.0
C      1  0.5363560000000  0.5004470000000  0.4503740000000 1.0
C      1  0.5256420000000  0.5011370000000  0.5568950000000 1.0
C      1  0.4664600000000  0.5438200000000  0.5753040000000 1.0
C      1  0.5831370000000  0.5424500000000  0.4888110000000 1.0
C      1  0.4521940000000  0.5435240000000  0.4337890000000 1.0
C      1  0.5307340000000  0.5441100000000  0.5729630000000 1.0
C      1  0.4238320000000  0.5461160000000  0.4942690000000 1.0
C      1  0.5423630000000  0.5448860000000  0.4358100000000 1.0
C      1  0.5716270000000  0.5216420000000  0.4730500000000 1.0
C      1  0.4388360000000  0.5229930000000  0.4494860000000 1.0
C      1  0.4853760000000  0.5219970000000  0.5790500000000 1.0
C      1  0.4275840000000  0.5238190000000  0.4763180000000 1.0
C      1  0.5555050000000  0.5222820000000  0.4488940000000 1.0
C      1  0.5141750000000  0.5209660000000  0.5780060000000 1.0
C      1  0.5422820000000  0.4200930000000  0.4913380000000 1.0
C      1  0.4777100000000  0.4192750000000  0.4715450000000 1.0
C      1  0.4849080000000  0.4185970000000  0.5384910000000 1.0
C      1  0.4589490000000  0.4193050000000  0.4933440000000 1.0
C      1  0.5280650000000  0.4197570000000  0.4666120000000 1.0
C      1  0.5131030000000  0.4185700000000  0.5329410000000 1.0
C      1  0.5194380000000  0.5627010000000  0.5525200000000 1.0
C      1  0.5352310000000  0.5649310000000  0.4576850000000 1.0
C      1  0.4471050000000  0.5649240000000  0.4894560000000 1.0
C      1  0.4793820000000  0.5610640000000  0.5544730000000 1.0
C      1  0.4644750000000  0.5615880000000  0.4534370000000 1.0
C      1  0.5591520000000  0.5616830000000  0.4913560000000 1.0
C      1  0.4700790000000  0.5105000000000  0.4991550000000 1.0
C      1  0.5146140000000  0.5119390000000  0.5277910000000 1.0
C      1  0.5163550000000  0.5122220000000  0.4747690000000 1.0
C      1  0.5323370000000  0.5119780000000  0.5006890000000 1.0
C      1  0.4846180000000  0.5111360000000  0.5280260000000 1.0
C      1  0.4865750000000  0.5129320000000  0.4749790000000 1.0
C      1  0.4154820000000  0.4768980000000  0.5312700000000 1.0
C      1  0.5643540000000  0.4753650000000  0.5648540000000 1.0
C      1  0.5193340000000  0.4764800000000  0.4141500000000 1.0
C      1  0.5873250000000  0.4731050000000  0.5237220000000 1.0
C      1  0.4302500000000  0.4771760000000  0.5571970000000 1.0
C      1  0.4766270000000  0.4748410000000  0.4093990000000 1.0
C      1  0.4207610000000  0.4968330000000  0.5123240000000 1.0
C      1  0.5574400000000  0.5029240000000  0.5530880000000 1.0
C      1  0.5175750000000  0.4984780000000  0.4260200000000 1.0
C      1  0.5766660000000  0.4992980000000  0.5222200000000 1.0
C      1  0.4453730000000  0.5010490000000  0.5640250000000 1.0
C      1  0.4782880000000  0.5019570000000  0.4243620000000 1.0
C      1  0.4283830000000  0.4509420000000  0.5247040000000 1.0
C      1  0.5578050000000  0.4516440000000  0.5492030000000 1.0
C      1  0.5157230000000  0.4508070000000  0.4237540000000 1.0
C      1  0.5735930000000  0.4491280000000  0.5246550000000 1.0
C      1  0.4423830000000  0.4514800000000  0.5493740000000 1.0
C      1  0.4870320000000  0.4517560000000  0.4245650000000 1.0
C      1  0.5286170000000  0.4448420000000  0.4517830000000 1.0
C      1  0.4447790000000  0.4476590000000  0.4993960000000 1.0
C      1  0.5266040000000  0.4443500000000  0.5451060000000 1.0
C      1  0.4736450000000  0.4449640000000  0.4542250000000 1.0
C      1  0.5554360000000  0.4448160000000  0.4982070000000 1.0
C      1  0.4727050000000  0.4469880000000  0.5480360000000 1.0
C      1  0.5706980000000  0.4512610000000  0.4749920000000 1.0
C      1  0.4447360000000  0.4491520000000  0.4516520000000 1.0
C      1  0.4864700000000  0.4515220000000  0.5722460000000 1.0
C      1  0.4303760000000  0.4517560000000  0.4757130000000 1.0
C      1  0.5565180000000  0.4518460000000  0.4502070000000 1.0
C      1  0.5146920000000  0.4500540000000  0.5708010000000 1.0
C      1  0.5254370000000  0.5159430000000  0.4115370000000 1.0
C      1  0.4127650000000  0.5167280000000  0.5224940000000 1.0
C      1  0.5552290000000  0.5307820000000  0.5646690000000 1.0
C      1  0.4738260000000  0.5313190000000  0.4184430000000 1.0
C      1  0.5899860000000  0.5270930000000  0.5135820000000 1.0
C      1  0.4417740000000  0.5301350000000  0.5658550000000 1.0
C      1  0.4547790000000  0.5734820000000  0.5412220000000 1.0
C      1  0.5507390000000  0.5758260000000  0.5148890000000 1.0
C      1  0.4880870000000  0.5730200000000  0.4377000000000 1.0
C      1  0.5427810000000  0.5765920000000  0.5412010000000 1.0
C      1  0.4522830000000  0.5776790000000  0.5137500000000 1.0
C      1  0.5123050000000  0.5781870000000  0.4500610000000 1.0
C      1  0.5383710000000  0.5405780000000  0.4953090000000 1.0
C      1  0.4747440000000  0.5395220000000  0.4701010000000 1.0
C      1  0.4857440000000  0.5398250000000  0.5355130000000 1.0
C      1  0.4707330000000  0.5440790000000  0.4972370000000 1.0
C      1  0.5178040000000  0.5465020000000  0.4770120000000 1.0
C      1  0.5127250000000  0.5450350000000  0.5282360000000 1.0
C      1  0.5593640000000  0.4808830000000  0.4490710000000 1.0
C      1  0.4247850000000  0.4790580000000  0.4712220000000 1.0
C      1  0.5158430000000  0.4792100000000  0.5758350000000 1.0
C      1  0.4364270000000  0.4766270000000  0.4442740000000 1.0
C      1  0.5751210000000  0.4796930000000  0.4739900000000 1.0
C      1  0.4867130000000  0.4783580000000  0.5789690000000 1.0
C      1  0.5193420000000  0.4105620000000  0.5059120000000 1.0
C      1  0.5041120000000  0.4103650000000  0.4794620000000 1.0
C      1  0.4767370000000  0.4131550000000  0.5130540000000 1.0
C      1  0.4995280000000  0.5584970000000  0.5009280000000 1.0
END
