TITL C-2441155-8282-187 0.0205795445206567 125000 -8806.80620886935 0 0 64 (C1) n - 1
REM
REM in /home/bkarasulu/work/CARBON/AIRSS/Generating-Clusters/ReaxFF-fromJPCA2015/Units_Real/with-SteepDescent/Higher-Symm
REM
REM
REM
REM
REM
REM ./C.cell (1df0a924f5614ab8850e4351716899ee)
REM
REM compiler GCC version 9.2.1 20190827 (Red Hat 9.2.1-1)
REM options -cpp -mtune=generic -march=x86-64 -g -O0 -fpre-include=/usr/include/finclude/math-vector-fortran.h
REM seed -1111235252 1685214192 777140634 -947844229 -1084279570 1078813872 -2002757403 794017442 1472757067 -928365937 -589120224 1081876730 1986948120 1324027253 -463667917 -1692726161 1095154722 507783908 1238350036 -367443009 -988979497 209389929 932914930 -1073587460 -1070027690 1705890998 764502573 -464266155 1159988700 -1542631151 -1569718072 238563602 -973499851
REM
CELL 1.54180   50.00000   50.00000   50.00000   90.00000   90.00000   90.00000
LATT -1
SFAC C  
C      1  0.5745740000000  0.5026010000000  0.4946930000000 1.0
C      1  0.4261680000000  0.5046860000000  0.4937380000000 1.0
C      1  0.5255610000000  0.4764410000000  0.5219320000000 1.0
C      1  0.4751800000000  0.4742510000000  0.5180550000000 1.0
C      1  0.4708790000000  0.4856220000000  0.5672080000000 1.0
C      1  0.5298860000000  0.4852820000000  0.5684270000000 1.0
C      1  0.4845150000000  0.5656420000000  0.4843810000000 1.0
C      1  0.5140140000000  0.5677150000000  0.4847460000000 1.0
C      1  0.5584290000000  0.5327470000000  0.5195890000000 1.0
C      1  0.4399710000000  0.5344340000000  0.5184610000000 1.0
C      1  0.4849400000000  0.5077710000000  0.5742210000000 1.0
C      1  0.5157360000000  0.5079400000000  0.5742730000000 1.0
C      1  0.4591550000000  0.4648050000000  0.5548940000000 1.0
C      1  0.5420180000000  0.4638650000000  0.5576640000000 1.0
C      1  0.5195710000000  0.5155410000000  0.4804470000000 1.0
C      1  0.4909180000000  0.5062870000000  0.4784080000000 1.0
C      1  0.4845950000000  0.5227400000000  0.5025230000000 1.0
C      1  0.5140160000000  0.5264200000000  0.5065550000000 1.0
C      1  0.5568270000000  0.4446070000000  0.4724640000000 1.0
C      1  0.4430530000000  0.4456680000000  0.4758780000000 1.0
C      1  0.5651890000000  0.5296170000000  0.4927290000000 1.0
C      1  0.4335510000000  0.5318980000000  0.4914200000000 1.0
C      1  0.4453070000000  0.4689780000000  0.4607640000000 1.0
C      1  0.5542570000000  0.4689690000000  0.4585430000000 1.0
C      1  0.5131180000000  0.4218360000000  0.4977840000000 1.0
C      1  0.4860010000000  0.4208990000000  0.4971580000000 1.0
C      1  0.5718640000000  0.4944000000000  0.5231090000000 1.0
C      1  0.4289390000000  0.4951520000000  0.5214230000000 1.0
C      1  0.5326380000000  0.5098930000000  0.4359380000000 1.0
C      1  0.4698450000000  0.5084580000000  0.4367880000000 1.0
C      1  0.4452110000000  0.5152280000000  0.4510060000000 1.0
C      1  0.5567040000000  0.5144850000000  0.4509420000000 1.0
C      1  0.5170720000000  0.5567230000000  0.4581580000000 1.0
C      1  0.4723980000000  0.5522000000000  0.4611430000000 1.0
C      1  0.5180090000000  0.4515400000000  0.5388090000000 1.0
C      1  0.4830600000000  0.4524010000000  0.5373900000000 1.0
C      1  0.5683620000000  0.4932700000000  0.4677950000000 1.0
C      1  0.4326940000000  0.4946600000000  0.4674260000000 1.0
C      1  0.5561770000000  0.5436650000000  0.5442870000000 1.0
C      1  0.4445850000000  0.5436010000000  0.5436120000000 1.0
C      1  0.5142440000000  0.5303840000000  0.5532300000000 1.0
C      1  0.4865300000000  0.5297740000000  0.5524550000000 1.0
C      1  0.4721390000000  0.4324540000000  0.5189270000000 1.0
C      1  0.5270790000000  0.4324030000000  0.5185800000000 1.0
C      1  0.5444300000000  0.5304720000000  0.4722920000000 1.0
C      1  0.4470340000000  0.5395230000000  0.4667290000000 1.0
C      1  0.5533580000000  0.4735400000000  0.5313060000000 1.0
C      1  0.4482830000000  0.4746920000000  0.5283440000000 1.0
C      1  0.4892170000000  0.4801600000000  0.4928530000000 1.0
C      1  0.5170030000000  0.4732280000000  0.4947780000000 1.0
C      1  0.5101280000000  0.4672840000000  0.4267300000000 1.0
C      1  0.4874050000000  0.4710580000000  0.4300660000000 1.0
C      1  0.4653590000000  0.4426340000000  0.4922130000000 1.0
C      1  0.5290220000000  0.4448840000000  0.4911850000000 1.0
C      1  0.5234400000000  0.5540480000000  0.5101580000000 1.0
C      1  0.4765020000000  0.5501900000000  0.5086810000000 1.0
C      1  0.4852000000000  0.5340020000000  0.4415520000000 1.0
C      1  0.5141880000000  0.5347390000000  0.4395920000000 1.0
C      1  0.4311310000000  0.5178560000000  0.5396100000000 1.0
C      1  0.5689100000000  0.5173970000000  0.5408590000000 1.0
C      1  0.5313660000000  0.4811100000000  0.4384250000000 1.0
C      1  0.4720710000000  0.4825900000000  0.4504420000000 1.0
C      1  0.4717750000000  0.5507790000000  0.5376390000000 1.0
C      1  0.5291970000000  0.5518620000000  0.5385720000000 1.0
END
