TITL C-2441154-10-1385 0.163134583093572 125000 -18273.7083087714 0 0 151 (C1) n - 1
REM
REM in /home/bkarasulu/work/CARBON/AIRSS/Generating-Clusters/ReaxFF-fromJPCA2015/Units_Real/with-SteepDescent/Higher-Symm
REM
REM
REM
REM
REM
REM ./C.cell (1df0a924f5614ab8850e4351716899ee)
REM
REM compiler GCC version 9.2.1 20190827 (Red Hat 9.2.1-1)
REM options -cpp -mtune=generic -march=x86-64 -g -O0 -fpre-include=/usr/include/finclude/math-vector-fortran.h
REM seed 1574535180 752981576 -1249268455 1793313045 1532145826 -1661575390 557851256 1700250613 1713907389 -350043741 1188955551 301898152 230091832 1353936731 -1449320476 1417382514 -1632394536 897057731 -1921966877 -1895525422 -579236773 -322273472 -710079768 395235794 -423419844 -594540978 -1000558710 -758254721 -940178193 -871067725 -812480619 257692639 -957398876
REM
CELL 1.54180   50.00000   50.00000   50.00000   90.00000   90.00000   90.00000
LATT -1
SFAC C  
C      1  0.5480840000000  0.5689870000000  0.5734570000000 1.0
C      1  0.4528670000000  0.4306200000000  0.5721610000000 1.0
C      1  0.4503390000000  0.5692860000000  0.4308080000000 1.0
C      1  0.5492300000000  0.4316370000000  0.4282100000000 1.0
C      1  0.5691050000000  0.5476190000000  0.5735730000000 1.0
C      1  0.4300590000000  0.4496990000000  0.5714650000000 1.0
C      1  0.5678860000000  0.4547290000000  0.4270690000000 1.0
C      1  0.4295950000000  0.5479630000000  0.4321110000000 1.0
C      1  0.4430080000000  0.5375460000000  0.5562590000000 1.0
C      1  0.5546780000000  0.4638590000000  0.5570680000000 1.0
C      1  0.5565360000000  0.5357160000000  0.4447590000000 1.0
C      1  0.4443110000000  0.4635040000000  0.4431860000000 1.0
C      1  0.5349620000000  0.4438520000000  0.5562550000000 1.0
C      1  0.4644920000000  0.5572850000000  0.5554560000000 1.0
C      1  0.5362370000000  0.5561880000000  0.4430010000000 1.0
C      1  0.4649190000000  0.4433900000000  0.4427830000000 1.0
C      1  0.5175770000000  0.5395250000000  0.5373590000000 1.0
C      1  0.4796960000000  0.4653130000000  0.5395410000000 1.0
C      1  0.4856290000000  0.5378820000000  0.4670580000000 1.0
C      1  0.5168870000000  0.4623800000000  0.4649340000000 1.0
C      1  0.5389880000000  0.5192730000000  0.5347920000000 1.0
C      1  0.4579550000000  0.4853670000000  0.5384610000000 1.0
C      1  0.5380570000000  0.4830500000000  0.4651790000000 1.0
C      1  0.4621260000000  0.5174200000000  0.4651780000000 1.0
C      1  0.5140980000000  0.4692040000000  0.5967970000000 1.0
C      1  0.4922410000000  0.5317900000000  0.5985770000000 1.0
C      1  0.4886720000000  0.4679470000000  0.4028710000000 1.0
C      1  0.5134830000000  0.5291280000000  0.4044040000000 1.0
C      1  0.4699020000000  0.5155210000000  0.5982010000000 1.0
C      1  0.5325390000000  0.4899990000000  0.5982250000000 1.0
C      1  0.4694720000000  0.4885600000000  0.4025130000000 1.0
C      1  0.5322390000000  0.5078060000000  0.4025960000000 1.0
C      1  0.4367650000000  0.4598700000000  0.4988870000000 1.0
C      1  0.5678800000000  0.5377160000000  0.4997430000000 1.0
C      1  0.5632280000000  0.4650940000000  0.5014590000000 1.0
C      1  0.4322740000000  0.5383370000000  0.5026510000000 1.0
C      1  0.4588030000000  0.4352510000000  0.4986040000000 1.0
C      1  0.5389800000000  0.5674040000000  0.4995590000000 1.0
C      1  0.4607710000000  0.5679900000000  0.5023050000000 1.0
C      1  0.5322870000000  0.4336530000000  0.5037230000000 1.0
C      1  0.5221980000000  0.4575650000000  0.5129990000000 1.0
C      1  0.4741530000000  0.5445840000000  0.5107910000000 1.0
C      1  0.4795540000000  0.4589330000000  0.4955480000000 1.0
C      1  0.5227980000000  0.5451410000000  0.4945180000000 1.0
C      1  0.4564310000000  0.5260410000000  0.5113690000000 1.0
C      1  0.5388620000000  0.4779840000000  0.5069990000000 1.0
C      1  0.4605190000000  0.4802540000000  0.4963530000000 1.0
C      1  0.5429230000000  0.5275310000000  0.4889030000000 1.0
C      1  0.5928030000000  0.5313440000000  0.4866940000000 1.0
C      1  0.4099510000000  0.4649780000000  0.4865190000000 1.0
C      1  0.4059070000000  0.5319220000000  0.5137230000000 1.0
C      1  0.5890930000000  0.4651160000000  0.5144530000000 1.0
C      1  0.5317100000000  0.5918770000000  0.4853740000000 1.0
C      1  0.4650740000000  0.4097160000000  0.4844110000000 1.0
C      1  0.5365650000000  0.4059700000000  0.5155630000000 1.0
C      1  0.4690900000000  0.5932910000000  0.5132760000000 1.0
C      1  0.4860360000000  0.4467960000000  0.4232110000000 1.0
C      1  0.5144130000000  0.5512810000000  0.4245620000000 1.0
C      1  0.5120380000000  0.4459460000000  0.5723910000000 1.0
C      1  0.4888990000000  0.5534770000000  0.5721900000000 1.0
C      1  0.4505590000000  0.4859560000000  0.4253850000000 1.0
C      1  0.5538680000000  0.5100200000000  0.4308680000000 1.0
C      1  0.4489210000000  0.5176880000000  0.5773650000000 1.0
C      1  0.5541290000000  0.4883280000000  0.5718650000000 1.0
C      1  0.4260530000000  0.4926820000000  0.5271060000000 1.0
C      1  0.5760030000000  0.5031750000000  0.5251150000000 1.0
C      1  0.5737550000000  0.4951110000000  0.4764640000000 1.0
C      1  0.4279750000000  0.5058040000000  0.4753570000000 1.0
C      1  0.4994940000000  0.4229360000000  0.5237090000000 1.0
C      1  0.5046760000000  0.5750430000000  0.5252930000000 1.0
C      1  0.4936230000000  0.5707230000000  0.4733840000000 1.0
C      1  0.5047870000000  0.4236430000000  0.4757540000000 1.0
C      1  0.5046810000000  0.5764890000000  0.5535700000000 1.0
C      1  0.4962260000000  0.4240290000000  0.5516060000000 1.0
C      1  0.4926940000000  0.5808080000000  0.4461840000000 1.0
C      1  0.5088800000000  0.4233800000000  0.4476990000000 1.0
C      1  0.5752890000000  0.5055650000000  0.5532000000000 1.0
C      1  0.4116670000000  0.4901850000000  0.5518960000000 1.0
C      1  0.5757730000000  0.4946030000000  0.4482710000000 1.0
C      1  0.4161830000000  0.5081390000000  0.4489240000000 1.0
C      1  0.4880560000000  0.4025570000000  0.5064220000000 1.0
C      1  0.5116220000000  0.5962490000000  0.5063250000000 1.0
C      1  0.5123340000000  0.4007710000000  0.4916060000000 1.0
C      1  0.4881110000000  0.5950360000000  0.4916380000000 1.0
C      1  0.4057650000000  0.4873380000000  0.5050210000000 1.0
C      1  0.5978500000000  0.5111890000000  0.5073680000000 1.0
C      1  0.4040410000000  0.5124210000000  0.4915900000000 1.0
C      1  0.5961250000000  0.4865580000000  0.4933490000000 1.0
C      1  0.4502290000000  0.5702010000000  0.4753230000000 1.0
C      1  0.5475210000000  0.4323230000000  0.4778240000000 1.0
C      1  0.5500080000000  0.5702320000000  0.5267990000000 1.0
C      1  0.4507540000000  0.4279950000000  0.5260460000000 1.0
C      1  0.5678120000000  0.4520720000000  0.4758400000000 1.0
C      1  0.4302400000000  0.5506890000000  0.4767510000000 1.0
C      1  0.5704880000000  0.5500270000000  0.5261690000000 1.0
C      1  0.4305870000000  0.4481040000000  0.5256870000000 1.0
C      1  0.4143770000000  0.5389820000000  0.4550000000000 1.0
C      1  0.5806540000000  0.4649860000000  0.4510610000000 1.0
C      1  0.5811930000000  0.5347530000000  0.5501280000000 1.0
C      1  0.4153080000000  0.4587860000000  0.5479660000000 1.0
C      1  0.5381990000000  0.4193080000000  0.4526140000000 1.0
C      1  0.4613410000000  0.5846260000000  0.4525880000000 1.0
C      1  0.5351870000000  0.5814800000000  0.5504600000000 1.0
C      1  0.4670470000000  0.4187330000000  0.5492240000000 1.0
C      1  0.5834560000000  0.5365780000000  0.4586130000000 1.0
C      1  0.4181680000000  0.4588720000000  0.4585390000000 1.0
C      1  0.4166850000000  0.5381750000000  0.5410480000000 1.0
C      1  0.5801410000000  0.4591070000000  0.5433910000000 1.0
C      1  0.5390890000000  0.5822540000000  0.4583480000000 1.0
C      1  0.4640450000000  0.4174120000000  0.4554190000000 1.0
C      1  0.5370780000000  0.4176540000000  0.5436430000000 1.0
C      1  0.4649020000000  0.5848420000000  0.5421800000000 1.0
C      1  0.4226950000000  0.4324790000000  0.4649370000000 1.0
C      1  0.5832260000000  0.5636600000000  0.4646770000000 1.0
C      1  0.5820560000000  0.4342470000000  0.5301530000000 1.0
C      1  0.4185880000000  0.5647570000000  0.5349310000000 1.0
C      1  0.4383220000000  0.4097970000000  0.4666310000000 1.0
C      1  0.5655880000000  0.5827510000000  0.4656840000000 1.0
C      1  0.4372330000000  0.5839280000000  0.5366820000000 1.0
C      1  0.5626900000000  0.4139370000000  0.5286120000000 1.0
C      1  0.5285330000000  0.5049250000000  0.4797360000000 1.0
C      1  0.4707950000000  0.4911600000000  0.4729890000000 1.0
C      1  0.4697440000000  0.4999790000000  0.5162730000000 1.0
C      1  0.5248370000000  0.4983230000000  0.5205360000000 1.0
C      1  0.5053090000000  0.5152380000000  0.4662660000000 1.0
C      1  0.4908880000000  0.4718410000000  0.4715960000000 1.0
C      1  0.4960440000000  0.4626120000000  0.5179000000000 1.0
C      1  0.5015440000000  0.5346190000000  0.5137310000000 1.0
C      1  0.5077170000000  0.5352430000000  0.5627030000000 1.0
C      1  0.4908930000000  0.4628530000000  0.5653870000000 1.0
C      1  0.4912650000000  0.5383250000000  0.4370580000000 1.0
C      1  0.5099120000000  0.4521620000000  0.4355770000000 1.0
C      1  0.5358220000000  0.5074410000000  0.5628920000000 1.0
C      1  0.4544440000000  0.4923160000000  0.5656890000000 1.0
C      1  0.5322650000000  0.4932790000000  0.4394820000000 1.0
C      1  0.4639680000000  0.5097610000000  0.4363280000000 1.0
C      1  0.5453470000000  0.4718830000000  0.4179440000000 1.0
C      1  0.4492180000000  0.5293680000000  0.4204420000000 1.0
C      1  0.4478230000000  0.4703940000000  0.5829650000000 1.0
C      1  0.5486410000000  0.5285040000000  0.5822830000000 1.0
C      1  0.4690930000000  0.5491330000000  0.4207000000000 1.0
C      1  0.5291870000000  0.4484940000000  0.4151000000000 1.0
C      1  0.4697870000000  0.4519610000000  0.5827160000000 1.0
C      1  0.5287630000000  0.5481090000000  0.5813950000000 1.0
C      1  0.5104650000000  0.4882260000000  0.3955460000000 1.0
C      1  0.4909720000000  0.5090660000000  0.3957740000000 1.0
C      1  0.4925550000000  0.4907780000000  0.5935100000000 1.0
C      1  0.5111440000000  0.5101590000000  0.6063600000000 1.0
C      1  0.5032750000000  0.5069640000000  0.4398490000000 1.0
C      1  0.5028330000000  0.5001260000000  0.5641120000000 1.0
C      1  0.4985570000000  0.5060590000000  0.5144200000000 1.0
END
