TITL C-2441158-471-1049 0.14410346988831 125000 -17353.4470663218 0 0 141 (C1) n - 1
REM
REM in /home/bkarasulu/work/CARBON/AIRSS/Generating-Clusters/ReaxFF-fromJPCA2015/Units_Real/with-SteepDescent/Higher-Symm
REM
REM
REM
REM
REM
REM ./C.cell (1df0a924f5614ab8850e4351716899ee)
REM
REM compiler GCC version 9.2.1 20190827 (Red Hat 9.2.1-1)
REM options -cpp -mtune=generic -march=x86-64 -g -O0 -fpre-include=/usr/include/finclude/math-vector-fortran.h
REM seed 305130982 1565111654 635422796 -1825871663 715773243 -108414927 1121506710 1189214067 1443323670 1600872135 -800445586 638056588 138140971 -89986875 -321132286 842207308 -1488024768 194616364 1745655777 -2004796007 1246358201 -1639465104 1734829398 -720616858 53680187 1707855515 727455437 -244062230 2111626402 799899147 1840910533 811887954 1725365900
REM
CELL 1.54180   50.00000   50.00000   50.00000   90.00000   90.00000   90.00000
LATT -1
SFAC C  
C      1  0.5039340000000  0.5077890000000  0.5513840000000 1.0
C      1  0.5677070000000  0.5587010000000  0.5445890000000 1.0
C      1  0.5808320000000  0.5126000000000  0.4398730000000 1.0
C      1  0.5355990000000  0.5786000000000  0.4448110000000 1.0
C      1  0.5055000000000  0.5105210000000  0.5064300000000 1.0
C      1  0.5086680000000  0.5738090000000  0.4348340000000 1.0
C      1  0.5096600000000  0.4276420000000  0.4316390000000 1.0
C      1  0.5403860000000  0.4139680000000  0.5292040000000 1.0
C      1  0.5674930000000  0.5042530000000  0.5454190000000 1.0
C      1  0.5296580000000  0.5400410000000  0.4828020000000 1.0
C      1  0.4496590000000  0.4890390000000  0.4725820000000 1.0
C      1  0.4691870000000  0.5295320000000  0.5362910000000 1.0
C      1  0.5173020000000  0.5682550000000  0.5502040000000 1.0
C      1  0.3985040000000  0.5084870000000  0.5405910000000 1.0
C      1  0.5018090000000  0.5588150000000  0.5196460000000 1.0
C      1  0.4285410000000  0.4799250000000  0.5431920000000 1.0
C      1  0.5466200000000  0.5804980000000  0.5005060000000 1.0
C      1  0.5000580000000  0.4868380000000  0.4901470000000 1.0
C      1  0.6036840000000  0.5217760000000  0.4522590000000 1.0
C      1  0.5577240000000  0.4561760000000  0.5737870000000 1.0
C      1  0.5668770000000  0.5684670000000  0.5175320000000 1.0
C      1  0.5214610000000  0.4100250000000  0.4930950000000 1.0
C      1  0.4266690000000  0.4400600000000  0.5195420000000 1.0
C      1  0.4277170000000  0.4968380000000  0.5673900000000 1.0
C      1  0.5851150000000  0.4698470000000  0.5290150000000 1.0
C      1  0.5198300000000  0.5329160000000  0.4130270000000 1.0
C      1  0.4404820000000  0.5753550000000  0.5166830000000 1.0
C      1  0.5008870000000  0.4385440000000  0.5491490000000 1.0
C      1  0.5164060000000  0.4658370000000  0.4104810000000 1.0
C      1  0.4984820000000  0.5886450000000  0.5206100000000 1.0
C      1  0.4786710000000  0.5813150000000  0.4467290000000 1.0
C      1  0.6016460000000  0.5210440000000  0.4803990000000 1.0
C      1  0.4859060000000  0.5087580000000  0.5291690000000 1.0
C      1  0.4442850000000  0.4971830000000  0.5916090000000 1.0
C      1  0.5841930000000  0.4714350000000  0.4892070000000 1.0
C      1  0.4135410000000  0.4947850000000  0.5209260000000 1.0
C      1  0.5661600000000  0.4317340000000  0.4892670000000 1.0
C      1  0.5435090000000  0.5350570000000  0.5668780000000 1.0
C      1  0.4642220000000  0.5353290000000  0.5635640000000 1.0
C      1  0.4644090000000  0.4164770000000  0.4557970000000 1.0
C      1  0.4591810000000  0.4720520000000  0.5850980000000 1.0
C      1  0.4633520000000  0.4578630000000  0.4623710000000 1.0
C      1  0.4899800000000  0.5272740000000  0.4523660000000 1.0
C      1  0.5900730000000  0.4990600000000  0.5292490000000 1.0
C      1  0.5693570000000  0.4490780000000  0.5431260000000 1.0
C      1  0.4139750000000  0.5271170000000  0.4797390000000 1.0
C      1  0.4800310000000  0.5021980000000  0.4067220000000 1.0
C      1  0.4828030000000  0.4433430000000  0.4841610000000 1.0
C      1  0.5449220000000  0.4635330000000  0.4195520000000 1.0
C      1  0.4691170000000  0.4837980000000  0.5610060000000 1.0
C      1  0.5835740000000  0.4678350000000  0.4626540000000 1.0
C      1  0.5276080000000  0.4595350000000  0.5120560000000 1.0
C      1  0.5032890000000  0.5391040000000  0.5918970000000 1.0
C      1  0.4537380000000  0.5876630000000  0.4945980000000 1.0
C      1  0.5265220000000  0.5244030000000  0.5445530000000 1.0
C      1  0.4234720000000  0.4785580000000  0.4854930000000 1.0
C      1  0.5033500000000  0.4574180000000  0.5860160000000 1.0
C      1  0.4526710000000  0.5475990000000  0.4653590000000 1.0
C      1  0.4713640000000  0.4869290000000  0.5342490000000 1.0
C      1  0.4818040000000  0.4152620000000  0.4925380000000 1.0
C      1  0.4501350000000  0.5607930000000  0.5613950000000 1.0
C      1  0.4608150000000  0.5058660000000  0.4917260000000 1.0
C      1  0.5302260000000  0.4522580000000  0.5798540000000 1.0
C      1  0.5049420000000  0.5526060000000  0.4541060000000 1.0
C      1  0.5140110000000  0.4131060000000  0.5403290000000 1.0
C      1  0.4309280000000  0.5246580000000  0.4258450000000 1.0
C      1  0.5413310000000  0.5153450000000  0.4143410000000 1.0
C      1  0.4294480000000  0.4974220000000  0.4307510000000 1.0
C      1  0.4493210000000  0.5444830000000  0.4332330000000 1.0
C      1  0.5296940000000  0.5274110000000  0.5919360000000 1.0
C      1  0.5074600000000  0.4788930000000  0.4641560000000 1.0
C      1  0.5020430000000  0.4054540000000  0.5148300000000 1.0
C      1  0.5455770000000  0.4929890000000  0.4736890000000 1.0
C      1  0.5164710000000  0.4850070000000  0.5416990000000 1.0
C      1  0.5000650000000  0.4032150000000  0.4741200000000 1.0
C      1  0.4600600000000  0.5747000000000  0.5379390000000 1.0
C      1  0.5573610000000  0.4434910000000  0.4366630000000 1.0
C      1  0.5652720000000  0.4894000000000  0.4511660000000 1.0
C      1  0.4144710000000  0.5226450000000  0.5597810000000 1.0
C      1  0.5506030000000  0.4901130000000  0.4243680000000 1.0
C      1  0.5386120000000  0.5337220000000  0.4358830000000 1.0
C      1  0.4921210000000  0.5283690000000  0.4060060000000 1.0
C      1  0.4450140000000  0.4193210000000  0.5070590000000 1.0
C      1  0.4802760000000  0.5993100000000  0.4996060000000 1.0
C      1  0.5741500000000  0.5430530000000  0.5057140000000 1.0
C      1  0.4825940000000  0.4400010000000  0.5718840000000 1.0
C      1  0.5273650000000  0.4568440000000  0.4664690000000 1.0
C      1  0.4753060000000  0.5286430000000  0.4822360000000 1.0
C      1  0.4843320000000  0.4487900000000  0.5277010000000 1.0
C      1  0.5321260000000  0.4991590000000  0.5903430000000 1.0
C      1  0.4642020000000  0.5181580000000  0.5872940000000 1.0
C      1  0.5082460000000  0.5034240000000  0.4493190000000 1.0
C      1  0.4750380000000  0.4624650000000  0.4353940000000 1.0
C      1  0.5579050000000  0.4834290000000  0.5860920000000 1.0
C      1  0.4644380000000  0.4288830000000  0.5258040000000 1.0
C      1  0.4599820000000  0.4817300000000  0.5096300000000 1.0
C      1  0.4535260000000  0.4463180000000  0.5694200000000 1.0
C      1  0.5307230000000  0.5158900000000  0.4632890000000 1.0
C      1  0.4921730000000  0.4141970000000  0.4490980000000 1.0
C      1  0.4262350000000  0.5481350000000  0.5501840000000 1.0
C      1  0.5217000000000  0.5951890000000  0.5031230000000 1.0
C      1  0.5909330000000  0.5191460000000  0.5068770000000 1.0
C      1  0.4913210000000  0.5123050000000  0.5942360000000 1.0
C      1  0.4366500000000  0.4634790000000  0.5052300000000 1.0
C      1  0.5416550000000  0.4835610000000  0.5011300000000 1.0
C      1  0.5412200000000  0.4544320000000  0.5374770000000 1.0
C      1  0.5808680000000  0.5317270000000  0.4611350000000 1.0
C      1  0.5185500000000  0.4411340000000  0.4904800000000 1.0
C      1  0.5558630000000  0.5579940000000  0.4457390000000 1.0
C      1  0.5324730000000  0.4349550000000  0.4471920000000 1.0
C      1  0.4738920000000  0.5532780000000  0.5241390000000 1.0
C      1  0.4911800000000  0.5704780000000  0.4717690000000 1.0
C      1  0.4170280000000  0.5247000000000  0.5080960000000 1.0
C      1  0.4438540000000  0.4208180000000  0.4742390000000 1.0
C      1  0.5029490000000  0.5377370000000  0.4960910000000 1.0
C      1  0.3988720000000  0.5093150000000  0.4600090000000 1.0
C      1  0.5698950000000  0.5313060000000  0.5550270000000 1.0
C      1  0.5023230000000  0.5969210000000  0.4805100000000 1.0
C      1  0.5031120000000  0.4890960000000  0.4045340000000 1.0
C      1  0.5463830000000  0.5687210000000  0.4724430000000 1.0
C      1  0.4251770000000  0.5500300000000  0.5213830000000 1.0
C      1  0.5687900000000  0.4738610000000  0.5069870000000 1.0
C      1  0.4351620000000  0.4447780000000  0.4593340000000 1.0
C      1  0.4953570000000  0.4488080000000  0.4211110000000 1.0
C      1  0.4059530000000  0.4849520000000  0.4461280000000 1.0
C      1  0.5448950000000  0.5635120000000  0.5599930000000 1.0
C      1  0.4537200000000  0.5005830000000  0.4478930000000 1.0
C      1  0.5473420000000  0.5335370000000  0.5039210000000 1.0
C      1  0.4766450000000  0.5389570000000  0.4277800000000 1.0
C      1  0.4745700000000  0.4906510000000  0.4324290000000 1.0
C      1  0.4122560000000  0.4621620000000  0.4640940000000 1.0
C      1  0.5057910000000  0.4884750000000  0.5845210000000 1.0
C      1  0.5624540000000  0.4270670000000  0.5172540000000 1.0
C      1  0.4261100000000  0.5538890000000  0.4784230000000 1.0
C      1  0.5432290000000  0.4834000000000  0.5454880000000 1.0
C      1  0.4463250000000  0.5741940000000  0.4705810000000 1.0
C      1  0.5718490000000  0.4415210000000  0.4619210000000 1.0
C      1  0.5039350000000  0.5567140000000  0.5703610000000 1.0
C      1  0.4848040000000  0.4655690000000  0.5025170000000 1.0
C      1  0.4346590000000  0.4513160000000  0.5466410000000 1.0
C      1  0.5324850000000  0.5135010000000  0.5183460000000 1.0
END
