TITL C-2441162-9305-1330 0.137249478987358 125000 -21241.6389299449 0 0 166 (C1) n - 1
REM
REM in /home/bkarasulu/work/CARBON/AIRSS/Generating-Clusters/ReaxFF-fromJPCA2015/Units_Real/with-SteepDescent/Higher-Symm
REM
REM
REM
REM
REM
REM ./C.cell (1df0a924f5614ab8850e4351716899ee)
REM
REM compiler GCC version 9.2.1 20190827 (Red Hat 9.2.1-1)
REM options -cpp -mtune=generic -march=x86-64 -g -O0 -fpre-include=/usr/include/finclude/math-vector-fortran.h
REM seed 1568091890 -2139061122 177822341 -776726386 982583382 -1716215464 1143800158 1824514264 -1890591565 -1389111114 -2126513262 -1695012820 1053112826 -1638235612 337561225 947398170 2131376071 151146686 -582277270 1923033496 -1733845954 -1018634932 2117461755 583665624 -1881407246 1852276438 249676199 -1160100532 -771140162 -2037813037 -1797547514 1879352766 -474839721
REM
CELL 1.54180   50.00000   50.00000   50.00000   90.00000   90.00000   90.00000
LATT -1
SFAC C  
C      1  0.5314780000000  0.4150970000000  0.5353810000000 1.0
C      1  0.5376180000000  0.4135180000000  0.4675000000000 1.0
C      1  0.4079360000000  0.4723110000000  0.4681360000000 1.0
C      1  0.4053900000000  0.4860300000000  0.5321110000000 1.0
C      1  0.5264680000000  0.4666740000000  0.4570460000000 1.0
C      1  0.5234200000000  0.4619850000000  0.5402220000000 1.0
C      1  0.5006190000000  0.6020680000000  0.4628970000000 1.0
C      1  0.5016120000000  0.6002490000000  0.5388730000000 1.0
C      1  0.4809000000000  0.5507190000000  0.4245620000000 1.0
C      1  0.4792220000000  0.5511340000000  0.5768800000000 1.0
C      1  0.6007850000000  0.5260100000000  0.4870020000000 1.0
C      1  0.6008950000000  0.5243260000000  0.5160620000000 1.0
C      1  0.4762110000000  0.5019010000000  0.4018520000000 1.0
C      1  0.4775570000000  0.5031120000000  0.6014760000000 1.0
C      1  0.5722530000000  0.4753040000000  0.4334600000000 1.0
C      1  0.5730660000000  0.4751600000000  0.5679800000000 1.0
C      1  0.4556140000000  0.5147710000000  0.4400920000000 1.0
C      1  0.4561680000000  0.5120410000000  0.5614370000000 1.0
C      1  0.4211370000000  0.4771490000000  0.5106360000000 1.0
C      1  0.4198320000000  0.4921320000000  0.4833730000000 1.0
C      1  0.5698040000000  0.5210640000000  0.4243070000000 1.0
C      1  0.5719960000000  0.5220440000000  0.5769810000000 1.0
C      1  0.5372830000000  0.5754010000000  0.4850630000000 1.0
C      1  0.5371470000000  0.5761900000000  0.5144570000000 1.0
C      1  0.4403650000000  0.5830110000000  0.5131090000000 1.0
C      1  0.4420340000000  0.5827660000000  0.4842470000000 1.0
C      1  0.5213060000000  0.4207910000000  0.4390700000000 1.0
C      1  0.5184800000000  0.4209540000000  0.5616800000000 1.0
C      1  0.5292750000000  0.5269500000000  0.5526100000000 1.0
C      1  0.5207670000000  0.5313990000000  0.4462320000000 1.0
C      1  0.5259290000000  0.5747280000000  0.5727670000000 1.0
C      1  0.5268930000000  0.5751790000000  0.4272940000000 1.0
C      1  0.4653170000000  0.4126470000000  0.5447610000000 1.0
C      1  0.4661850000000  0.4105120000000  0.4556670000000 1.0
C      1  0.4642940000000  0.5794520000000  0.5311580000000 1.0
C      1  0.4654710000000  0.5781530000000  0.4665670000000 1.0
C      1  0.4656180000000  0.5251240000000  0.4144660000000 1.0
C      1  0.4647070000000  0.5240350000000  0.5864050000000 1.0
C      1  0.4745520000000  0.4346030000000  0.4688660000000 1.0
C      1  0.4737710000000  0.4398940000000  0.5347820000000 1.0
C      1  0.4933900000000  0.5174600000000  0.4759870000000 1.0
C      1  0.4904090000000  0.5260310000000  0.5324250000000 1.0
C      1  0.4196630000000  0.4749620000000  0.5553970000000 1.0
C      1  0.4216760000000  0.4724820000000  0.4436080000000 1.0
C      1  0.5508430000000  0.4478530000000  0.5479840000000 1.0
C      1  0.5492890000000  0.4484330000000  0.4520090000000 1.0
C      1  0.5587750000000  0.5495980000000  0.5832830000000 1.0
C      1  0.5578670000000  0.5477420000000  0.4169440000000 1.0
C      1  0.4411500000000  0.5655450000000  0.4359150000000 1.0
C      1  0.4359380000000  0.5703000000000  0.5646640000000 1.0
C      1  0.4495650000000  0.4701620000000  0.5135290000000 1.0
C      1  0.4603250000000  0.4698120000000  0.4876530000000 1.0
C      1  0.5659030000000  0.5818500000000  0.4849930000000 1.0
C      1  0.5655320000000  0.5828090000000  0.5141480000000 1.0
C      1  0.5111730000000  0.5377490000000  0.3987770000000 1.0
C      1  0.5134430000000  0.5364090000000  0.6013070000000 1.0
C      1  0.4312030000000  0.4973780000000  0.4308810000000 1.0
C      1  0.4293440000000  0.5008030000000  0.5633700000000 1.0
C      1  0.4156040000000  0.5207390000000  0.4445990000000 1.0
C      1  0.4153250000000  0.5247460000000  0.5559390000000 1.0
C      1  0.5548470000000  0.5694550000000  0.4360440000000 1.0
C      1  0.5554390000000  0.5707300000000  0.5637320000000 1.0
C      1  0.5079950000000  0.5078390000000  0.5993760000000 1.0
C      1  0.5064160000000  0.5084700000000  0.4009890000000 1.0
C      1  0.5916070000000  0.4949900000000  0.5179190000000 1.0
C      1  0.5937540000000  0.4974800000000  0.4861040000000 1.0
C      1  0.5562370000000  0.4764190000000  0.4823830000000 1.0
C      1  0.5511620000000  0.4726680000000  0.5104610000000 1.0
C      1  0.5221180000000  0.3910450000000  0.5168530000000 1.0
C      1  0.5245980000000  0.3884750000000  0.4849870000000 1.0
C      1  0.4686150000000  0.4891060000000  0.4534440000000 1.0
C      1  0.4711200000000  0.4869540000000  0.5516020000000 1.0
C      1  0.5653860000000  0.4229420000000  0.4809070000000 1.0
C      1  0.5679290000000  0.4280450000000  0.5091490000000 1.0
C      1  0.4542040000000  0.4560870000000  0.5824050000000 1.0
C      1  0.4563890000000  0.4564820000000  0.4181360000000 1.0
C      1  0.5436050000000  0.5167840000000  0.5135980000000 1.0
C      1  0.5459110000000  0.5178450000000  0.4847290000000 1.0
C      1  0.5317540000000  0.5344510000000  0.4186920000000 1.0
C      1  0.5336950000000  0.5348530000000  0.5797860000000 1.0
C      1  0.5185680000000  0.6010650000000  0.5150540000000 1.0
C      1  0.5169830000000  0.6001700000000  0.4863360000000 1.0
C      1  0.4068870000000  0.4503660000000  0.5123080000000 1.0
C      1  0.4047650000000  0.4477280000000  0.4832380000000 1.0
C      1  0.4984120000000  0.4750060000000  0.5106190000000 1.0
C      1  0.4887170000000  0.4716900000000  0.4838190000000 1.0
C      1  0.4960460000000  0.4668390000000  0.4192830000000 1.0
C      1  0.4973400000000  0.4659600000000  0.5786840000000 1.0
C      1  0.5254390000000  0.4327970000000  0.4858820000000 1.0
C      1  0.5393580000000  0.4344690000000  0.5115880000000 1.0
C      1  0.4530500000000  0.4416050000000  0.4840000000000 1.0
C      1  0.4519430000000  0.4408290000000  0.5151490000000 1.0
C      1  0.4802490000000  0.4423340000000  0.5760500000000 1.0
C      1  0.4814240000000  0.4418790000000  0.4240310000000 1.0
C      1  0.5084780000000  0.5751090000000  0.4495950000000 1.0
C      1  0.5076970000000  0.5717820000000  0.5498820000000 1.0
C      1  0.4604890000000  0.4824360000000  0.5916950000000 1.0
C      1  0.4554850000000  0.4846740000000  0.4120930000000 1.0
C      1  0.5354560000000  0.5414600000000  0.5274770000000 1.0
C      1  0.5345410000000  0.5427060000000  0.4734300000000 1.0
C      1  0.4330450000000  0.5468760000000  0.5600110000000 1.0
C      1  0.4348700000000  0.5417320000000  0.4495070000000 1.0
C      1  0.5331030000000  0.4379300000000  0.4180310000000 1.0
C      1  0.5325000000000  0.4385280000000  0.5825100000000 1.0
C      1  0.5058460000000  0.5622200000000  0.5903930000000 1.0
C      1  0.5023970000000  0.5641350000000  0.4097660000000 1.0
C      1  0.4666320000000  0.5744970000000  0.4323740000000 1.0
C      1  0.4625670000000  0.5745030000000  0.5643060000000 1.0
C      1  0.4327350000000  0.4498200000000  0.5627340000000 1.0
C      1  0.4347610000000  0.4483280000000  0.4359750000000 1.0
C      1  0.5105930000000  0.4805950000000  0.5575870000000 1.0
C      1  0.5076150000000  0.4812260000000  0.4411960000000 1.0
C      1  0.5311070000000  0.4883900000000  0.4760650000000 1.0
C      1  0.5257790000000  0.4819020000000  0.5191790000000 1.0
C      1  0.4362480000000  0.4245820000000  0.5491430000000 1.0
C      1  0.4385770000000  0.4229530000000  0.4497340000000 1.0
C      1  0.4245980000000  0.4299720000000  0.5237920000000 1.0
C      1  0.4262480000000  0.4302870000000  0.4743280000000 1.0
C      1  0.5051760000000  0.5067380000000  0.4519140000000 1.0
C      1  0.5086020000000  0.5076960000000  0.5486490000000 1.0
C      1  0.5294460000000  0.4904630000000  0.4065830000000 1.0
C      1  0.5307000000000  0.4905860000000  0.5933330000000 1.0
C      1  0.4224590000000  0.5321780000000  0.4866210000000 1.0
C      1  0.4283620000000  0.5311860000000  0.5154180000000 1.0
C      1  0.5215270000000  0.4624930000000  0.4063750000000 1.0
C      1  0.5212300000000  0.4627730000000  0.5943180000000 1.0
C      1  0.5587850000000  0.4495070000000  0.5755180000000 1.0
C      1  0.5592880000000  0.4493410000000  0.4254080000000 1.0
C      1  0.5570050000000  0.4963010000000  0.5798060000000 1.0
C      1  0.5558190000000  0.4959980000000  0.4202130000000 1.0
C      1  0.4508240000000  0.4957400000000  0.4777420000000 1.0
C      1  0.4696730000000  0.4909660000000  0.5215100000000 1.0
C      1  0.4893400000000  0.4171310000000  0.5646720000000 1.0
C      1  0.4929230000000  0.4182120000000  0.4363490000000 1.0
C      1  0.4078560000000  0.5147220000000  0.4717420000000 1.0
C      1  0.4077050000000  0.5151340000000  0.5300380000000 1.0
C      1  0.4996280000000  0.4461830000000  0.5238100000000 1.0
C      1  0.4999860000000  0.4460150000000  0.4763320000000 1.0
C      1  0.4910700000000  0.5479850000000  0.5503720000000 1.0
C      1  0.4962330000000  0.5478520000000  0.4501700000000 1.0
C      1  0.5083740000000  0.5390840000000  0.4871380000000 1.0
C      1  0.5078730000000  0.5428460000000  0.5152520000000 1.0
C      1  0.5722660000000  0.5671670000000  0.4610790000000 1.0
C      1  0.5713970000000  0.5693410000000  0.5390540000000 1.0
C      1  0.4680560000000  0.3956520000000  0.4868460000000 1.0
C      1  0.4692720000000  0.3981360000000  0.5157890000000 1.0
C      1  0.5892370000000  0.5432840000000  0.4655710000000 1.0
C      1  0.5900480000000  0.5449960000000  0.5354000000000 1.0
C      1  0.5748200000000  0.4452070000000  0.4651790000000 1.0
C      1  0.5760030000000  0.4458180000000  0.5326510000000 1.0
C      1  0.4876700000000  0.5658620000000  0.5118170000000 1.0
C      1  0.4853780000000  0.5616220000000  0.4860330000000 1.0
C      1  0.5871760000000  0.4708600000000  0.5421610000000 1.0
C      1  0.5844550000000  0.4725200000000  0.4604250000000 1.0
C      1  0.4954230000000  0.4115310000000  0.5127700000000 1.0
C      1  0.4955520000000  0.4027920000000  0.4848610000000 1.0
C      1  0.4784460000000  0.6037370000000  0.5241780000000 1.0
C      1  0.4767170000000  0.6024640000000  0.4768030000000 1.0
C      1  0.5796900000000  0.5204550000000  0.4507020000000 1.0
C      1  0.5845610000000  0.5272060000000  0.5537950000000 1.0
C      1  0.5693220000000  0.5059380000000  0.4736420000000 1.0
C      1  0.5622870000000  0.4972110000000  0.5238010000000 1.0
C      1  0.4672170000000  0.5183290000000  0.4872190000000 1.0
C      1  0.4619930000000  0.5205070000000  0.5152670000000 1.0
C      1  0.4224760000000  0.5606460000000  0.4834520000000 1.0
C      1  0.4215260000000  0.5616350000000  0.5132030000000 1.0
END
