TITL C-2441156-4686-1477 0.134989458218987 125000 -26080.994898768 0 0 197 (C1) n - 1
REM
REM in /home/bkarasulu/work/CARBON/AIRSS/Generating-Clusters/ReaxFF-fromJPCA2015/Units_Real/with-SteepDescent/Higher-Symm
REM
REM
REM
REM
REM
REM ./C.cell (1df0a924f5614ab8850e4351716899ee)
REM
REM compiler GCC version 9.2.1 20190827 (Red Hat 9.2.1-1)
REM options -cpp -mtune=generic -march=x86-64 -g -O0 -fpre-include=/usr/include/finclude/math-vector-fortran.h
REM seed 1226121879 -1749771908 -1299886104 1537200331 -1824759177 899057403 -328261044 243918575 399055728 -1161915162 103750822 402052564 -1443569742 -1545648482 1980512368 -712379617 -684009292 4436760 -528667171 -877417227 1096940985 1904397193 852544267 -417181728 1585636573 -1042670527 -80935601 -1008426242 579823204 -1829656428 197575181 -20407325 -1304240900
REM
CELL 1.54180   50.00000   50.00000   50.00000   90.00000   90.00000   90.00000
LATT -1
SFAC C  
C      1  0.4090410000000  0.5424400000000  0.5486910000000 1.0
C      1  0.5533370000000  0.4737780000000  0.5390930000000 1.0
C      1  0.5267390000000  0.4107740000000  0.5690290000000 1.0
C      1  0.4774670000000  0.6107480000000  0.4813430000000 1.0
C      1  0.4538350000000  0.4082220000000  0.5627090000000 1.0
C      1  0.4922960000000  0.5063830000000  0.3878240000000 1.0
C      1  0.4899500000000  0.4783310000000  0.3955600000000 1.0
C      1  0.5043140000000  0.5039340000000  0.4967650000000 1.0
C      1  0.5591580000000  0.4341480000000  0.5053520000000 1.0
C      1  0.5152540000000  0.4472850000000  0.5316290000000 1.0
C      1  0.5490620000000  0.5231360000000  0.5147450000000 1.0
C      1  0.5410000000000  0.5597040000000  0.4125560000000 1.0
C      1  0.5605640000000  0.4760200000000  0.5895640000000 1.0
C      1  0.5733670000000  0.5179410000000  0.5297280000000 1.0
C      1  0.4879630000000  0.5452720000000  0.5090200000000 1.0
C      1  0.4671030000000  0.5285730000000  0.5132730000000 1.0
C      1  0.4272590000000  0.5104450000000  0.5788670000000 1.0
C      1  0.4230390000000  0.5675560000000  0.4452210000000 1.0
C      1  0.5645560000000  0.5419910000000  0.4135910000000 1.0
C      1  0.5608070000000  0.5802290000000  0.5434660000000 1.0
C      1  0.4529650000000  0.4585180000000  0.5713700000000 1.0
C      1  0.5164710000000  0.4572080000000  0.5844840000000 1.0
C      1  0.4152710000000  0.5633240000000  0.4745180000000 1.0
C      1  0.4552650000000  0.3986330000000  0.4820990000000 1.0
C      1  0.3778490000000  0.4955210000000  0.4864630000000 1.0
C      1  0.4297830000000  0.4901600000000  0.4939350000000 1.0
C      1  0.3800510000000  0.5252480000000  0.4873800000000 1.0
C      1  0.5242330000000  0.5944030000000  0.4899350000000 1.0
C      1  0.5393630000000  0.5114320000000  0.5670510000000 1.0
C      1  0.5998890000000  0.5307200000000  0.4939110000000 1.0
C      1  0.4469700000000  0.5388790000000  0.4670750000000 1.0
C      1  0.5211850000000  0.5990970000000  0.5181980000000 1.0
C      1  0.5204370000000  0.5908660000000  0.5740980000000 1.0
C      1  0.5095140000000  0.4435280000000  0.5011540000000 1.0
C      1  0.4797870000000  0.4570070000000  0.6106790000000 1.0
C      1  0.4923520000000  0.5066470000000  0.5834030000000 1.0
C      1  0.4533670000000  0.5756610000000  0.5770090000000 1.0
C      1  0.5141140000000  0.4983300000000  0.6019060000000 1.0
C      1  0.4254640000000  0.5470800000000  0.4256830000000 1.0
C      1  0.5892620000000  0.4749260000000  0.5514660000000 1.0
C      1  0.5024560000000  0.4154160000000  0.4917370000000 1.0
C      1  0.4693040000000  0.6021560000000  0.4550370000000 1.0
C      1  0.4562990000000  0.5076390000000  0.5615720000000 1.0
C      1  0.5755250000000  0.4589120000000  0.4336530000000 1.0
C      1  0.5140630000000  0.5521910000000  0.5956460000000 1.0
C      1  0.4353410000000  0.4294480000000  0.4428760000000 1.0
C      1  0.4537070000000  0.4874000000000  0.5121930000000 1.0
C      1  0.5380010000000  0.5530410000000  0.5796200000000 1.0
C      1  0.4890630000000  0.4076700000000  0.4446400000000 1.0
C      1  0.4312220000000  0.5195000000000  0.4206600000000 1.0
C      1  0.4611070000000  0.4727720000000  0.4692850000000 1.0
C      1  0.5375950000000  0.5761510000000  0.5260680000000 1.0
C      1  0.4218240000000  0.5266630000000  0.5091570000000 1.0
C      1  0.6143390000000  0.5183310000000  0.5291460000000 1.0
C      1  0.4377790000000  0.4451840000000  0.4194690000000 1.0
C      1  0.5376480000000  0.3984470000000  0.4695070000000 1.0
C      1  0.4687250000000  0.5061760000000  0.5350300000000 1.0
C      1  0.4939480000000  0.5629700000000  0.4615520000000 1.0
C      1  0.4811780000000  0.5718450000000  0.5100240000000 1.0
C      1  0.4165150000000  0.4280250000000  0.5113730000000 1.0
C      1  0.5610350000000  0.4804100000000  0.4911280000000 1.0
C      1  0.4315160000000  0.5813490000000  0.4913390000000 1.0
C      1  0.4763540000000  0.4808720000000  0.4932580000000 1.0
C      1  0.4688960000000  0.6114280000000  0.5110260000000 1.0
C      1  0.4675840000000  0.4495420000000  0.4244490000000 1.0
C      1  0.5899740000000  0.5146870000000  0.4449300000000 1.0
C      1  0.4439740000000  0.5436610000000  0.5195350000000 1.0
C      1  0.5310350000000  0.4327930000000  0.5887060000000 1.0
C      1  0.4151780000000  0.4847690000000  0.5774050000000 1.0
C      1  0.5878610000000  0.5540540000000  0.5026280000000 1.0
C      1  0.4894420000000  0.5536150000000  0.5556420000000 1.0
C      1  0.4169100000000  0.4752510000000  0.4447270000000 1.0
C      1  0.4355490000000  0.4653740000000  0.4807710000000 1.0
C      1  0.4059520000000  0.5179530000000  0.5323180000000 1.0
C      1  0.5598460000000  0.4163770000000  0.4568950000000 1.0
C      1  0.5706910000000  0.5899060000000  0.4597050000000 1.0
C      1  0.4759960000000  0.5230430000000  0.4037960000000 1.0
C      1  0.4913190000000  0.4321780000000  0.5407630000000 1.0
C      1  0.5647970000000  0.4319320000000  0.5587250000000 1.0
C      1  0.6021290000000  0.4547520000000  0.4981110000000 1.0
C      1  0.5943240000000  0.4967490000000  0.5273260000000 1.0
C      1  0.6089580000000  0.4937690000000  0.4558740000000 1.0
C      1  0.4790530000000  0.4535220000000  0.5036070000000 1.0
C      1  0.4899180000000  0.5378010000000  0.5822780000000 1.0
C      1  0.4948420000000  0.5829310000000  0.5561420000000 1.0
C      1  0.4764180000000  0.4589150000000  0.5493150000000 1.0
C      1  0.4578960000000  0.4252240000000  0.4782290000000 1.0
C      1  0.4015210000000  0.4884950000000  0.5313960000000 1.0
C      1  0.4958220000000  0.5415800000000  0.4427190000000 1.0
C      1  0.5566520000000  0.4461740000000  0.5830880000000 1.0
C      1  0.5075340000000  0.5360730000000  0.5430070000000 1.0
C      1  0.5276020000000  0.4638980000000  0.5532560000000 1.0
C      1  0.4932060000000  0.5890020000000  0.4379200000000 1.0
C      1  0.5172800000000  0.6046430000000  0.4471510000000 1.0
C      1  0.5006810000000  0.4033130000000  0.5575840000000 1.0
C      1  0.4201510000000  0.5900830000000  0.5169260000000 1.0
C      1  0.5356070000000  0.4959700000000  0.5286620000000 1.0
C      1  0.5184900000000  0.4593860000000  0.4778390000000 1.0
C      1  0.4593300000000  0.5209230000000  0.4849430000000 1.0
C      1  0.4921340000000  0.5978880000000  0.5256870000000 1.0
C      1  0.5208990000000  0.4928550000000  0.5533130000000 1.0
C      1  0.4211030000000  0.4499600000000  0.4583220000000 1.0
C      1  0.5742540000000  0.4077070000000  0.4964530000000 1.0
C      1  0.4626620000000  0.5314420000000  0.5976660000000 1.0
C      1  0.4675200000000  0.5018100000000  0.5989330000000 1.0
C      1  0.5797610000000  0.4907350000000  0.5738190000000 1.0
C      1  0.4425220000000  0.5493340000000  0.5871740000000 1.0
C      1  0.5109980000000  0.4587370000000  0.3995750000000 1.0
C      1  0.5875450000000  0.5677510000000  0.4512550000000 1.0
C      1  0.5567600000000  0.5136100000000  0.4133390000000 1.0
C      1  0.4755450000000  0.4101260000000  0.5795100000000 1.0
C      1  0.5339380000000  0.3979510000000  0.5239290000000 1.0
C      1  0.6059890000000  0.5051170000000  0.4828620000000 1.0
C      1  0.4749580000000  0.5454080000000  0.4211140000000 1.0
C      1  0.5836340000000  0.5476970000000  0.5577290000000 1.0
C      1  0.5466290000000  0.5796080000000  0.5697920000000 1.0
C      1  0.4500490000000  0.5813200000000  0.4478220000000 1.0
C      1  0.5064700000000  0.3926620000000  0.5300830000000 1.0
C      1  0.5423810000000  0.4959000000000  0.3954130000000 1.0
C      1  0.4952290000000  0.4789320000000  0.4386650000000 1.0
C      1  0.6000370000000  0.4438430000000  0.4715410000000 1.0
C      1  0.4594980000000  0.4725110000000  0.5973370000000 1.0
C      1  0.4241420000000  0.4245520000000  0.5410540000000 1.0
C      1  0.4899880000000  0.5702280000000  0.4146220000000 1.0
C      1  0.4595640000000  0.4091010000000  0.4527480000000 1.0
C      1  0.5424790000000  0.4984810000000  0.5944180000000 1.0
C      1  0.4290720000000  0.4746240000000  0.4187640000000 1.0
C      1  0.5870670000000  0.4456470000000  0.5457140000000 1.0
C      1  0.4032760000000  0.5427400000000  0.4919100000000 1.0
C      1  0.5289570000000  0.5409650000000  0.4737120000000 1.0
C      1  0.5335140000000  0.5491540000000  0.5130310000000 1.0
C      1  0.5090380000000  0.5333090000000  0.5149580000000 1.0
C      1  0.5867870000000  0.4168360000000  0.4717390000000 1.0
C      1  0.5300860000000  0.5145180000000  0.4853750000000 1.0
C      1  0.5064320000000  0.6116480000000  0.4733110000000 1.0
C      1  0.4449890000000  0.6027480000000  0.5264530000000 1.0
C      1  0.3883620000000  0.4760270000000  0.5077440000000 1.0
C      1  0.4249760000000  0.4486710000000  0.5578010000000 1.0
C      1  0.4758430000000  0.5109080000000  0.4667120000000 1.0
C      1  0.4471960000000  0.4961860000000  0.4108500000000 1.0
C      1  0.4602290000000  0.4602720000000  0.5241560000000 1.0
C      1  0.5073690000000  0.4707870000000  0.6081380000000 1.0
C      1  0.5177970000000  0.5654890000000  0.4843910000000 1.0
C      1  0.5705550000000  0.5040800000000  0.4599860000000 1.0
C      1  0.5322280000000  0.4292880000000  0.4219820000000 1.0
C      1  0.5410610000000  0.5676410000000  0.4406760000000 1.0
C      1  0.4415190000000  0.5839750000000  0.5520420000000 1.0
C      1  0.4738290000000  0.4792830000000  0.4193860000000 1.0
C      1  0.5048780000000  0.5793940000000  0.5962590000000 1.0
C      1  0.5462260000000  0.4108270000000  0.5481800000000 1.0
C      1  0.5827080000000  0.5623360000000  0.5331760000000 1.0
C      1  0.5518560000000  0.5514420000000  0.4626330000000 1.0
C      1  0.4175210000000  0.5382170000000  0.5760430000000 1.0
C      1  0.5848050000000  0.5441480000000  0.4346670000000 1.0
C      1  0.5595610000000  0.4323580000000  0.4288260000000 1.0
C      1  0.5453650000000  0.5962160000000  0.4451850000000 1.0
C      1  0.5041950000000  0.4177580000000  0.4218990000000 1.0
C      1  0.4491700000000  0.4088200000000  0.5359360000000 1.0
C      1  0.5386680000000  0.5132620000000  0.4366930000000 1.0
C      1  0.4202350000000  0.4996340000000  0.4634290000000 1.0
C      1  0.4724700000000  0.4500470000000  0.4553000000000 1.0
C      1  0.5563170000000  0.4629590000000  0.5128700000000 1.0
C      1  0.4911080000000  0.4388090000000  0.4075050000000 1.0
C      1  0.5005360000000  0.4573320000000  0.4555680000000 1.0
C      1  0.5910320000000  0.4838990000000  0.4975070000000 1.0
C      1  0.3909290000000  0.5095240000000  0.4656220000000 1.0
C      1  0.4193120000000  0.5693870000000  0.5397070000000 1.0
C      1  0.5223460000000  0.5115150000000  0.3801390000000 1.0
C      1  0.5313200000000  0.5363410000000  0.5573890000000 1.0
C      1  0.5978940000000  0.4656290000000  0.4516170000000 1.0
C      1  0.5473610000000  0.3952730000000  0.4962940000000 1.0
C      1  0.4434070000000  0.4825070000000  0.5574860000000 1.0
C      1  0.4798860000000  0.5860570000000  0.5814320000000 1.0
C      1  0.4975920000000  0.5018870000000  0.4530380000000 1.0
C      1  0.4018030000000  0.4517310000000  0.5079120000000 1.0
C      1  0.5358660000000  0.4717720000000  0.4110580000000 1.0
C      1  0.4525190000000  0.5674200000000  0.5071150000000 1.0
C      1  0.4732430000000  0.4189830000000  0.5226350000000 1.0
C      1  0.5436390000000  0.5038450000000  0.4617640000000 1.0
C      1  0.5700150000000  0.5673140000000  0.4808680000000 1.0
C      1  0.4241990000000  0.4712010000000  0.5390320000000 1.0
C      1  0.5192000000000  0.5388200000000  0.3840070000000 1.0
C      1  0.4929780000000  0.4873770000000  0.5403190000000 1.0
C      1  0.4331080000000  0.4154360000000  0.4902740000000 1.0
C      1  0.5530450000000  0.4386520000000  0.4767740000000 1.0
C      1  0.5500380000000  0.4715400000000  0.4369620000000 1.0
C      1  0.5136990000000  0.5621490000000  0.3990230000000 1.0
C      1  0.5901810000000  0.4378360000000  0.5179400000000 1.0
C      1  0.5453340000000  0.4650880000000  0.4699940000000 1.0
C      1  0.5718530000000  0.5176950000000  0.5595430000000 1.0
C      1  0.5091500000000  0.4046440000000  0.4655010000000 1.0
C      1  0.4859190000000  0.3986740000000  0.5086620000000 1.0
C      1  0.4642520000000  0.5615780000000  0.4625150000000 1.0
C      1  0.5115530000000  0.4841910000000  0.5162610000000 1.0
C      1  0.4767180000000  0.4336000000000  0.5953400000000 1.0
C      1  0.4389060000000  0.5177870000000  0.4494310000000 1.0
C      1  0.5125540000000  0.5205890000000  0.4384580000000 1.0
END
