TITL C-2441154-10-1487 0.0873806280447089 125000 -15894.7426513719 0 0 122 (C1) n - 1
REM
REM in /home/bkarasulu/work/CARBON/AIRSS/Generating-Clusters/ReaxFF-fromJPCA2015/Units_Real/with-SteepDescent/Higher-Symm
REM
REM
REM
REM
REM
REM ./C.cell (1df0a924f5614ab8850e4351716899ee)
REM
REM compiler GCC version 9.2.1 20190827 (Red Hat 9.2.1-1)
REM options -cpp -mtune=generic -march=x86-64 -g -O0 -fpre-include=/usr/include/finclude/math-vector-fortran.h
REM seed -1881766084 -221080398 -537634602 1890945055 1825692513 826290985 -746602704 1742842934 1674703356 -1287286286 588993753 -1605524764 -1004739256 -1039396813 -623315730 -747228997 627245127 1097611805 962406373 -670654132 1394560204 508764260 -629259073 552191577 -1643242607 1930490080 -1835350762 1420376483 1467891650 1914166949 -666135735 982780178 -790483306
REM
CELL 1.54180   50.00000   50.00000   50.00000   90.00000   90.00000   90.00000
LATT -1
SFAC C  
C      1  0.5465120000000  0.4337400000000  0.4550480000000 1.0
C      1  0.4514130000000  0.4634170000000  0.4324560000000 1.0
C      1  0.5471480000000  0.5062660000000  0.4178180000000 1.0
C      1  0.4533180000000  0.5465430000000  0.4318650000000 1.0
C      1  0.5484270000000  0.5654400000000  0.4619860000000 1.0
C      1  0.4514060000000  0.5791170000000  0.5015590000000 1.0
C      1  0.5474210000000  0.5633960000000  0.5427690000000 1.0
C      1  0.4550720000000  0.5363680000000  0.5736670000000 1.0
C      1  0.5472210000000  0.4961870000000  0.5734610000000 1.0
C      1  0.4499390000000  0.4621800000000  0.5664850000000 1.0
C      1  0.5501180000000  0.4298900000000  0.5373330000000 1.0
C      1  0.4542570000000  0.4195220000000  0.4924600000000 1.0
C      1  0.4761760000000  0.4975550000000  0.5480100000000 1.0
C      1  0.5246400000000  0.4805660000000  0.5379840000000 1.0
C      1  0.4740160000000  0.4576950000000  0.5213340000000 1.0
C      1  0.5333540000000  0.4622120000000  0.4981330000000 1.0
C      1  0.4721300000000  0.4620390000000  0.4763680000000 1.0
C      1  0.5287580000000  0.4750860000000  0.4484970000000 1.0
C      1  0.4734370000000  0.5033770000000  0.4529340000000 1.0
C      1  0.5244390000000  0.5171440000000  0.4554380000000 1.0
C      1  0.4685690000000  0.5393740000000  0.4821070000000 1.0
C      1  0.5304450000000  0.5480690000000  0.5061160000000 1.0
C      1  0.4670830000000  0.5276620000000  0.5237070000000 1.0
C      1  0.5261510000000  0.5236830000000  0.5463630000000 1.0
C      1  0.5586240000000  0.4660410000000  0.5705480000000 1.0
C      1  0.4418940000000  0.4370730000000  0.5357060000000 1.0
C      1  0.5598170000000  0.4233490000000  0.5034410000000 1.0
C      1  0.4400960000000  0.4308030000000  0.4690370000000 1.0
C      1  0.5610320000000  0.4537470000000  0.4401340000000 1.0
C      1  0.4410970000000  0.4985800000000  0.4259100000000 1.0
C      1  0.5588490000000  0.5305950000000  0.4291410000000 1.0
C      1  0.4415860000000  0.5604920000000  0.4548340000000 1.0
C      1  0.5606380000000  0.5786790000000  0.4976270000000 1.0
C      1  0.4414200000000  0.5653450000000  0.5341740000000 1.0
C      1  0.5590720000000  0.5449650000000  0.5637130000000 1.0
C      1  0.4440260000000  0.5096920000000  0.5732980000000 1.0
C      1  0.4925740000000  0.4882350000000  0.4088350000000 1.0
C      1  0.5057300000000  0.5355080000000  0.4117070000000 1.0
C      1  0.4943500000000  0.5726070000000  0.4426040000000 1.0
C      1  0.5071330000000  0.5883610000000  0.4861660000000 1.0
C      1  0.4923280000000  0.5854980000000  0.5339030000000 1.0
C      1  0.5063450000000  0.5582790000000  0.5731590000000 1.0
C      1  0.4941860000000  0.5140110000000  0.5908510000000 1.0
C      1  0.5070580000000  0.4660020000000  0.5850080000000 1.0
C      1  0.4923160000000  0.4273640000000  0.5573340000000 1.0
C      1  0.5075420000000  0.4098540000000  0.5132610000000 1.0
C      1  0.4939260000000  0.4150080000000  0.4654610000000 1.0
C      1  0.5045650000000  0.4452570000000  0.4277900000000 1.0
C      1  0.5576170000000  0.5416700000000  0.5173920000000 1.0
C      1  0.4388160000000  0.5176020000000  0.5232240000000 1.0
C      1  0.5609310000000  0.5019200000000  0.5472790000000 1.0
C      1  0.4324240000000  0.4754360000000  0.5488770000000 1.0
C      1  0.5669760000000  0.4535030000000  0.5298970000000 1.0
C      1  0.4302560000000  0.4722290000000  0.5002530000000 1.0
C      1  0.5608170000000  0.4668130000000  0.4885600000000 1.0
C      1  0.4392890000000  0.4715140000000  0.4572060000000 1.0
C      1  0.5687120000000  0.4999150000000  0.4670100000000 1.0
C      1  0.4296870000000  0.5140440000000  0.4742000000000 1.0
C      1  0.5671140000000  0.5466030000000  0.4706480000000 1.0
C      1  0.4367190000000  0.5535620000000  0.4959820000000 1.0
C      1  0.5432470000000  0.5851950000000  0.5183800000000 1.0
C      1  0.4563350000000  0.5614560000000  0.5576490000000 1.0
C      1  0.5428030000000  0.5278380000000  0.5814520000000 1.0
C      1  0.4583370000000  0.4848970000000  0.5825530000000 1.0
C      1  0.5424100000000  0.4429850000000  0.5638200000000 1.0
C      1  0.4567030000000  0.4176030000000  0.5224790000000 1.0
C      1  0.5436340000000  0.4180360000000  0.4804070000000 1.0
C      1  0.4564300000000  0.4369910000000  0.4441840000000 1.0
C      1  0.5425940000000  0.4760150000000  0.4222150000000 1.0
C      1  0.4557100000000  0.5205080000000  0.4168520000000 1.0
C      1  0.5426810000000  0.5551730000000  0.4355990000000 1.0
C      1  0.4571570000000  0.5793890000000  0.4721500000000 1.0
C      1  0.4818450000000  0.5439010000000  0.5070840000000 1.0
C      1  0.5118420000000  0.5261790000000  0.5046680000000 1.0
C      1  0.4840840000000  0.5211360000000  0.5437680000000 1.0
C      1  0.5234450000000  0.5066570000000  0.5258620000000 1.0
C      1  0.4849740000000  0.4765080000000  0.5398410000000 1.0
C      1  0.5215090000000  0.4583020000000  0.5229570000000 1.0
C      1  0.4876790000000  0.4687710000000  0.4987230000000 1.0
C      1  0.5114350000000  0.4598140000000  0.4846660000000 1.0
C      1  0.4890740000000  0.4808980000000  0.4596620000000 1.0
C      1  0.5180570000000  0.4924220000000  0.4642070000000 1.0
C      1  0.4830470000000  0.5268670000000  0.4643170000000 1.0
C      1  0.5099180000000  0.5310680000000  0.4746410000000 1.0
C      1  0.5705850000000  0.5289660000000  0.5427230000000 1.0
C      1  0.4312330000000  0.5030920000000  0.5489600000000 1.0
C      1  0.5732260000000  0.4755250000000  0.5475800000000 1.0
C      1  0.4279760000000  0.4599010000000  0.5263910000000 1.0
C      1  0.5749100000000  0.4470990000000  0.5037170000000 1.0
C      1  0.4279390000000  0.4560240000000  0.4772030000000 1.0
C      1  0.5718170000000  0.4709460000000  0.4596170000000 1.0
C      1  0.4285900000000  0.4971290000000  0.4507390000000 1.0
C      1  0.5730160000000  0.5256890000000  0.4537150000000 1.0
C      1  0.4276110000000  0.5424760000000  0.4722350000000 1.0
C      1  0.5746830000000  0.5545900000000  0.4963850000000 1.0
C      1  0.4274620000000  0.5454460000000  0.5211140000000 1.0
C      1  0.4764690000000  0.4815760000000  0.4330400000000 1.0
C      1  0.5211510000000  0.5154480000000  0.4267460000000 1.0
C      1  0.4796700000000  0.5471830000000  0.4444150000000 1.0
C      1  0.5232230000000  0.5632170000000  0.4808350000000 1.0
C      1  0.4782420000000  0.5728710000000  0.5122400000000 1.0
C      1  0.5208060000000  0.5513430000000  0.5487370000000 1.0
C      1  0.4811940000000  0.5286320000000  0.5703930000000 1.0
C      1  0.5214020000000  0.4833260000000  0.5666240000000 1.0
C      1  0.4751890000000  0.4525480000000  0.5520020000000 1.0
C      1  0.5218360000000  0.4302570000000  0.5285410000000 1.0
C      1  0.4783440000000  0.4328370000000  0.4827990000000 1.0
C      1  0.5196880000000  0.4488770000000  0.4561710000000 1.0
C      1  0.5152940000000  0.5595830000000  0.4268430000000 1.0
C      1  0.4848920000000  0.5871820000000  0.4666480000000 1.0
C      1  0.5139730000000  0.5929360000000  0.5142990000000 1.0
C      1  0.4849310000000  0.5720780000000  0.5589530000000 1.0
C      1  0.5150640000000  0.5341360000000  0.5885380000000 1.0
C      1  0.4861350000000  0.4857850000000  0.5918800000000 1.0
C      1  0.5140680000000  0.4397850000000  0.5724160000000 1.0
C      1  0.4856620000000  0.4122560000000  0.5332900000000 1.0
C      1  0.5151540000000  0.4090950000000  0.4846180000000 1.0
C      1  0.4840230000000  0.4284000000000  0.4401000000000 1.0
C      1  0.5127310000000  0.4678660000000  0.4122730000000 1.0
C      1  0.4846310000000  0.5161250000000  0.4070710000000 1.0
C      1  0.5615990000000  0.4994240000000  0.4946460000000 1.0
C      1  0.4336240000000  0.4999660000000  0.4981720000000 1.0
END
