TITL C-2441166-8118-945 6.35588424313113e-14 125000 -470.440373945601 0 0 4 (D(inf)h) n - 1
REM
REM in /home/bkarasulu/work/CARBON/AIRSS/Generating-Clusters/ReaxFF-fromJPCA2015/Units_Real/with-SteepDescent/Higher-Symm
REM
REM
REM
REM
REM
REM ./C.cell (1df0a924f5614ab8850e4351716899ee)
REM
REM compiler GCC version 9.2.1 20190827 (Red Hat 9.2.1-1)
REM options -cpp -mtune=generic -march=x86-64 -g -O0 -fpre-include=/usr/include/finclude/math-vector-fortran.h
REM seed -1536057137 -444250769 586728647 116321700 -853191533 -1346163099 481734689 760282969 2045867606 -1910562417 7735785 -1667484583 -1893461630 1046895790 1110100052 1744129125 -684000361 -1145780718 -504063671 -636671261 -762003361 -1252464685 913796504 -221476466 -1453596526 -145274382 723779007 -1578739198 -759301469 -857639806 1769421419 1997081162 -815937632
REM
CELL 1.54180   50.00000   50.00000   50.00000   90.00000   90.00000   90.00000
LATT -1
SFAC C  
C      1  0.4626110000000  0.5037170000000  0.5048720000000 1.0
C      1  0.5130160000000  0.5037170000000  0.5048720000000 1.0
C      1  0.5373890000000  0.5037170000000  0.5048720000000 1.0
C      1  0.4869840000000  0.5037170000000  0.5048720000000 1.0
END
