TITL C-2441169-1362-268 0.0159819126056389 125000 -18046.1985973851 0 0 121 (C1) n - 1
REM
REM in /home/bkarasulu/work/CARBON/AIRSS/Generating-Clusters/ReaxFF-fromJPCA2015/Units_Real/with-SteepDescent/Higher-Symm
REM
REM
REM
REM
REM
REM ./C.cell (1df0a924f5614ab8850e4351716899ee)
REM
REM compiler GCC version 9.2.1 20190827 (Red Hat 9.2.1-1)
REM options -cpp -mtune=generic -march=x86-64 -g -O0 -fpre-include=/usr/include/finclude/math-vector-fortran.h
REM seed 1954153208 412639430 1753722775 -919061745 -366004846 -2116494713 607414819 -938399680 -839029823 1357531259 -1367920604 845586482 -1947528392 1853438266 1476927312 821682078 1468883110 -397356262 1658720559 -1741402697 1843754326 -778235751 -1860064862 -615515079 1107342347 1615720617 -951394642 1520292832 -819669857 -550864167 995192390 1320401756 1832275250
REM
CELL 1.54180   50.00000   50.00000   50.00000   90.00000   90.00000   90.00000
LATT -1
SFAC C  
C      1  0.5325030000000  0.4236670000000  0.5594770000000 1.0
C      1  0.5243850000000  0.4977360000000  0.5893380000000 1.0
C      1  0.5279980000000  0.5738870000000  0.5555180000000 1.0
C      1  0.5292940000000  0.5915850000000  0.4748640000000 1.0
C      1  0.5286230000000  0.5376150000000  0.4131640000000 1.0
C      1  0.5285950000000  0.4572800000000  0.4166240000000 1.0
C      1  0.5306110000000  0.4049640000000  0.4799090000000 1.0
C      1  0.5079540000000  0.5203280000000  0.5949610000000 1.0
C      1  0.5101050000000  0.5902310000000  0.5413810000000 1.0
C      1  0.5093760000000  0.5885130000000  0.4551240000000 1.0
C      1  0.5079500000000  0.5204280000000  0.4045780000000 1.0
C      1  0.5105290000000  0.4368860000000  0.4231000000000 1.0
C      1  0.5123430000000  0.3983100000000  0.5002730000000 1.0
C      1  0.5065860000000  0.4319330000000  0.5666980000000 1.0
C      1  0.5682710000000  0.4406320000000  0.5274460000000 1.0
C      1  0.5638140000000  0.4839490000000  0.5615130000000 1.0
C      1  0.5637760000000  0.5383780000000  0.5488540000000 1.0
C      1  0.5651110000000  0.5634650000000  0.4988600000000 1.0
C      1  0.5657700000000  0.5393250000000  0.4487270000000 1.0
C      1  0.5652760000000  0.4851480000000  0.4377560000000 1.0
C      1  0.5666130000000  0.4411190000000  0.4719480000000 1.0
C      1  0.5079210000000  0.5217820000000  0.5466190000000 1.0
C      1  0.5142900000000  0.5529230000000  0.5118540000000 1.0
C      1  0.5162280000000  0.5427600000000  0.4674320000000 1.0
C      1  0.5096170000000  0.5007510000000  0.4497790000000 1.0
C      1  0.5149070000000  0.4593750000000  0.4649860000000 1.0
C      1  0.5203130000000  0.4443740000000  0.5069060000000 1.0
C      1  0.5131010000000  0.4733950000000  0.5444040000000 1.0
C      1  0.5928960000000  0.4791610000000  0.5251540000000 1.0
C      1  0.5915390000000  0.5065740000000  0.5316030000000 1.0
C      1  0.5917750000000  0.5287510000000  0.5138740000000 1.0
C      1  0.5924010000000  0.5289450000000  0.4854440000000 1.0
C      1  0.5927930000000  0.5068380000000  0.4677710000000 1.0
C      1  0.5927210000000  0.4792780000000  0.4740690000000 1.0
C      1  0.5934130000000  0.4669970000000  0.4995500000000 1.0
C      1  0.4411730000000  0.4931620000000  0.4329620000000 1.0
C      1  0.4453580000000  0.4436230000000  0.4620520000000 1.0
C      1  0.4494610000000  0.4352190000000  0.5180780000000 1.0
C      1  0.4369800000000  0.4784340000000  0.5652560000000 1.0
C      1  0.4393750000000  0.5394340000000  0.5578750000000 1.0
C      1  0.4414280000000  0.5691690000000  0.5093170000000 1.0
C      1  0.4391320000000  0.5504510000000  0.4538130000000 1.0
C      1  0.5350080000000  0.5320180000000  0.5086750000000 1.0
C      1  0.5374760000000  0.5267660000000  0.4801970000000 1.0
C      1  0.5331190000000  0.5008510000000  0.4677490000000 1.0
C      1  0.5361450000000  0.4743290000000  0.4787040000000 1.0
C      1  0.5378950000000  0.4680270000000  0.5069010000000 1.0
C      1  0.5325660000000  0.4846840000000  0.5285460000000 1.0
C      1  0.5298170000000  0.5123760000000  0.5292420000000 1.0
C      1  0.4781140000000  0.5233020000000  0.5910480000000 1.0
C      1  0.4803800000000  0.5840280000000  0.5403420000000 1.0
C      1  0.4800840000000  0.5832860000000  0.4609920000000 1.0
C      1  0.4785240000000  0.5221960000000  0.4112630000000 1.0
C      1  0.4812960000000  0.4434650000000  0.4268710000000 1.0
C      1  0.4833420000000  0.4069260000000  0.4989820000000 1.0
C      1  0.4690420000000  0.4551280000000  0.5538000000000 1.0
C      1  0.4614430000000  0.4748780000000  0.5793350000000 1.0
C      1  0.4619190000000  0.5456320000000  0.5743840000000 1.0
C      1  0.4647910000000  0.5860070000000  0.5131680000000 1.0
C      1  0.4625310000000  0.5634920000000  0.4430320000000 1.0
C      1  0.4631510000000  0.4946310000000  0.4150080000000 1.0
C      1  0.4669370000000  0.4285220000000  0.4505770000000 1.0
C      1  0.4710570000000  0.4189550000000  0.5251350000000 1.0
C      1  0.4286170000000  0.5212150000000  0.4485090000000 1.0
C      1  0.4369290000000  0.4688580000000  0.4479670000000 1.0
C      1  0.4395640000000  0.4403730000000  0.4918210000000 1.0
C      1  0.4408180000000  0.4563460000000  0.5442050000000 1.0
C      1  0.4283040000000  0.5071150000000  0.5562450000000 1.0
C      1  0.4339850000000  0.5523550000000  0.5326580000000 1.0
C      1  0.4387420000000  0.5542450000000  0.4828710000000 1.0
C      1  0.5461200000000  0.4214340000000  0.4628300000000 1.0
C      1  0.5493380000000  0.4199580000000  0.5369080000000 1.0
C      1  0.5410600000000  0.4771010000000  0.5802480000000 1.0
C      1  0.5425790000000  0.5516810000000  0.5651670000000 1.0
C      1  0.5452340000000  0.5857930000000  0.4977160000000 1.0
C      1  0.5452320000000  0.5520230000000  0.4311650000000 1.0
C      1  0.5431430000000  0.4813160000000  0.4182730000000 1.0
C      1  0.4706010000000  0.5426600000000  0.4269990000000 1.0
C      1  0.4728190000000  0.4687500000000  0.4203130000000 1.0
C      1  0.4756070000000  0.4170220000000  0.4746020000000 1.0
C      1  0.4812310000000  0.4283250000000  0.5512830000000 1.0
C      1  0.4730570000000  0.4984000000000  0.5872920000000 1.0
C      1  0.4721350000000  0.5654060000000  0.5580900000000 1.0
C      1  0.4732840000000  0.5852850000000  0.4868860000000 1.0
C      1  0.5204830000000  0.5622620000000  0.4456970000000 1.0
C      1  0.5172530000000  0.4975970000000  0.4216090000000 1.0
C      1  0.5209230000000  0.4340980000000  0.4512290000000 1.0
C      1  0.5246190000000  0.4179180000000  0.5194140000000 1.0
C      1  0.5176000000000  0.4605450000000  0.5699810000000 1.0
C      1  0.5169070000000  0.5361790000000  0.5704560000000 1.0
C      1  0.5202120000000  0.5818990000000  0.5144300000000 1.0
C      1  0.4404070000000  0.5104730000000  0.4703870000000 1.0
C      1  0.4323810000000  0.4849480000000  0.4731590000000 1.0
C      1  0.4299470000000  0.4680270000000  0.4976240000000 1.0
C      1  0.4357320000000  0.4779090000000  0.5246090000000 1.0
C      1  0.4468070000000  0.5041490000000  0.5325330000000 1.0
C      1  0.4347580000000  0.5255330000000  0.5173660000000 1.0
C      1  0.4443750000000  0.5274830000000  0.4901350000000 1.0
C      1  0.4885530000000  0.4701430000000  0.5299310000000 1.0
C      1  0.4829070000000  0.5215560000000  0.5302010000000 1.0
C      1  0.4886730000000  0.5395900000000  0.5073180000000 1.0
C      1  0.4904260000000  0.5338390000000  0.4785600000000 1.0
C      1  0.4855910000000  0.5083170000000  0.4653420000000 1.0
C      1  0.4893800000000  0.4654290000000  0.4787910000000 1.0
C      1  0.4934260000000  0.4543510000000  0.5047200000000 1.0
C      1  0.4040100000000  0.4817880000000  0.5249200000000 1.0
C      1  0.4026940000000  0.5065430000000  0.5388610000000 1.0
C      1  0.4019440000000  0.5266130000000  0.5178590000000 1.0
C      1  0.3965570000000  0.5239660000000  0.4904910000000 1.0
C      1  0.4010570000000  0.5156210000000  0.4642180000000 1.0
C      1  0.3987540000000  0.4879580000000  0.4725430000000 1.0
C      1  0.3983390000000  0.4745880000000  0.4979970000000 1.0
C      1  0.5739260000000  0.5492340000000  0.5233620000000 1.0
C      1  0.5751130000000  0.5495240000000  0.4749360000000 1.0
C      1  0.5753930000000  0.5117800000000  0.4453030000000 1.0
C      1  0.5752630000000  0.4646540000000  0.4564140000000 1.0
C      1  0.5770090000000  0.4433230000000  0.4994050000000 1.0
C      1  0.5758050000000  0.4644150000000  0.5431800000000 1.0
C      1  0.5731570000000  0.5107530000000  0.5535010000000 1.0
C      1  0.4809820000000  0.4953470000000  0.5162640000000 1.0
C      1  0.4785400000000  0.4910030000000  0.4872890000000 1.0
END
