TITL C-2441164-471-280 0.051421520347072 125000 -19981.5760195794 0 0 146 (C1) n - 1
REM
REM in /home/bkarasulu/work/CARBON/AIRSS/Generating-Clusters/ReaxFF-fromJPCA2015/Units_Real/with-SteepDescent/Higher-Symm
REM
REM
REM
REM
REM
REM ./C.cell (1df0a924f5614ab8850e4351716899ee)
REM
REM compiler GCC version 9.2.1 20190827 (Red Hat 9.2.1-1)
REM options -cpp -mtune=generic -march=x86-64 -g -O0 -fpre-include=/usr/include/finclude/math-vector-fortran.h
REM seed -734218471 1197093560 415163554 1973157508 946478620 -1465469997 -1752240021 -477493018 -1793982721 -361742944 942144817 1649766513 1155865095 -1525583711 -1322929787 -1522506945 1325507675 1404489690 1538549824 -1246003660 1299876048 -1303183321 238746221 1114051157 644672797 1504753861 -521513775 685467969 -648673004 9976404 -183765174 2106662723 -1116174832
REM
CELL 1.54180   50.00000   50.00000   50.00000   90.00000   90.00000   90.00000
LATT -1
SFAC C  
C      1  0.5401290000000  0.5307020000000  0.4629890000000 1.0
C      1  0.5411590000000  0.5421430000000  0.4907660000000 1.0
C      1  0.5463000000000  0.5197110000000  0.5311140000000 1.0
C      1  0.5443170000000  0.4988130000000  0.5565420000000 1.0
C      1  0.5379550000000  0.4548830000000  0.5083510000000 1.0
C      1  0.5495510000000  0.4604960000000  0.4818340000000 1.0
C      1  0.5414080000000  0.4801190000000  0.4612290000000 1.0
C      1  0.4820370000000  0.4909390000000  0.5453550000000 1.0
C      1  0.4765150000000  0.4486870000000  0.5226040000000 1.0
C      1  0.4820080000000  0.4458150000000  0.4795830000000 1.0
C      1  0.4880470000000  0.4867020000000  0.4619940000000 1.0
C      1  0.4723290000000  0.5276440000000  0.4576070000000 1.0
C      1  0.4875100000000  0.5443490000000  0.4970880000000 1.0
C      1  0.4824330000000  0.5359600000000  0.5403810000000 1.0
C      1  0.5367840000000  0.5783140000000  0.4918330000000 1.0
C      1  0.5280790000000  0.5630270000000  0.5756670000000 1.0
C      1  0.5220530000000  0.4834040000000  0.5746170000000 1.0
C      1  0.5318400000000  0.4271220000000  0.5318140000000 1.0
C      1  0.5251630000000  0.4167100000000  0.4653350000000 1.0
C      1  0.5228810000000  0.4829930000000  0.4389600000000 1.0
C      1  0.5269900000000  0.5454260000000  0.4429450000000 1.0
C      1  0.4286920000000  0.4428950000000  0.4734560000000 1.0
C      1  0.4212410000000  0.4851120000000  0.4357840000000 1.0
C      1  0.4210730000000  0.5397140000000  0.4479620000000 1.0
C      1  0.4097720000000  0.5619070000000  0.4949340000000 1.0
C      1  0.4323480000000  0.5402600000000  0.5489950000000 1.0
C      1  0.4172920000000  0.4815760000000  0.5564430000000 1.0
C      1  0.4267910000000  0.4531800000000  0.5235740000000 1.0
C      1  0.5326540000000  0.5963340000000  0.5160490000000 1.0
C      1  0.5228150000000  0.5413950000000  0.5920680000000 1.0
C      1  0.5230610000000  0.4573130000000  0.5832500000000 1.0
C      1  0.5256890000000  0.4026200000000  0.5189400000000 1.0
C      1  0.5228030000000  0.4254950000000  0.4377890000000 1.0
C      1  0.5212290000000  0.4980130000000  0.4123300000000 1.0
C      1  0.5172190000000  0.5721490000000  0.4368110000000 1.0
C      1  0.4949280000000  0.4308470000000  0.4286520000000 1.0
C      1  0.4939700000000  0.5098440000000  0.4061550000000 1.0
C      1  0.4881820000000  0.5791240000000  0.4465680000000 1.0
C      1  0.5053840000000  0.5978180000000  0.5258520000000 1.0
C      1  0.4939970000000  0.5406710000000  0.5955640000000 1.0
C      1  0.4954270000000  0.4483080000000  0.5846860000000 1.0
C      1  0.4980660000000  0.4040990000000  0.5072200000000 1.0
C      1  0.5723610000000  0.5783870000000  0.5498830000000 1.0
C      1  0.5788170000000  0.5179520000000  0.5905840000000 1.0
C      1  0.5731330000000  0.4444390000000  0.5656020000000 1.0
C      1  0.5713460000000  0.4109210000000  0.4963050000000 1.0
C      1  0.5679740000000  0.4499380000000  0.4227530000000 1.0
C      1  0.5759700000000  0.5198620000000  0.4079350000000 1.0
C      1  0.5741500000000  0.5804770000000  0.4513190000000 1.0
C      1  0.5612520000000  0.5888350000000  0.4738880000000 1.0
C      1  0.5515090000000  0.5624830000000  0.5588180000000 1.0
C      1  0.5647480000000  0.5002880000000  0.6012380000000 1.0
C      1  0.5573070000000  0.4280550000000  0.5501950000000 1.0
C      1  0.5533000000000  0.4157330000000  0.4762220000000 1.0
C      1  0.5737800000000  0.4695700000000  0.4364370000000 1.0
C      1  0.5689160000000  0.5306080000000  0.4329980000000 1.0
C      1  0.4242060000000  0.5283140000000  0.4219370000000 1.0
C      1  0.4305480000000  0.5728730000000  0.4761210000000 1.0
C      1  0.4343650000000  0.5705800000000  0.5434320000000 1.0
C      1  0.4305060000000  0.4973540000000  0.5743200000000 1.0
C      1  0.4240720000000  0.4497030000000  0.5517440000000 1.0
C      1  0.4311850000000  0.4173720000000  0.4886000000000 1.0
C      1  0.4281770000000  0.4585590000000  0.4285320000000 1.0
C      1  0.4762130000000  0.5953940000000  0.5219740000000 1.0
C      1  0.4695860000000  0.5519030000000  0.5841750000000 1.0
C      1  0.4704360000000  0.4636030000000  0.5873400000000 1.0
C      1  0.4711470000000  0.4040470000000  0.5264290000000 1.0
C      1  0.4708470000000  0.4227720000000  0.4417500000000 1.0
C      1  0.4698280000000  0.4955660000000  0.4087580000000 1.0
C      1  0.4642920000000  0.5668110000000  0.4367070000000 1.0
C      1  0.4372060000000  0.5637220000000  0.4497420000000 1.0
C      1  0.4186070000000  0.5686190000000  0.5206780000000 1.0
C      1  0.4468860000000  0.5353620000000  0.5766960000000 1.0
C      1  0.4447940000000  0.4544130000000  0.5761760000000 1.0
C      1  0.4475910000000  0.4030620000000  0.5104800000000 1.0
C      1  0.4431050000000  0.4370490000000  0.4427160000000 1.0
C      1  0.4405110000000  0.5038980000000  0.4149630000000 1.0
C      1  0.4520190000000  0.5677500000000  0.4914800000000 1.0
C      1  0.4613240000000  0.5839480000000  0.5447070000000 1.0
C      1  0.4494130000000  0.5093360000000  0.5903750000000 1.0
C      1  0.4460320000000  0.4302140000000  0.5623440000000 1.0
C      1  0.4517710000000  0.3992290000000  0.4815010000000 1.0
C      1  0.4546740000000  0.4627650000000  0.4355000000000 1.0
C      1  0.4455830000000  0.5316410000000  0.4076840000000 1.0
C      1  0.5055820000000  0.5202750000000  0.5799980000000 1.0
C      1  0.4932230000000  0.4373660000000  0.5580970000000 1.0
C      1  0.4893970000000  0.4329680000000  0.5038300000000 1.0
C      1  0.4955200000000  0.4538450000000  0.4122900000000 1.0
C      1  0.4933690000000  0.5377460000000  0.4078770000000 1.0
C      1  0.4870030000000  0.5946510000000  0.4717490000000 1.0
C      1  0.5082400000000  0.5732030000000  0.5366070000000 1.0
C      1  0.5692770000000  0.5316530000000  0.4924910000000 1.0
C      1  0.5724100000000  0.5181080000000  0.5174040000000 1.0
C      1  0.5645270000000  0.4852400000000  0.5410320000000 1.0
C      1  0.5642310000000  0.4656380000000  0.5205440000000 1.0
C      1  0.5750920000000  0.4687560000000  0.4931810000000 1.0
C      1  0.5700090000000  0.4880320000000  0.4582150000000 1.0
C      1  0.5680370000000  0.5196160000000  0.4620900000000 1.0
C      1  0.5110420000000  0.4251060000000  0.5483960000000 1.0
C      1  0.5017680000000  0.4044010000000  0.4764770000000 1.0
C      1  0.5186520000000  0.4693780000000  0.4144730000000 1.0
C      1  0.5160830000000  0.5504880000000  0.4180830000000 1.0
C      1  0.5125420000000  0.5888620000000  0.4807920000000 1.0
C      1  0.5055250000000  0.5748880000000  0.5635040000000 1.0
C      1  0.5016810000000  0.4951630000000  0.5908750000000 1.0
C      1  0.5510470000000  0.5182150000000  0.5835080000000 1.0
C      1  0.5479070000000  0.4399130000000  0.5758370000000 1.0
C      1  0.5477590000000  0.3969530000000  0.5004860000000 1.0
C      1  0.5470750000000  0.4379550000000  0.4287530000000 1.0
C      1  0.5512470000000  0.5161200000000  0.4144610000000 1.0
C      1  0.5478110000000  0.5842780000000  0.4491260000000 1.0
C      1  0.5522260000000  0.5805180000000  0.5317520000000 1.0
C      1  0.4759310000000  0.4054450000000  0.4638130000000 1.0
C      1  0.4717450000000  0.4678200000000  0.4129610000000 1.0
C      1  0.4673790000000  0.5482980000000  0.4142440000000 1.0
C      1  0.4681510000000  0.5895110000000  0.4952370000000 1.0
C      1  0.4765990000000  0.5750610000000  0.5675400000000 1.0
C      1  0.4733950000000  0.4907050000000  0.5944590000000 1.0
C      1  0.4702080000000  0.4171110000000  0.5517160000000 1.0
C      1  0.4549960000000  0.4592770000000  0.4800820000000 1.0
C      1  0.4591720000000  0.4861690000000  0.4658740000000 1.0
C      1  0.4508430000000  0.5152380000000  0.4737470000000 1.0
C      1  0.4583960000000  0.5401460000000  0.4980430000000 1.0
C      1  0.4559610000000  0.5303000000000  0.5300000000000 1.0
C      1  0.4570530000000  0.5014040000000  0.5354430000000 1.0
C      1  0.4520790000000  0.4597020000000  0.5117340000000 1.0
C      1  0.4142050000000  0.5226460000000  0.5265090000000 1.0
C      1  0.4103490000000  0.4945630000000  0.5306410000000 1.0
C      1  0.4096530000000  0.4719490000000  0.5102320000000 1.0
C      1  0.4122480000000  0.4683100000000  0.4815910000000 1.0
C      1  0.4126500000000  0.4902520000000  0.4622010000000 1.0
C      1  0.4199130000000  0.5201370000000  0.4713430000000 1.0
C      1  0.4103520000000  0.5326870000000  0.4999430000000 1.0
C      1  0.4944490000000  0.5149610000000  0.5538160000000 1.0
C      1  0.4952570000000  0.4668630000000  0.5346360000000 1.0
C      1  0.5131080000000  0.4713430000000  0.5065420000000 1.0
C      1  0.5008110000000  0.4668740000000  0.4788340000000 1.0
C      1  0.4967580000000  0.5131900000000  0.4548970000000 1.0
C      1  0.4961560000000  0.5376930000000  0.4706490000000 1.0
C      1  0.4987010000000  0.5510430000000  0.5230720000000 1.0
C      1  0.6150950000000  0.4993310000000  0.4961300000000 1.0
C      1  0.4573650000000  0.4897970000000  0.5096980000000 1.0
C      1  0.5101250000000  0.5018320000000  0.4996810000000 1.0
C      1  0.4825160000000  0.4991820000000  0.5038010000000 1.0
C      1  0.5902170000000  0.4952460000000  0.5010660000000 1.0
C      1  0.5271510000000  0.5235980000000  0.5103560000000 1.0
END
