TITL C-2441158-471-722 0.000776590165345732 125000 -2131.4988517913 0 0 18 (C3i) n - 1
REM
REM in /home/bkarasulu/work/CARBON/AIRSS/Generating-Clusters/ReaxFF-fromJPCA2015/Units_Real/with-SteepDescent/Higher-Symm
REM
REM
REM
REM
REM
REM ./C.cell (1df0a924f5614ab8850e4351716899ee)
REM
REM compiler GCC version 9.2.1 20190827 (Red Hat 9.2.1-1)
REM options -cpp -mtune=generic -march=x86-64 -g -O0 -fpre-include=/usr/include/finclude/math-vector-fortran.h
REM seed 1703865892 2064140589 -1382173787 -1255690380 365732802 137518233 -1943514845 -1868313825 -314514911 344816280 -1542468672 -256917212 1034464183 418918483 -1734811909 382423041 -738861833 1234350818 938164663 -342540944 756160132 -748233403 -1571675330 -747945622 -1371298503 219910134 -425290871 -89639089 22394804 2063367640 1804691748 1350468720 1227033584
REM
CELL 1.54180   50.00000   50.00000   50.00000   90.00000   90.00000   90.00000
LATT -1
SFAC C  
C      1  0.5137950000000  0.4625870000000  0.5555910000000 1.0
C      1  0.5550430000000  0.5374180000000  0.5158500000000 1.0
C      1  0.5412470000000  0.4625820000000  0.4602610000000 1.0
C      1  0.4862050000000  0.5374130000000  0.4444090000000 1.0
C      1  0.4449570000000  0.4625820000000  0.4841500000000 1.0
C      1  0.4587530000000  0.5374180000000  0.5397390000000 1.0
C      1  0.5103970000000  0.5057520000000  0.4491600000000 1.0
C      1  0.4611670000000  0.4942450000000  0.4655670000000 1.0
C      1  0.4507700000000  0.5057540000000  0.5164110000000 1.0
C      1  0.4896030000000  0.4942480000000  0.5508400000000 1.0
C      1  0.5388330000000  0.5057550000000  0.5344330000000 1.0
C      1  0.5492300000000  0.4942460000000  0.4835890000000 1.0
C      1  0.4451820000000  0.4910710000000  0.4892420000000 1.0
C      1  0.4632780000000  0.5089280000000  0.5420900000000 1.0
C      1  0.5180890000000  0.4910730000000  0.5528520000000 1.0
C      1  0.5548180000000  0.5089290000000  0.5107580000000 1.0
C      1  0.5367220000000  0.4910720000000  0.4579100000000 1.0
C      1  0.4819110000000  0.5089270000000  0.4471480000000 1.0
END
