TITL C-2441163-1170-1380 0.134941837078213 125000 -22743.3421512756 0 0 176 (C1) n - 1
REM
REM in /home/bkarasulu/work/CARBON/AIRSS/Generating-Clusters/ReaxFF-fromJPCA2015/Units_Real/with-SteepDescent/Higher-Symm
REM
REM
REM
REM
REM
REM ./C.cell (1df0a924f5614ab8850e4351716899ee)
REM
REM compiler GCC version 9.2.1 20190827 (Red Hat 9.2.1-1)
REM options -cpp -mtune=generic -march=x86-64 -g -O0 -fpre-include=/usr/include/finclude/math-vector-fortran.h
REM seed 1762754461 1097245832 -899874299 1340115961 -1100078436 -1232665212 1660286089 1947616805 389004550 868039806 1337577570 -1499744455 1728340750 -1343066314 -539377964 2021364262 755774650 1073290637 965741006 1006524988 1370767521 -595917317 526984660 -1448208719 768950974 1210423420 -1454314432 -346034156 -1101210927 -1598207342 690003458 2046843581 -67417142
REM
CELL 1.54180   50.00000   50.00000   50.00000   90.00000   90.00000   90.00000
LATT -1
SFAC C  
C      1  0.4162790000000  0.5391610000000  0.4378310000000 1.0
C      1  0.4162780000000  0.4660600000000  0.5645580000000 1.0
C      1  0.4196490000000  0.5337260000000  0.5629500000000 1.0
C      1  0.4226500000000  0.4640430000000  0.4379290000000 1.0
C      1  0.4855590000000  0.4901460000000  0.5570330000000 1.0
C      1  0.4896250000000  0.5145610000000  0.4438060000000 1.0
C      1  0.4877890000000  0.4922620000000  0.4292180000000 1.0
C      1  0.4856610000000  0.5073210000000  0.5782050000000 1.0
C      1  0.5382700000000  0.4192230000000  0.4433060000000 1.0
C      1  0.5385190000000  0.5794550000000  0.5548340000000 1.0
C      1  0.5370980000000  0.4161610000000  0.5562370000000 1.0
C      1  0.5365940000000  0.5848280000000  0.4418370000000 1.0
C      1  0.5549500000000  0.5108360000000  0.5595230000000 1.0
C      1  0.5572390000000  0.4891860000000  0.4387280000000 1.0
C      1  0.5539060000000  0.5156860000000  0.4430380000000 1.0
C      1  0.5534690000000  0.4834210000000  0.5573650000000 1.0
C      1  0.5628440000000  0.4764280000000  0.5130470000000 1.0
C      1  0.5614290000000  0.5237000000000  0.4874390000000 1.0
C      1  0.5629920000000  0.4776540000000  0.4848860000000 1.0
C      1  0.5624830000000  0.5219920000000  0.5155880000000 1.0
C      1  0.4383530000000  0.5568140000000  0.4372330000000 1.0
C      1  0.4326960000000  0.4424770000000  0.5559010000000 1.0
C      1  0.4350440000000  0.5574100000000  0.5546240000000 1.0
C      1  0.4319270000000  0.4386300000000  0.4452740000000 1.0
C      1  0.5625720000000  0.4788440000000  0.5838120000000 1.0
C      1  0.5629220000000  0.5207100000000  0.4153750000000 1.0
C      1  0.5572070000000  0.4801860000000  0.4148780000000 1.0
C      1  0.5587830000000  0.5190610000000  0.5861650000000 1.0
C      1  0.4401630000000  0.5159530000000  0.5741750000000 1.0
C      1  0.4417980000000  0.4845080000000  0.4229820000000 1.0
C      1  0.4424420000000  0.5150990000000  0.4210510000000 1.0
C      1  0.4410370000000  0.4810120000000  0.5763090000000 1.0
C      1  0.5963670000000  0.5575630000000  0.5127990000000 1.0
C      1  0.5953220000000  0.4428890000000  0.4869060000000 1.0
C      1  0.5935090000000  0.5552490000000  0.4825190000000 1.0
C      1  0.5935250000000  0.4442180000000  0.5172720000000 1.0
C      1  0.4044570000000  0.5278570000000  0.4617020000000 1.0
C      1  0.4046250000000  0.4746690000000  0.5390460000000 1.0
C      1  0.4040640000000  0.5253510000000  0.5385100000000 1.0
C      1  0.4057980000000  0.4728650000000  0.4613490000000 1.0
C      1  0.5752350000000  0.4302910000000  0.4686160000000 1.0
C      1  0.5761090000000  0.5700750000000  0.5302640000000 1.0
C      1  0.5720580000000  0.4335320000000  0.5347780000000 1.0
C      1  0.5730070000000  0.5662530000000  0.4651960000000 1.0
C      1  0.4526950000000  0.4502080000000  0.5160420000000 1.0
C      1  0.4510610000000  0.5505840000000  0.4822880000000 1.0
C      1  0.4513320000000  0.4492590000000  0.4863430000000 1.0
C      1  0.4499860000000  0.5504080000000  0.5118660000000 1.0
C      1  0.5610310000000  0.4370120000000  0.4440870000000 1.0
C      1  0.5619800000000  0.5625490000000  0.5548740000000 1.0
C      1  0.5564360000000  0.4363170000000  0.5622200000000 1.0
C      1  0.5553150000000  0.5638390000000  0.4364710000000 1.0
C      1  0.5348180000000  0.4605650000000  0.4143440000000 1.0
C      1  0.5364900000000  0.5384900000000  0.5884040000000 1.0
C      1  0.5472460000000  0.4536910000000  0.5867320000000 1.0
C      1  0.5463780000000  0.5454070000000  0.4146790000000 1.0
C      1  0.5109740000000  0.3993240000000  0.5138900000000 1.0
C      1  0.5103310000000  0.6008140000000  0.4861630000000 1.0
C      1  0.5108450000000  0.3994640000000  0.4862560000000 1.0
C      1  0.5106560000000  0.6005960000000  0.5138390000000 1.0
C      1  0.6050730000000  0.4701210000000  0.4859910000000 1.0
C      1  0.6048430000000  0.5299260000000  0.5134610000000 1.0
C      1  0.6058840000000  0.4707320000000  0.5159460000000 1.0
C      1  0.6049980000000  0.5289070000000  0.4841280000000 1.0
C      1  0.4632400000000  0.5138840000000  0.5960380000000 1.0
C      1  0.4622760000000  0.4834530000000  0.4003440000000 1.0
C      1  0.4644840000000  0.5126540000000  0.4010170000000 1.0
C      1  0.4630850000000  0.4824920000000  0.5985280000000 1.0
C      1  0.4800830000000  0.5472930000000  0.5728080000000 1.0
C      1  0.4780190000000  0.4506080000000  0.4271610000000 1.0
C      1  0.4820820000000  0.5431810000000  0.4281670000000 1.0
C      1  0.4798290000000  0.4510300000000  0.5730680000000 1.0
C      1  0.4519670000000  0.4779290000000  0.4855530000000 1.0
C      1  0.4489230000000  0.5237750000000  0.5127600000000 1.0
C      1  0.4523040000000  0.4780620000000  0.5177860000000 1.0
C      1  0.4527770000000  0.5222890000000  0.4824160000000 1.0
C      1  0.4249290000000  0.5123020000000  0.5230780000000 1.0
C      1  0.4282050000000  0.4880620000000  0.4719790000000 1.0
C      1  0.4285630000000  0.5129250000000  0.4703910000000 1.0
C      1  0.4277310000000  0.4880720000000  0.5274890000000 1.0
C      1  0.4808920000000  0.5895100000000  0.4412560000000 1.0
C      1  0.4819090000000  0.4111320000000  0.5588300000000 1.0
C      1  0.4827440000000  0.5903130000000  0.5596000000000 1.0
C      1  0.4815750000000  0.4080350000000  0.4398890000000 1.0
C      1  0.4552200000000  0.5973450000000  0.5292400000000 1.0
C      1  0.4552860000000  0.4027630000000  0.4713190000000 1.0
C      1  0.4534720000000  0.5965070000000  0.4714400000000 1.0
C      1  0.4544770000000  0.4026310000000  0.5289790000000 1.0
C      1  0.4830310000000  0.4101440000000  0.4846770000000 1.0
C      1  0.4827320000000  0.5900230000000  0.5157890000000 1.0
C      1  0.4831840000000  0.4103740000000  0.5159170000000 1.0
C      1  0.4822250000000  0.5888080000000  0.4834140000000 1.0
C      1  0.5201110000000  0.4587350000000  0.5983100000000 1.0
C      1  0.5155860000000  0.5392130000000  0.4003040000000 1.0
C      1  0.5110150000000  0.4633620000000  0.3979250000000 1.0
C      1  0.5118150000000  0.5363390000000  0.6050150000000 1.0
C      1  0.5304470000000  0.5570760000000  0.4803800000000 1.0
C      1  0.5273850000000  0.4425580000000  0.5085020000000 1.0
C      1  0.5271520000000  0.5565750000000  0.5078150000000 1.0
C      1  0.5266240000000  0.4450890000000  0.4808970000000 1.0
C      1  0.5349260000000  0.5848090000000  0.5247680000000 1.0
C      1  0.5345680000000  0.4131850000000  0.4732530000000 1.0
C      1  0.5347320000000  0.5886950000000  0.4720160000000 1.0
C      1  0.5337070000000  0.4140470000000  0.5251740000000 1.0
C      1  0.5219440000000  0.4840590000000  0.5987090000000 1.0
C      1  0.5218520000000  0.5148740000000  0.4030250000000 1.0
C      1  0.5071870000000  0.4907570000000  0.4085390000000 1.0
C      1  0.5088920000000  0.5085220000000  0.5952970000000 1.0
C      1  0.4561400000000  0.4607720000000  0.5601270000000 1.0
C      1  0.4562920000000  0.5347910000000  0.4383940000000 1.0
C      1  0.4695730000000  0.4742550000000  0.4416870000000 1.0
C      1  0.4597920000000  0.5340670000000  0.5557410000000 1.0
C      1  0.5120780000000  0.4914010000000  0.5517370000000 1.0
C      1  0.5150910000000  0.5130910000000  0.4495410000000 1.0
C      1  0.5221730000000  0.4867460000000  0.4563310000000 1.0
C      1  0.5192120000000  0.5187440000000  0.5418700000000 1.0
C      1  0.4747150000000  0.4930940000000  0.5307880000000 1.0
C      1  0.4808630000000  0.5124370000000  0.4749760000000 1.0
C      1  0.4788120000000  0.4824370000000  0.4725060000000 1.0
C      1  0.4678080000000  0.5195750000000  0.5319220000000 1.0
C      1  0.5238240000000  0.4668530000000  0.5533990000000 1.0
C      1  0.5253220000000  0.5394210000000  0.4547060000000 1.0
C      1  0.5254670000000  0.4604860000000  0.4426950000000 1.0
C      1  0.5260150000000  0.5390350000000  0.5615090000000 1.0
C      1  0.5004690000000  0.4612180000000  0.4845140000000 1.0
C      1  0.5049070000000  0.5387760000000  0.5167320000000 1.0
C      1  0.5105590000000  0.4660120000000  0.5131290000000 1.0
C      1  0.5047460000000  0.5251130000000  0.4903830000000 1.0
C      1  0.5864400000000  0.5175060000000  0.5329820000000 1.0
C      1  0.5860900000000  0.4831160000000  0.4669200000000 1.0
C      1  0.5854170000000  0.5158600000000  0.4669600000000 1.0
C      1  0.5860010000000  0.4847260000000  0.5338100000000 1.0
C      1  0.5607290000000  0.4141190000000  0.4869470000000 1.0
C      1  0.5612480000000  0.5862030000000  0.5121720000000 1.0
C      1  0.5612160000000  0.4155340000000  0.5154320000000 1.0
C      1  0.5626080000000  0.5846190000000  0.4836620000000 1.0
C      1  0.4547520000000  0.4164370000000  0.4458460000000 1.0
C      1  0.4559020000000  0.5836080000000  0.5545190000000 1.0
C      1  0.4551070000000  0.4158840000000  0.5539080000000 1.0
C      1  0.4534800000000  0.5842080000000  0.4455450000000 1.0
C      1  0.5793570000000  0.4716300000000  0.5606160000000 1.0
C      1  0.5797210000000  0.5285980000000  0.4391130000000 1.0
C      1  0.5736400000000  0.4672620000000  0.4380940000000 1.0
C      1  0.5731890000000  0.5334590000000  0.5610650000000 1.0
C      1  0.4232710000000  0.5623130000000  0.5261330000000 1.0
C      1  0.4228060000000  0.4363190000000  0.4738790000000 1.0
C      1  0.4205320000000  0.5627060000000  0.4783020000000 1.0
C      1  0.4223410000000  0.4379120000000  0.5261090000000 1.0
C      1  0.4015060000000  0.4572470000000  0.4857690000000 1.0
C      1  0.3999850000000  0.5436060000000  0.5164660000000 1.0
C      1  0.4016540000000  0.4575090000000  0.5147710000000 1.0
C      1  0.3998300000000  0.5447950000000  0.4873350000000 1.0
C      1  0.4310970000000  0.4096600000000  0.4859200000000 1.0
C      1  0.4308250000000  0.5896460000000  0.5155910000000 1.0
C      1  0.4305930000000  0.4112790000000  0.5146120000000 1.0
C      1  0.4290950000000  0.5892910000000  0.4864960000000 1.0
C      1  0.5090730000000  0.4163620000000  0.4345330000000 1.0
C      1  0.5106950000000  0.5834700000000  0.5655070000000 1.0
C      1  0.5091470000000  0.4167870000000  0.5663190000000 1.0
C      1  0.5080750000000  0.5840370000000  0.4328730000000 1.0
C      1  0.5351340000000  0.4835010000000  0.5173410000000 1.0
C      1  0.5335360000000  0.5158950000000  0.4856280000000 1.0
C      1  0.5373610000000  0.4901830000000  0.4779350000000 1.0
C      1  0.5379190000000  0.5093170000000  0.5242660000000 1.0
C      1  0.5054400000000  0.5563990000000  0.4412780000000 1.0
C      1  0.5057900000000  0.4451970000000  0.5591640000000 1.0
C      1  0.5040650000000  0.5558530000000  0.5582880000000 1.0
C      1  0.5015260000000  0.4434440000000  0.4428060000000 1.0
C      1  0.4837290000000  0.5404100000000  0.5996450000000 1.0
C      1  0.4812260000000  0.4601380000000  0.4001360000000 1.0
C      1  0.4861090000000  0.5342720000000  0.3998080000000 1.0
C      1  0.4855550000000  0.4639640000000  0.5975340000000 1.0
C      1  0.4806540000000  0.4403240000000  0.5174940000000 1.0
C      1  0.4800660000000  0.5587910000000  0.4847880000000 1.0
C      1  0.4797360000000  0.4403390000000  0.4874310000000 1.0
C      1  0.4790200000000  0.5588710000000  0.5145840000000 1.0
END
