TITL C-2441164-471-1492 0.016929245429815 125000 -21541.2462988148 0 0 141 (C1) n - 1
REM
REM in /home/bkarasulu/work/CARBON/AIRSS/Generating-Clusters/ReaxFF-fromJPCA2015/Units_Real/with-SteepDescent/Higher-Symm
REM
REM
REM
REM
REM
REM ./C.cell (1df0a924f5614ab8850e4351716899ee)
REM
REM compiler GCC version 9.2.1 20190827 (Red Hat 9.2.1-1)
REM options -cpp -mtune=generic -march=x86-64 -g -O0 -fpre-include=/usr/include/finclude/math-vector-fortran.h
REM seed 1238611641 -395254054 477066119 -661336457 1538575560 -352892760 -1357254775 1099263620 -1107057058 -1344383322 -965813147 1611205968 -568625778 495713685 1738814249 -665897901 615145599 2051144970 500366949 -1223660476 364946762 108283328 -309808909 989370041 -1727558868 -242953552 1322340322 16433214 933913016 972785714 -685783249 -477953876 363063540
REM
CELL 1.54180   50.00000   50.00000   50.00000   90.00000   90.00000   90.00000
LATT -1
SFAC C  
C      1  0.4845090000000  0.4143550000000  0.5546490000000 1.0
C      1  0.4140930000000  0.5604290000000  0.4856570000000 1.0
C      1  0.5558050000000  0.4852620000000  0.4145570000000 1.0
C      1  0.5160540000000  0.4145090000000  0.4445320000000 1.0
C      1  0.5150070000000  0.5832300000000  0.5534420000000 1.0
C      1  0.4856570000000  0.5854180000000  0.4436390000000 1.0
C      1  0.5863010000000  0.5553300000000  0.5153140000000 1.0
C      1  0.5857180000000  0.4442570000000  0.4849540000000 1.0
C      1  0.4126570000000  0.4424260000000  0.5161620000000 1.0
C      1  0.4451640000000  0.4838840000000  0.5827500000000 1.0
C      1  0.4438140000000  0.5138760000000  0.4167030000000 1.0
C      1  0.5549770000000  0.5146680000000  0.5840250000000 1.0
C      1  0.4850590000000  0.5837070000000  0.5546260000000 1.0
C      1  0.4127860000000  0.4439190000000  0.4860130000000 1.0
C      1  0.5559940000000  0.5149800000000  0.4149200000000 1.0
C      1  0.5154490000000  0.5844130000000  0.4448610000000 1.0
C      1  0.5143230000000  0.4131290000000  0.5559670000000 1.0
C      1  0.4864190000000  0.4157530000000  0.4459030000000 1.0
C      1  0.5852720000000  0.4429990000000  0.5146540000000 1.0
C      1  0.5865500000000  0.5560600000000  0.4855610000000 1.0
C      1  0.4156770000000  0.5547030000000  0.5148500000000 1.0
C      1  0.4440070000000  0.5138370000000  0.5858770000000 1.0
C      1  0.4453090000000  0.4842010000000  0.4205270000000 1.0
C      1  0.5542430000000  0.4852560000000  0.5827920000000 1.0
C      1  0.5128520000000  0.5579050000000  0.5113620000000 1.0
C      1  0.5539190000000  0.5213460000000  0.5249090000000 1.0
C      1  0.5164880000000  0.5196140000000  0.5559540000000 1.0
C      1  0.4864360000000  0.5519850000000  0.4760610000000 1.0
C      1  0.4805140000000  0.4472290000000  0.5126340000000 1.0
C      1  0.5182410000000  0.4465670000000  0.4819220000000 1.0
C      1  0.4470250000000  0.5239430000000  0.4889720000000 1.0
C      1  0.4523250000000  0.4891460000000  0.5200600000000 1.0
C      1  0.5586870000000  0.4822810000000  0.4796840000000 1.0
C      1  0.4782480000000  0.5193310000000  0.4383760000000 1.0
C      1  0.4880960000000  0.4782780000000  0.5516290000000 1.0
C      1  0.5184510000000  0.4848720000000  0.4399780000000 1.0
C      1  0.5207860000000  0.4454280000000  0.5287050000000 1.0
C      1  0.5529640000000  0.4759870000000  0.5091420000000 1.0
C      1  0.5116270000000  0.4916850000000  0.5619030000000 1.0
C      1  0.4931430000000  0.4361740000000  0.4896330000000 1.0
C      1  0.4852300000000  0.5497820000000  0.5194230000000 1.0
C      1  0.5087770000000  0.5649670000000  0.4860570000000 1.0
C      1  0.4636830000000  0.4782000000000  0.4766540000000 1.0
C      1  0.4373810000000  0.5108660000000  0.5115780000000 1.0
C      1  0.5547760000000  0.5279250000000  0.4789250000000 1.0
C      1  0.4804250000000  0.4710400000000  0.4532140000000 1.0
C      1  0.4701150000000  0.5206540000000  0.5545120000000 1.0
C      1  0.5220500000000  0.5140150000000  0.4469500000000 1.0
C      1  0.5285630000000  0.5239800000000  0.4172030000000 1.0
C      1  0.5206640000000  0.4152800000000  0.5274550000000 1.0
C      1  0.4157800000000  0.5258960000000  0.5225500000000 1.0
C      1  0.4716260000000  0.5235530000000  0.5841920000000 1.0
C      1  0.4732980000000  0.4747950000000  0.4241500000000 1.0
C      1  0.5258690000000  0.4773240000000  0.5821560000000 1.0
C      1  0.4788130000000  0.4171500000000  0.4744020000000 1.0
C      1  0.4753770000000  0.5804330000000  0.5277000000000 1.0
C      1  0.5237370000000  0.5849950000000  0.4730000000000 1.0
C      1  0.5836680000000  0.5280320000000  0.4768680000000 1.0
C      1  0.5819030000000  0.4705770000000  0.5221980000000 1.0
C      1  0.4083450000000  0.4724170000000  0.4876190000000 1.0
C      1  0.5277010000000  0.4762530000000  0.4137120000000 1.0
C      1  0.5238610000000  0.5820050000000  0.5258750000000 1.0
C      1  0.4082250000000  0.4717200000000  0.5175500000000 1.0
C      1  0.4719270000000  0.4732720000000  0.5819420000000 1.0
C      1  0.4716060000000  0.5230110000000  0.4114660000000 1.0
C      1  0.5274810000000  0.5250880000000  0.5834200000000 1.0
C      1  0.4749690000000  0.5840190000000  0.4703320000000 1.0
C      1  0.4777260000000  0.4158960000000  0.5267880000000 1.0
C      1  0.5263250000000  0.4161660000000  0.4714780000000 1.0
C      1  0.5858890000000  0.4723480000000  0.4752730000000 1.0
C      1  0.5833690000000  0.5274610000000  0.5238550000000 1.0
C      1  0.4149240000000  0.5328630000000  0.4787900000000 1.0
C      1  0.5325050000000  0.5661230000000  0.5693200000000 1.0
C      1  0.5676150000000  0.5696880000000  0.5324680000000 1.0
C      1  0.5707080000000  0.5314180000000  0.5661000000000 1.0
C      1  0.4688020000000  0.5656980000000  0.4292770000000 1.0
C      1  0.4669610000000  0.4330640000000  0.5699890000000 1.0
C      1  0.5330300000000  0.4336310000000  0.4296360000000 1.0
C      1  0.4343870000000  0.5724370000000  0.4672360000000 1.0
C      1  0.4335060000000  0.4294550000000  0.5321450000000 1.0
C      1  0.5666700000000  0.4299260000000  0.4680030000000 1.0
C      1  0.4305930000000  0.5324810000000  0.4356260000000 1.0
C      1  0.4296040000000  0.4686860000000  0.5627410000000 1.0
C      1  0.5702020000000  0.4684510000000  0.4333660000000 1.0
C      1  0.5319430000000  0.4322110000000  0.5698830000000 1.0
C      1  0.5658720000000  0.4282810000000  0.5319340000000 1.0
C      1  0.5691840000000  0.4673480000000  0.5650520000000 1.0
C      1  0.4686640000000  0.4329100000000  0.4304990000000 1.0
C      1  0.4677790000000  0.5658560000000  0.5707170000000 1.0
C      1  0.5325440000000  0.5656090000000  0.4305870000000 1.0
C      1  0.4336880000000  0.4304780000000  0.4691160000000 1.0
C      1  0.4341140000000  0.5692420000000  0.5326620000000 1.0
C      1  0.5676110000000  0.5702690000000  0.4678370000000 1.0
C      1  0.4303830000000  0.4684220000000  0.4392370000000 1.0
C      1  0.4298160000000  0.5307370000000  0.5664690000000 1.0
C      1  0.5713610000000  0.5321030000000  0.4336390000000 1.0
C      1  0.4198610000000  0.4881090000000  0.4619230000000 1.0
C      1  0.4857450000000  0.4502280000000  0.4140110000000 1.0
C      1  0.4516690000000  0.4145510000000  0.4851530000000 1.0
C      1  0.5861610000000  0.4839540000000  0.5473610000000 1.0
C      1  0.5882740000000  0.5153420000000  0.4505320000000 1.0
C      1  0.4129600000000  0.5138850000000  0.5487850000000 1.0
C      1  0.5153270000000  0.4502460000000  0.5853720000000 1.0
C      1  0.5151740000000  0.5489680000000  0.4129250000000 1.0
C      1  0.4850400000000  0.5493320000000  0.5876280000000 1.0
C      1  0.5477230000000  0.4125100000000  0.5155630000000 1.0
C      1  0.5504720000000  0.5860940000000  0.4850700000000 1.0
C      1  0.4505560000000  0.5870000000000  0.5155020000000 1.0
C      1  0.4122700000000  0.5187230000000  0.4542810000000 1.0
C      1  0.4850220000000  0.5497070000000  0.4107190000000 1.0
C      1  0.4509530000000  0.5889570000000  0.4848380000000 1.0
C      1  0.5880320000000  0.5141900000000  0.5493090000000 1.0
C      1  0.5888030000000  0.4854750000000  0.4492720000000 1.0
C      1  0.4140010000000  0.4847840000000  0.5440450000000 1.0
C      1  0.5151440000000  0.5507650000000  0.5876560000000 1.0
C      1  0.5155570000000  0.4497150000000  0.4125360000000 1.0
C      1  0.4852700000000  0.4487030000000  0.5873630000000 1.0
C      1  0.5502310000000  0.5857900000000  0.5148370000000 1.0
C      1  0.5505860000000  0.4116390000000  0.4856780000000 1.0
C      1  0.4518240000000  0.4131940000000  0.5150480000000 1.0
C      1  0.4714420000000  0.5393380000000  0.4959800000000 1.0
C      1  0.5467000000000  0.5045090000000  0.4651850000000 1.0
C      1  0.4967890000000  0.4593350000000  0.5318400000000 1.0
C      1  0.5304010000000  0.5286410000000  0.5019700000000 1.0
C      1  0.5317070000000  0.4566690000000  0.5053700000000 1.0
C      1  0.4625390000000  0.4694500000000  0.5033780000000 1.0
C      1  0.4676970000000  0.4951020000000  0.5411260000000 1.0
C      1  0.4460710000000  0.5001520000000  0.4699060000000 1.0
C      1  0.5422060000000  0.4964810000000  0.5334610000000 1.0
C      1  0.5077080000000  0.4676500000000  0.4600980000000 1.0
C      1  0.4934960000000  0.5331950000000  0.5436960000000 1.0
C      1  0.4964150000000  0.5277320000000  0.4574430000000 1.0
C      1  0.4425130000000  0.5561780000000  0.5581670000000 1.0
C      1  0.5578460000000  0.4430150000000  0.4425760000000 1.0
C      1  0.5572930000000  0.4412610000000  0.5570180000000 1.0
C      1  0.5586660000000  0.5573800000000  0.4426730000000 1.0
C      1  0.4422230000000  0.4426040000000  0.5566420000000 1.0
C      1  0.4436190000000  0.5578950000000  0.4427710000000 1.0
C      1  0.4426190000000  0.4427030000000  0.4440070000000 1.0
C      1  0.5581780000000  0.5568140000000  0.5574440000000 1.0
C      1  0.5119830000000  0.5084540000000  0.4992000000000 1.0
END
