TITL C-2441161-5029-101 0.000209086968159738 125000 -2917.76113099843 0 0 22 (C1) n - 1
REM
REM in /home/bkarasulu/work/CARBON/AIRSS/Generating-Clusters/ReaxFF-fromJPCA2015/Units_Real/with-SteepDescent/Higher-Symm
REM
REM
REM
REM
REM
REM ./C.cell (1df0a924f5614ab8850e4351716899ee)
REM
REM compiler GCC version 9.2.1 20190827 (Red Hat 9.2.1-1)
REM options -cpp -mtune=generic -march=x86-64 -g -O0 -fpre-include=/usr/include/finclude/math-vector-fortran.h
REM seed 105566360 175407900 19030184 -1282087269 -1848414300 -1244103506 1089206335 -1583280090 1851247342 -412893633 -1375921002 -1152346053 -1021670692 207392564 187113997 -195084640 409071630 -815236310 -1360354975 2061125211 1310441102 1843382485 23657213 -178937501 -1573717031 1724694564 1443134961 1783545942 431056490 -794383961 -807516214 178134513 235039720
REM
CELL 1.54180   50.00000   50.00000   50.00000   90.00000   90.00000   90.00000
LATT -1
SFAC C  
C      1  0.5203000000000  0.4439430000000  0.4830960000000 1.0
C      1  0.4544430000000  0.4879730000000  0.5161480000000 1.0
C      1  0.4868600000000  0.5283880000000  0.4358710000000 1.0
C      1  0.4830480000000  0.5448300000000  0.4869860000000 1.0
C      1  0.5189220000000  0.5436270000000  0.5179480000000 1.0
C      1  0.4825120000000  0.4439680000000  0.5213480000000 1.0
C      1  0.5709460000000  0.5144760000000  0.5271810000000 1.0
C      1  0.4314920000000  0.5142780000000  0.4772650000000 1.0
C      1  0.5482880000000  0.4880600000000  0.4883640000000 1.0
C      1  0.5119060000000  0.4890110000000  0.4583080000000 1.0
C      1  0.4910130000000  0.4890610000000  0.5461350000000 1.0
C      1  0.5162080000000  0.5284730000000  0.5683520000000 1.0
C      1  0.5128480000000  0.5095110000000  0.5514090000000 1.0
C      1  0.5522420000000  0.5071870000000  0.5114470000000 1.0
C      1  0.4898880000000  0.5092660000000  0.4527760000000 1.0
C      1  0.5028320000000  0.5627560000000  0.5027180000000 1.0
C      1  0.5014060000000  0.4422690000000  0.5022180000000 1.0
C      1  0.4503430000000  0.5067280000000  0.4927370000000 1.0
C      1  0.4718930000000  0.4730480000000  0.5332040000000 1.0
C      1  0.5309600000000  0.4730170000000  0.4712340000000 1.0
C      1  0.5329750000000  0.5269220000000  0.5312500000000 1.0
C      1  0.4693980000000  0.5262450000000  0.4726700000000 1.0
END
