TITL C-2441167-4473-882 0.139669424147807 125000 -18880.2543622446 0 0 153 (C1) n - 1
REM
REM in /home/bkarasulu/work/CARBON/AIRSS/Generating-Clusters/ReaxFF-fromJPCA2015/Units_Real/with-SteepDescent/Higher-Symm
REM
REM
REM
REM
REM
REM ./C.cell (1df0a924f5614ab8850e4351716899ee)
REM
REM compiler GCC version 9.2.1 20190827 (Red Hat 9.2.1-1)
REM options -cpp -mtune=generic -march=x86-64 -g -O0 -fpre-include=/usr/include/finclude/math-vector-fortran.h
REM seed -447528714 18889492 -1482281863 -1242204680 -567749053 1133396202 -1853611312 -872359575 -11652097 236249273 1252200179 1504453225 1940511819 -1635886533 -867786417 -188696423 -1523410645 -293952985 156385717 1987691033 -1134171888 1916162292 1635095665 -1834299670 1818747801 -702674118 -439820234 2000427988 -36678491 -304554863 -562245419 274849891 -2096946468
REM
CELL 1.54180   50.00000   50.00000   50.00000   90.00000   90.00000   90.00000
LATT -1
SFAC C  
C      1  0.4413950000000  0.4550820000000  0.5020760000000 1.0
C      1  0.5541050000000  0.4579460000000  0.5012340000000 1.0
C      1  0.4243970000000  0.4526670000000  0.4796340000000 1.0
C      1  0.5740000000000  0.4544410000000  0.4806160000000 1.0
C      1  0.4011720000000  0.4863080000000  0.5453640000000 1.0
C      1  0.5988370000000  0.4855580000000  0.5477180000000 1.0
C      1  0.4780070000000  0.4038010000000  0.4566480000000 1.0
C      1  0.5178140000000  0.4063280000000  0.4603520000000 1.0
C      1  0.4331720000000  0.4975310000000  0.5669700000000 1.0
C      1  0.5760410000000  0.4972290000000  0.5623460000000 1.0
C      1  0.5726920000000  0.4778640000000  0.5443350000000 1.0
C      1  0.4284920000000  0.4818550000000  0.5452940000000 1.0
C      1  0.5292600000000  0.4369300000000  0.4302930000000 1.0
C      1  0.4693150000000  0.4372410000000  0.4304090000000 1.0
C      1  0.4085990000000  0.5141210000000  0.5142640000000 1.0
C      1  0.5916030000000  0.5167360000000  0.5147070000000 1.0
C      1  0.4572140000000  0.5939000000000  0.4825210000000 1.0
C      1  0.5422450000000  0.5893670000000  0.4816900000000 1.0
C      1  0.4734050000000  0.5069500000000  0.4748690000000 1.0
C      1  0.5272300000000  0.5131970000000  0.4746430000000 1.0
C      1  0.4394290000000  0.5259580000000  0.5649470000000 1.0
C      1  0.5541610000000  0.5117140000000  0.5523680000000 1.0
C      1  0.4687570000000  0.4593990000000  0.4973380000000 1.0
C      1  0.5255010000000  0.4628860000000  0.4946500000000 1.0
C      1  0.3920580000000  0.5229760000000  0.4906510000000 1.0
C      1  0.6079230000000  0.5167740000000  0.4884860000000 1.0
C      1  0.4372180000000  0.4681420000000  0.4546900000000 1.0
C      1  0.5602860000000  0.4692470000000  0.4553090000000 1.0
C      1  0.5273230000000  0.5431170000000  0.5193810000000 1.0
C      1  0.4681250000000  0.5414440000000  0.5244460000000 1.0
C      1  0.4403460000000  0.5313290000000  0.4390180000000 1.0
C      1  0.5556240000000  0.5362590000000  0.4353360000000 1.0
C      1  0.4553980000000  0.5310910000000  0.5024010000000 1.0
C      1  0.5479990000000  0.5336610000000  0.5027510000000 1.0
C      1  0.4556470000000  0.5744070000000  0.4607840000000 1.0
C      1  0.5500590000000  0.5808960000000  0.4559270000000 1.0
C      1  0.5401310000000  0.5147200000000  0.4493510000000 1.0
C      1  0.4585050000000  0.5111880000000  0.4504510000000 1.0
C      1  0.5846610000000  0.5144140000000  0.4685220000000 1.0
C      1  0.4150640000000  0.5138460000000  0.4719160000000 1.0
C      1  0.4714030000000  0.5717660000000  0.5652240000000 1.0
C      1  0.5218600000000  0.5659300000000  0.5709670000000 1.0
C      1  0.5151320000000  0.5262590000000  0.5394710000000 1.0
C      1  0.4850140000000  0.5237300000000  0.5404930000000 1.0
C      1  0.5258250000000  0.5850740000000  0.5485670000000 1.0
C      1  0.4753460000000  0.5944960000000  0.5467960000000 1.0
C      1  0.4600450000000  0.4157130000000  0.4970970000000 1.0
C      1  0.5453840000000  0.4158260000000  0.4986990000000 1.0
C      1  0.5320020000000  0.4677490000000  0.4667390000000 1.0
C      1  0.4660580000000  0.4651340000000  0.4703970000000 1.0
C      1  0.5431220000000  0.5057850000000  0.5016950000000 1.0
C      1  0.4608120000000  0.5023430000000  0.5020310000000 1.0
C      1  0.4519720000000  0.4180280000000  0.5246910000000 1.0
C      1  0.5483190000000  0.4182660000000  0.5263180000000 1.0
C      1  0.5557740000000  0.4266330000000  0.4763840000000 1.0
C      1  0.4443500000000  0.4259830000000  0.4764620000000 1.0
C      1  0.4267260000000  0.4970490000000  0.4953520000000 1.0
C      1  0.5713690000000  0.4984740000000  0.4940710000000 1.0
C      1  0.4618770000000  0.5355840000000  0.5814750000000 1.0
C      1  0.5390760000000  0.5435670000000  0.5798500000000 1.0
C      1  0.4412950000000  0.5840380000000  0.5049770000000 1.0
C      1  0.5579760000000  0.5834460000000  0.5050470000000 1.0
C      1  0.5287930000000  0.4871330000000  0.5790150000000 1.0
C      1  0.4566700000000  0.4859100000000  0.5788430000000 1.0
C      1  0.4579430000000  0.4206630000000  0.4516110000000 1.0
C      1  0.5379570000000  0.4225300000000  0.4540840000000 1.0
C      1  0.4680060000000  0.5091770000000  0.5899590000000 1.0
C      1  0.5307650000000  0.5169570000000  0.5899310000000 1.0
C      1  0.4631650000000  0.4794850000000  0.4128270000000 1.0
C      1  0.5525850000000  0.4759900000000  0.4092970000000 1.0
C      1  0.5595470000000  0.4581800000000  0.5406610000000 1.0
C      1  0.4390100000000  0.4573460000000  0.5411100000000 1.0
C      1  0.4754110000000  0.4946400000000  0.4340580000000 1.0
C      1  0.5263400000000  0.5030640000000  0.4275780000000 1.0
C      1  0.4252740000000  0.5020040000000  0.4234890000000 1.0
C      1  0.5693910000000  0.4956840000000  0.4205660000000 1.0
C      1  0.5663350000000  0.5573870000000  0.5410880000000 1.0
C      1  0.4519940000000  0.5615630000000  0.5436650000000 1.0
C      1  0.4331370000000  0.5415430000000  0.4821120000000 1.0
C      1  0.5682510000000  0.5430710000000  0.4788650000000 1.0
C      1  0.4643690000000  0.4253220000000  0.5510810000000 1.0
C      1  0.5349130000000  0.4288720000000  0.5516120000000 1.0
C      1  0.4661560000000  0.4580930000000  0.5745920000000 1.0
C      1  0.5388190000000  0.4616430000000  0.5736260000000 1.0
C      1  0.4801280000000  0.5605100000000  0.4662580000000 1.0
C      1  0.5247040000000  0.5670510000000  0.4672250000000 1.0
C      1  0.5600270000000  0.5385420000000  0.5619380000000 1.0
C      1  0.4268120000000  0.5460710000000  0.5483540000000 1.0
C      1  0.5499330000000  0.4563440000000  0.4292250000000 1.0
C      1  0.4502320000000  0.4578590000000  0.4289250000000 1.0
C      1  0.3934070000000  0.4815770000000  0.5197490000000 1.0
C      1  0.6044640000000  0.4888430000000  0.5192360000000 1.0
C      1  0.4230610000000  0.5609010000000  0.5023530000000 1.0
C      1  0.5778520000000  0.5623530000000  0.4996380000000 1.0
C      1  0.5330320000000  0.4557040000000  0.5462610000000 1.0
C      1  0.4653150000000  0.4527920000000  0.5477800000000 1.0
C      1  0.5894800000000  0.4756080000000  0.4977140000000 1.0
C      1  0.4081670000000  0.4738850000000  0.4958840000000 1.0
C      1  0.4129140000000  0.5432830000000  0.5231940000000 1.0
C      1  0.5834910000000  0.5458820000000  0.5217590000000 1.0
C      1  0.4477460000000  0.5062560000000  0.4068360000000 1.0
C      1  0.5443820000000  0.5048660000000  0.4049100000000 1.0
C      1  0.4320440000000  0.4392110000000  0.5223350000000 1.0
C      1  0.5671040000000  0.4410710000000  0.5209160000000 1.0
C      1  0.5659430000000  0.5570930000000  0.4525550000000 1.0
C      1  0.4350580000000  0.5545820000000  0.4545890000000 1.0
C      1  0.4518010000000  0.5880040000000  0.5312570000000 1.0
C      1  0.5493630000000  0.5798510000000  0.5330610000000 1.0
C      1  0.4749010000000  0.4987740000000  0.5305770000000 1.0
C      1  0.5321530000000  0.5034500000000  0.5340680000000 1.0
C      1  0.4753440000000  0.5500420000000  0.4273400000000 1.0
C      1  0.5170820000000  0.5526070000000  0.4418810000000 1.0
C      1  0.5402530000000  0.5382700000000  0.4108590000000 1.0
C      1  0.4657110000000  0.5317790000000  0.4064020000000 1.0
C      1  0.5766720000000  0.4939360000000  0.4477450000000 1.0
C      1  0.4202320000000  0.4930760000000  0.4496390000000 1.0
C      1  0.4992250000000  0.4102900000000  0.4397830000000 1.0
C      1  0.5023750000000  0.5991570000000  0.5079660000000 1.0
C      1  0.4986750000000  0.5007940000000  0.4183840000000 1.0
C      1  0.4988730000000  0.5677900000000  0.4209040000000 1.0
C      1  0.5139530000000  0.5452820000000  0.4014710000000 1.0
C      1  0.5001340000000  0.3713330000000  0.5094520000000 1.0
C      1  0.4964070000000  0.5032530000000  0.6085800000000 1.0
C      1  0.5027130000000  0.4517160000000  0.6074460000000 1.0
C      1  0.5027930000000  0.6001770000000  0.5379840000000 1.0
C      1  0.5104240000000  0.4195380000000  0.5478420000000 1.0
C      1  0.5039230000000  0.5444280000000  0.5016740000000 1.0
C      1  0.4912830000000  0.5396050000000  0.4495100000000 1.0
C      1  0.4981400000000  0.5713420000000  0.5074870000000 1.0
C      1  0.4922860000000  0.4583500000000  0.4641860000000 1.0
C      1  0.4963870000000  0.5597340000000  0.5686800000000 1.0
C      1  0.4881450000000  0.4150150000000  0.5618270000000 1.0
C      1  0.4995870000000  0.5153300000000  0.5038950000000 1.0
C      1  0.4990000000000  0.3967540000000  0.5412560000000 1.0
C      1  0.4954790000000  0.4097430000000  0.4794030000000 1.0
C      1  0.4915470000000  0.5462360000000  0.5887240000000 1.0
C      1  0.5089280000000  0.4791050000000  0.4547040000000 1.0
C      1  0.5001970000000  0.5943830000000  0.4354780000000 1.0
C      1  0.4970560000000  0.4567690000000  0.5323630000000 1.0
C      1  0.4972910000000  0.5839990000000  0.4650930000000 1.0
C      1  0.4921850000000  0.3959140000000  0.5097780000000 1.0
C      1  0.5055750000000  0.5217930000000  0.5920910000000 1.0
C      1  0.4933040000000  0.5248220000000  0.3999450000000 1.0
C      1  0.5011860000000  0.4766730000000  0.6117820000000 1.0
C      1  0.5000970000000  0.4851510000000  0.5410480000000 1.0
C      1  0.5004690000000  0.5066050000000  0.4650230000000 1.0
C      1  0.4972910000000  0.4678000000000  0.4031140000000 1.0
C      1  0.5055770000000  0.4892230000000  0.5006480000000 1.0
C      1  0.4964820000000  0.4493940000000  0.5048850000000 1.0
C      1  0.4848420000000  0.6029750000000  0.4844590000000 1.0
C      1  0.5027360000000  0.4782470000000  0.5695970000000 1.0
C      1  0.4997660000000  0.4439380000000  0.4194940000000 1.0
C      1  0.4940610000000  0.4505360000000  0.5796520000000 1.0
END
