TITL C-2441166-8118-344 0.113629262879942 125000 -17719.7846028216 0 0 138 (C1) n - 1
REM
REM in /home/bkarasulu/work/CARBON/AIRSS/Generating-Clusters/ReaxFF-fromJPCA2015/Units_Real/with-SteepDescent/Higher-Symm
REM
REM
REM
REM
REM
REM ./C.cell (1df0a924f5614ab8850e4351716899ee)
REM
REM compiler GCC version 9.2.1 20190827 (Red Hat 9.2.1-1)
REM options -cpp -mtune=generic -march=x86-64 -g -O0 -fpre-include=/usr/include/finclude/math-vector-fortran.h
REM seed 1553709933 31450303 297145052 1690926271 -1272371678 2004908977 -1985257692 -1433151055 124466418 2126756167 992048109 -1684247507 569717113 -638689619 2097723666 1152752014 2119962080 -2065018696 -2019800594 1237320218 -1347004504 -245633088 861504434 -1266889387 -597796777 1799365505 -1247795961 364814454 1016180114 -946639583 -2080824272 2035940529 -66627004
REM
CELL 1.54180   50.00000   50.00000   50.00000   90.00000   90.00000   90.00000
LATT -1
SFAC C  
C      1  0.4651750000000  0.5473740000000  0.4296520000000 1.0
C      1  0.5142180000000  0.5592750000000  0.4292550000000 1.0
C      1  0.5546680000000  0.5267320000000  0.4300210000000 1.0
C      1  0.5508920000000  0.4746850000000  0.4313790000000 1.0
C      1  0.5125930000000  0.4435370000000  0.4300300000000 1.0
C      1  0.4657420000000  0.4516510000000  0.4309890000000 1.0
C      1  0.4427590000000  0.4987270000000  0.4310850000000 1.0
C      1  0.4599390000000  0.4309180000000  0.4508850000000 1.0
C      1  0.4199520000000  0.5047260000000  0.4508130000000 1.0
C      1  0.4582150000000  0.5692450000000  0.4495970000000 1.0
C      1  0.5139680000000  0.5803620000000  0.4495270000000 1.0
C      1  0.5759040000000  0.5285510000000  0.4528980000000 1.0
C      1  0.5710000000000  0.4605190000000  0.4515020000000 1.0
C      1  0.5100060000000  0.4212580000000  0.4497690000000 1.0
C      1  0.4251910000000  0.5640280000000  0.4955650000000 1.0
C      1  0.5027040000000  0.5968530000000  0.4967290000000 1.0
C      1  0.5753140000000  0.5584150000000  0.4934090000000 1.0
C      1  0.5947190000000  0.4774320000000  0.4969360000000 1.0
C      1  0.5413440000000  0.4102710000000  0.4953880000000 1.0
C      1  0.4566870000000  0.4134320000000  0.4962150000000 1.0
C      1  0.4079130000000  0.4801660000000  0.4961910000000 1.0
C      1  0.4566010000000  0.4417470000000  0.5621010000000 1.0
C      1  0.4226540000000  0.5055730000000  0.5615740000000 1.0
C      1  0.4575790000000  0.5633080000000  0.5638830000000 1.0
C      1  0.5261340000000  0.5689420000000  0.5616810000000 1.0
C      1  0.5637880000000  0.5369930000000  0.5698480000000 1.0
C      1  0.5594180000000  0.4653220000000  0.5617910000000 1.0
C      1  0.5202690000000  0.4302990000000  0.5721650000000 1.0
C      1  0.4964790000000  0.5393350000000  0.5482480000000 1.0
C      1  0.5224890000000  0.5291530000000  0.5436730000000 1.0
C      1  0.5443730000000  0.4775010000000  0.5221630000000 1.0
C      1  0.5194640000000  0.4658920000000  0.5318290000000 1.0
C      1  0.4778500000000  0.4766470000000  0.5417120000000 1.0
C      1  0.4658690000000  0.4987460000000  0.5532270000000 1.0
C      1  0.4721820000000  0.5249500000000  0.5414330000000 1.0
C      1  0.4999960000000  0.4531280000000  0.5122660000000 1.0
C      1  0.4747830000000  0.4664680000000  0.5152190000000 1.0
C      1  0.4761850000000  0.4910460000000  0.4997540000000 1.0
C      1  0.4705460000000  0.5218710000000  0.5127170000000 1.0
C      1  0.4996100000000  0.5223370000000  0.5062400000000 1.0
C      1  0.5260750000000  0.5225430000000  0.5173080000000 1.0
C      1  0.5452500000000  0.5019580000000  0.5077140000000 1.0
C      1  0.4163370000000  0.5390240000000  0.4839780000000 1.0
C      1  0.4777920000000  0.5922650000000  0.4831440000000 1.0
C      1  0.5540890000000  0.5747710000000  0.4815120000000 1.0
C      1  0.5949630000000  0.5033880000000  0.4833030000000 1.0
C      1  0.5607220000000  0.4282310000000  0.4834500000000 1.0
C      1  0.4829010000000  0.4104450000000  0.4851410000000 1.0
C      1  0.4179130000000  0.4569900000000  0.4798250000000 1.0
C      1  0.5458880000000  0.5816940000000  0.4554580000000 1.0
C      1  0.5939700000000  0.5055990000000  0.4524560000000 1.0
C      1  0.5671340000000  0.4314880000000  0.4534570000000 1.0
C      1  0.4831570000000  0.4140710000000  0.4562900000000 1.0
C      1  0.4259090000000  0.4543160000000  0.4529050000000 1.0
C      1  0.4116680000000  0.5329240000000  0.4545420000000 1.0
C      1  0.4806930000000  0.5861940000000  0.4552370000000 1.0
C      1  0.5650360000000  0.5358920000000  0.4800810000000 1.0
C      1  0.5720550000000  0.4687240000000  0.4800420000000 1.0
C      1  0.5210770000000  0.4214190000000  0.4770300000000 1.0
C      1  0.4517380000000  0.4351010000000  0.4781060000000 1.0
C      1  0.4231770000000  0.4981840000000  0.4796240000000 1.0
C      1  0.4480120000000  0.5644600000000  0.4771850000000 1.0
C      1  0.5144380000000  0.5773440000000  0.4792080000000 1.0
C      1  0.4744230000000  0.5635010000000  0.4890760000000 1.0
C      1  0.5303950000000  0.5543190000000  0.4865980000000 1.0
C      1  0.5690050000000  0.5133660000000  0.4946330000000 1.0
C      1  0.5476850000000  0.4546470000000  0.4857400000000 1.0
C      1  0.5009590000000  0.4301300000000  0.4955560000000 1.0
C      1  0.4481140000000  0.4624100000000  0.4868270000000 1.0
C      1  0.4396790000000  0.5199400000000  0.4902550000000 1.0
C      1  0.4971030000000  0.5322320000000  0.5933070000000 1.0
C      1  0.5236630000000  0.5211890000000  0.5930450000000 1.0
C      1  0.5371500000000  0.4947140000000  0.5970290000000 1.0
C      1  0.5226240000000  0.4701160000000  0.5939910000000 1.0
C      1  0.4762700000000  0.4734150000000  0.5949100000000 1.0
C      1  0.4591230000000  0.4957110000000  0.5951740000000 1.0
C      1  0.4691840000000  0.5229120000000  0.5927680000000 1.0
C      1  0.4815910000000  0.4079300000000  0.5368310000000 1.0
C      1  0.4245920000000  0.4567860000000  0.5396940000000 1.0
C      1  0.4193600000000  0.5367500000000  0.5365140000000 1.0
C      1  0.4789680000000  0.5870490000000  0.5393130000000 1.0
C      1  0.5574860000000  0.5722980000000  0.5352130000000 1.0
C      1  0.5939790000000  0.5051670000000  0.5366100000000 1.0
C      1  0.5564110000000  0.4308900000000  0.5375280000000 1.0
C      1  0.5854170000000  0.5220600000000  0.5584890000000 1.0
C      1  0.5482730000000  0.4378020000000  0.5633420000000 1.0
C      1  0.4958290000000  0.4196330000000  0.5601090000000 1.0
C      1  0.4340940000000  0.4590170000000  0.5670230000000 1.0
C      1  0.4254260000000  0.5323450000000  0.5647940000000 1.0
C      1  0.4804460000000  0.5780860000000  0.5671230000000 1.0
C      1  0.5543760000000  0.5631030000000  0.5630010000000 1.0
C      1  0.4417020000000  0.4885840000000  0.5725770000000 1.0
C      1  0.4505390000000  0.5395150000000  0.5772260000000 1.0
C      1  0.5006750000000  0.5578040000000  0.5717970000000 1.0
C      1  0.5406900000000  0.5211090000000  0.5664700000000 1.0
C      1  0.5519000000000  0.4905390000000  0.5730890000000 1.0
C      1  0.5121820000000  0.4577850000000  0.5691480000000 1.0
C      1  0.4809980000000  0.4584840000000  0.5696940000000 1.0
C      1  0.4943660000000  0.4657020000000  0.4685230000000 1.0
C      1  0.4682630000000  0.4809070000000  0.4715000000000 1.0
C      1  0.4647780000000  0.5164720000000  0.4714780000000 1.0
C      1  0.4847650000000  0.5404680000000  0.4738140000000 1.0
C      1  0.5126970000000  0.5370860000000  0.4689120000000 1.0
C      1  0.5234330000000  0.4961170000000  0.4734100000000 1.0
C      1  0.5228200000000  0.4659860000000  0.4715760000000 1.0
C      1  0.5462230000000  0.5009540000000  0.4282360000000 1.0
C      1  0.5286550000000  0.4637300000000  0.4276470000000 1.0
C      1  0.4895510000000  0.4555510000000  0.4249020000000 1.0
C      1  0.4519340000000  0.4728930000000  0.4289910000000 1.0
C      1  0.4646100000000  0.5178150000000  0.4282300000000 1.0
C      1  0.4918470000000  0.5492400000000  0.4256150000000 1.0
C      1  0.5316110000000  0.5402990000000  0.4262780000000 1.0
C      1  0.5367630000000  0.4148750000000  0.5240480000000 1.0
C      1  0.4570230000000  0.4155760000000  0.5238440000000 1.0
C      1  0.4141510000000  0.4803440000000  0.5243330000000 1.0
C      1  0.4316280000000  0.5597820000000  0.5235700000000 1.0
C      1  0.5041250000000  0.5904330000000  0.5247260000000 1.0
C      1  0.5756430000000  0.5543770000000  0.5215160000000 1.0
C      1  0.5913340000000  0.4788030000000  0.5253810000000 1.0
C      1  0.4478160000000  0.4387030000000  0.5342530000000 1.0
C      1  0.4212970000000  0.5069650000000  0.5331430000000 1.0
C      1  0.4554690000000  0.5688910000000  0.5360610000000 1.0
C      1  0.5275650000000  0.5754300000000  0.5338920000000 1.0
C      1  0.5766720000000  0.5263620000000  0.5313860000000 1.0
C      1  0.5672330000000  0.4628960000000  0.5328080000000 1.0
C      1  0.5080810000000  0.4180700000000  0.5344170000000 1.0
C      1  0.5018240000000  0.4992670000000  0.3561580000000 1.0
C      1  0.4980050000000  0.5007070000000  0.5659330000000 1.0
C      1  0.5023010000000  0.4998370000000  0.4931090000000 1.0
C      1  0.4990030000000  0.5016370000000  0.4053800000000 1.0
C      1  0.5017650000000  0.4994390000000  0.3822820000000 1.0
C      1  0.5007940000000  0.4998980000000  0.3319880000000 1.0
C      1  0.4922920000000  0.5060310000000  0.4315910000000 1.0
C      1  0.4998310000000  0.4787660000000  0.6087990000000 1.0
C      1  0.5123980000000  0.5131350000000  0.4526570000000 1.0
C      1  0.5051580000000  0.4899520000000  0.5403450000000 1.0
C      1  0.4999890000000  0.5084030000000  0.6507430000000 1.0
C      1  0.5002030000000  0.4946410000000  0.6311680000000 1.0
END
