TITL C-2441164-471-479 0.0291191006731299 125000 -22146.5085517042 0 0 154 (C1) n - 1
REM
REM in /home/bkarasulu/work/CARBON/AIRSS/Generating-Clusters/ReaxFF-fromJPCA2015/Units_Real/with-SteepDescent/Higher-Symm
REM
REM
REM
REM
REM
REM ./C.cell (1df0a924f5614ab8850e4351716899ee)
REM
REM compiler GCC version 9.2.1 20190827 (Red Hat 9.2.1-1)
REM options -cpp -mtune=generic -march=x86-64 -g -O0 -fpre-include=/usr/include/finclude/math-vector-fortran.h
REM seed 154137555 1551206019 -537536216 178511775 1960119978 788594980 1467046651 778711030 -1220318218 754727799 -6976516 1740172058 771959438 -716360083 -936595658 66835439 -1531686054 1857872336 -1260256714 -1928706986 754452008 -591182285 1483236951 -913742622 768609052 1980351422 774047274 -177659798 1303727200 -2072780197 -1017259128 -2077487174 -873452656
REM
CELL 1.54180   50.00000   50.00000   50.00000   90.00000   90.00000   90.00000
LATT -1
SFAC C  
C      1  0.5305220000000  0.4046320000000  0.5191900000000 1.0
C      1  0.4653330000000  0.4023030000000  0.5151960000000 1.0
C      1  0.5017610000000  0.4035660000000  0.4573920000000 1.0
C      1  0.5058620000000  0.6053640000000  0.5392740000000 1.0
C      1  0.4681870000000  0.5982580000000  0.5167470000000 1.0
C      1  0.5320670000000  0.6020650000000  0.4768050000000 1.0
C      1  0.5525760000000  0.4852310000000  0.5251320000000 1.0
C      1  0.4518540000000  0.4889130000000  0.5313960000000 1.0
C      1  0.4900000000000  0.4728960000000  0.4452620000000 1.0
C      1  0.5495770000000  0.5153590000000  0.5229160000000 1.0
C      1  0.4534620000000  0.5202700000000  0.5370750000000 1.0
C      1  0.4991180000000  0.5224250000000  0.4408450000000 1.0
C      1  0.4418120000000  0.5059930000000  0.4196600000000 1.0
C      1  0.6007130000000  0.5164170000000  0.4929260000000 1.0
C      1  0.4528880000000  0.5190560000000  0.5889880000000 1.0
C      1  0.4334240000000  0.4798450000000  0.4246330000000 1.0
C      1  0.6032690000000  0.4883930000000  0.4931880000000 1.0
C      1  0.4569730000000  0.4913570000000  0.5934690000000 1.0
C      1  0.4393640000000  0.4503460000000  0.5643950000000 1.0
C      1  0.4739740000000  0.4484480000000  0.4068230000000 1.0
C      1  0.5887360000000  0.4498660000000  0.5222290000000 1.0
C      1  0.4341330000000  0.5550150000000  0.5634520000000 1.0
C      1  0.4718200000000  0.5446590000000  0.4129700000000 1.0
C      1  0.5855240000000  0.5539390000000  0.5249650000000 1.0
C      1  0.4845600000000  0.6156170000000  0.5000750000000 1.0
C      1  0.5108840000000  0.6168130000000  0.4887300000000 1.0
C      1  0.5069900000000  0.6213890000000  0.5154460000000 1.0
C      1  0.4853560000000  0.3846140000000  0.5044990000000 1.0
C      1  0.4997850000000  0.3865030000000  0.4802880000000 1.0
C      1  0.5136900000000  0.3860730000000  0.5055500000000 1.0
C      1  0.4096120000000  0.4419810000000  0.5149200000000 1.0
C      1  0.5253200000000  0.4398480000000  0.4174410000000 1.0
C      1  0.5588620000000  0.4400970000000  0.5701910000000 1.0
C      1  0.4105370000000  0.5584490000000  0.5118190000000 1.0
C      1  0.5271750000000  0.5555340000000  0.4184730000000 1.0
C      1  0.5547130000000  0.5570080000000  0.5733890000000 1.0
C      1  0.5250480000000  0.4505420000000  0.4924990000000 1.0
C      1  0.5041210000000  0.4548210000000  0.5146960000000 1.0
C      1  0.4827180000000  0.4509360000000  0.4881320000000 1.0
C      1  0.5071270000000  0.5515810000000  0.5052510000000 1.0
C      1  0.4918900000000  0.5441520000000  0.5256330000000 1.0
C      1  0.4858660000000  0.5481950000000  0.4860870000000 1.0
C      1  0.4575930000000  0.5411030000000  0.4381970000000 1.0
C      1  0.5712590000000  0.5497870000000  0.4974760000000 1.0
C      1  0.4630510000000  0.5491330000000  0.5678420000000 1.0
C      1  0.4503240000000  0.4528780000000  0.4255400000000 1.0
C      1  0.5745790000000  0.4548950000000  0.4959100000000 1.0
C      1  0.4682330000000  0.4556830000000  0.5618010000000 1.0
C      1  0.4001940000000  0.4896610000000  0.5107770000000 1.0
C      1  0.5338750000000  0.4908800000000  0.4019410000000 1.0
C      1  0.5735090000000  0.4880920000000  0.5710430000000 1.0
C      1  0.4042050000000  0.5154660000000  0.5186970000000 1.0
C      1  0.5368000000000  0.5155520000000  0.4086700000000 1.0
C      1  0.5653300000000  0.5151700000000  0.5712270000000 1.0
C      1  0.4288740000000  0.5618140000000  0.4656070000000 1.0
C      1  0.5662660000000  0.5602840000000  0.4494830000000 1.0
C      1  0.5070130000000  0.5596750000000  0.5793190000000 1.0
C      1  0.4298350000000  0.4408450000000  0.4667200000000 1.0
C      1  0.5649180000000  0.4381940000000  0.4536460000000 1.0
C      1  0.5075180000000  0.4372210000000  0.5787870000000 1.0
C      1  0.5007280000000  0.5266930000000  0.5446340000000 1.0
C      1  0.4780170000000  0.5188230000000  0.4857220000000 1.0
C      1  0.5332510000000  0.5333790000000  0.4739480000000 1.0
C      1  0.5007150000000  0.4831810000000  0.5243510000000 1.0
C      1  0.4767200000000  0.4785540000000  0.4863310000000 1.0
C      1  0.5290630000000  0.4824330000000  0.4842880000000 1.0
C      1  0.5292480000000  0.5845710000000  0.4540310000000 1.0
C      1  0.5295720000000  0.5925350000000  0.5524640000000 1.0
C      1  0.4503900000000  0.5843870000000  0.4978610000000 1.0
C      1  0.5293080000000  0.4147420000000  0.4572570000000 1.0
C      1  0.5218330000000  0.4141430000000  0.5454900000000 1.0
C      1  0.4470580000000  0.4129680000000  0.4940660000000 1.0
C      1  0.4229840000000  0.5160060000000  0.5469440000000 1.0
C      1  0.4936200000000  0.5102240000000  0.4156230000000 1.0
C      1  0.5764770000000  0.5159220000000  0.5387590000000 1.0
C      1  0.4291140000000  0.4882130000000  0.5509110000000 1.0
C      1  0.4953600000000  0.4820980000000  0.4177600000000 1.0
C      1  0.5795230000000  0.4877490000000  0.5397930000000 1.0
C      1  0.5321600000000  0.5645650000000  0.5093950000000 1.0
C      1  0.4640490000000  0.5436020000000  0.5223730000000 1.0
C      1  0.4952210000000  0.5571490000000  0.4604290000000 1.0
C      1  0.5466040000000  0.4456880000000  0.5275590000000 1.0
C      1  0.4550230000000  0.4422280000000  0.5247050000000 1.0
C      1  0.4938040000000  0.4476760000000  0.4608300000000 1.0
C      1  0.5064810000000  0.4638540000000  0.5915020000000 1.0
C      1  0.4167160000000  0.4699580000000  0.4708380000000 1.0
C      1  0.5759880000000  0.4658860000000  0.4492470000000 1.0
C      1  0.5133100000000  0.5321810000000  0.5884600000000 1.0
C      1  0.4167600000000  0.5349320000000  0.4672480000000 1.0
C      1  0.5724050000000  0.5329880000000  0.4455760000000 1.0
C      1  0.5252290000000  0.5128640000000  0.5412150000000 1.0
C      1  0.4496810000000  0.5120290000000  0.4910780000000 1.0
C      1  0.5221900000000  0.5141160000000  0.4562230000000 1.0
C      1  0.5250840000000  0.4877190000000  0.5542640000000 1.0
C      1  0.4504310000000  0.4839120000000  0.5020420000000 1.0
C      1  0.5333880000000  0.4873420000000  0.4555230000000 1.0
C      1  0.4288910000000  0.5277050000000  0.5753690000000 1.0
C      1  0.4663490000000  0.5151430000000  0.4055360000000 1.0
C      1  0.5971020000000  0.5272840000000  0.5202590000000 1.0
C      1  0.4352590000000  0.4767060000000  0.5767590000000 1.0
C      1  0.4740020000000  0.4758110000000  0.4002730000000 1.0
C      1  0.6006700000000  0.4756480000000  0.5203770000000 1.0
C      1  0.4867710000000  0.4861840000000  0.5964600000000 1.0
C      1  0.4137620000000  0.4878750000000  0.4452600000000 1.0
C      1  0.5906590000000  0.4862490000000  0.4648130000000 1.0
C      1  0.4926930000000  0.5132760000000  0.5942200000000 1.0
C      1  0.4210560000000  0.5153070000000  0.4460370000000 1.0
C      1  0.5868690000000  0.5151410000000  0.4632630000000 1.0
C      1  0.5440980000000  0.5308080000000  0.5825810000000 1.0
C      1  0.4067410000000  0.5335510000000  0.4963670000000 1.0
C      1  0.5470540000000  0.5339560000000  0.4225580000000 1.0
C      1  0.5580510000000  0.4666220000000  0.5822640000000 1.0
C      1  0.4005190000000  0.4646840000000  0.4989250000000 1.0
C      1  0.5395750000000  0.4657660000000  0.4114780000000 1.0
C      1  0.4964270000000  0.5601160000000  0.4199720000000 1.0
C      1  0.5724040000000  0.5582270000000  0.5498380000000 1.0
C      1  0.4213950000000  0.5584970000000  0.5382240000000 1.0
C      1  0.4966580000000  0.4338090000000  0.4196490000000 1.0
C      1  0.5703710000000  0.4390960000000  0.5431110000000 1.0
C      1  0.4289390000000  0.4427460000000  0.5369610000000 1.0
C      1  0.5192760000000  0.4423520000000  0.5367480000000 1.0
C      1  0.4592430000000  0.4393740000000  0.4967580000000 1.0
C      1  0.5195800000000  0.4403670000000  0.4676940000000 1.0
C      1  0.5368280000000  0.5700110000000  0.5371060000000 1.0
C      1  0.4583630000000  0.5564910000000  0.4975010000000 1.0
C      1  0.5226160000000  0.5580390000000  0.4629450000000 1.0
C      1  0.4202810000000  0.4271050000000  0.4913920000000 1.0
C      1  0.5444670000000  0.4264980000000  0.4351220000000 1.0
C      1  0.5334030000000  0.4246480000000  0.5712270000000 1.0
C      1  0.4231940000000  0.5768200000000  0.4903270000000 1.0
C      1  0.5451890000000  0.5739600000000  0.4328260000000 1.0
C      1  0.5309810000000  0.5760690000000  0.5771730000000 1.0
C      1  0.4835320000000  0.5678990000000  0.5625030000000 1.0
C      1  0.4517390000000  0.5670090000000  0.4473580000000 1.0
C      1  0.5680890000000  0.5695710000000  0.4768710000000 1.0
C      1  0.4828240000000  0.4308350000000  0.5628860000000 1.0
C      1  0.4505260000000  0.4354690000000  0.4473670000000 1.0
C      1  0.5662940000000  0.4310200000000  0.4817150000000 1.0
C      1  0.4812530000000  0.5746980000000  0.4413200000000 1.0
C      1  0.5476120000000  0.5829590000000  0.4910270000000 1.0
C      1  0.4828740000000  0.5893900000000  0.5403880000000 1.0
C      1  0.4827330000000  0.4224880000000  0.4438390000000 1.0
C      1  0.5443380000000  0.4275870000000  0.5033650000000 1.0
C      1  0.4729410000000  0.4215800000000  0.5360270000000 1.0
C      1  0.5522360000000  0.5291800000000  0.4952650000000 1.0
C      1  0.4769700000000  0.5134700000000  0.5538470000000 1.0
C      1  0.4735800000000  0.5175910000000  0.4556600000000 1.0
C      1  0.5550470000000  0.4774050000000  0.4978020000000 1.0
C      1  0.4787080000000  0.4838170000000  0.5455260000000 1.0
C      1  0.4726480000000  0.4880770000000  0.4587820000000 1.0
C      1  0.5534710000000  0.4784100000000  0.4354630000000 1.0
C      1  0.4311410000000  0.4918650000000  0.4839520000000 1.0
C      1  0.5299970000000  0.4777710000000  0.5810200000000 1.0
C      1  0.4992000000000  0.4950570000000  0.4975780000000 1.0
END
