TITL C-2441156-4686-57 0.142599910242918 125000 -25665.5199219982 0 0 194 (C1) n - 1
REM
REM in /home/bkarasulu/work/CARBON/AIRSS/Generating-Clusters/ReaxFF-fromJPCA2015/Units_Real/with-SteepDescent/Higher-Symm
REM
REM
REM
REM
REM
REM ./C.cell (1df0a924f5614ab8850e4351716899ee)
REM
REM compiler GCC version 9.2.1 20190827 (Red Hat 9.2.1-1)
REM options -cpp -mtune=generic -march=x86-64 -g -O0 -fpre-include=/usr/include/finclude/math-vector-fortran.h
REM seed -1316934667 1771434587 -1531128689 1276730924 -1661196223 -300125486 462389377 1599304058 -257913827 520998851 188648721 -569037182 -1385954955 -1639450346 1170227174 -32249781 -2100948942 2021763305 1595499871 1314340759 -1801340074 797824589 1361689122 -410718779 811675504 -1912812870 -90437171 -1148988912 -1946302516 1677165423 30717701 -1097991982 -1377111314
REM
CELL 1.54180   50.00000   50.00000   50.00000   90.00000   90.00000   90.00000
LATT -1
SFAC C  
C      1  0.5522300000000  0.5944640000000  0.5413250000000 1.0
C      1  0.4364810000000  0.5927090000000  0.5267490000000 1.0
C      1  0.5033850000000  0.5901130000000  0.4304770000000 1.0
C      1  0.4410600000000  0.4068440000000  0.5400110000000 1.0
C      1  0.5641100000000  0.4030870000000  0.5274440000000 1.0
C      1  0.4960400000000  0.4064210000000  0.4245500000000 1.0
C      1  0.5276580000000  0.5815600000000  0.4824450000000 1.0
C      1  0.5043650000000  0.5812640000000  0.5324220000000 1.0
C      1  0.4676140000000  0.5853410000000  0.4833800000000 1.0
C      1  0.4660240000000  0.4133100000000  0.4810070000000 1.0
C      1  0.4973890000000  0.4200870000000  0.5313990000000 1.0
C      1  0.5321180000000  0.4192750000000  0.4768260000000 1.0
C      1  0.4599890000000  0.5633220000000  0.5434720000000 1.0
C      1  0.4839240000000  0.5572030000000  0.4433090000000 1.0
C      1  0.5694530000000  0.5588270000000  0.5231080000000 1.0
C      1  0.5482220000000  0.4373740000000  0.5508870000000 1.0
C      1  0.5163530000000  0.4355900000000  0.4426980000000 1.0
C      1  0.4391890000000  0.4354370000000  0.5120860000000 1.0
C      1  0.4847790000000  0.5223980000000  0.4612280000000 1.0
C      1  0.5468550000000  0.5261950000000  0.5089560000000 1.0
C      1  0.4726100000000  0.5258470000000  0.5357300000000 1.0
C      1  0.5179650000000  0.4730180000000  0.4556920000000 1.0
C      1  0.4536240000000  0.4722160000000  0.5127070000000 1.0
C      1  0.5299790000000  0.4693530000000  0.5353060000000 1.0
C      1  0.4656730000000  0.4861190000000  0.4480850000000 1.0
C      1  0.5584400000000  0.4842900000000  0.4947210000000 1.0
C      1  0.4678190000000  0.4885390000000  0.5574370000000 1.0
C      1  0.5337880000000  0.5114940000000  0.4442760000000 1.0
C      1  0.4354250000000  0.5100950000000  0.4985450000000 1.0
C      1  0.5324420000000  0.5077740000000  0.5564880000000 1.0
C      1  0.5892800000000  0.4920370000000  0.5651540000000 1.0
C      1  0.3992080000000  0.4906980000000  0.5468860000000 1.0
C      1  0.5088290000000  0.4904480000000  0.3888270000000 1.0
C      1  0.4102010000000  0.5089320000000  0.5643710000000 1.0
C      1  0.6007440000000  0.5088860000000  0.5464910000000 1.0
C      1  0.4890800000000  0.5097630000000  0.3893780000000 1.0
C      1  0.5454400000000  0.5328870000000  0.4105800000000 1.0
C      1  0.5550670000000  0.5343820000000  0.5826890000000 1.0
C      1  0.4008300000000  0.5333800000000  0.5068120000000 1.0
C      1  0.4545140000000  0.4664400000000  0.4099350000000 1.0
C      1  0.4446290000000  0.4645700000000  0.5843360000000 1.0
C      1  0.5988160000000  0.4649210000000  0.5077120000000 1.0
C      1  0.5290950000000  0.4532020000000  0.5622130000000 1.0
C      1  0.4397810000000  0.4562910000000  0.4929720000000 1.0
C      1  0.5367050000000  0.4547040000000  0.4438010000000 1.0
C      1  0.4742240000000  0.5449100000000  0.5596510000000 1.0
C      1  0.5679850000000  0.5455440000000  0.4981640000000 1.0
C      1  0.4595370000000  0.5408010000000  0.4471420000000 1.0
C      1  0.5477310000000  0.4905380000000  0.5407490000000 1.0
C      1  0.4395420000000  0.4944000000000  0.5217710000000 1.0
C      1  0.5132360000000  0.4940500000000  0.4372360000000 1.0
C      1  0.4524940000000  0.5067060000000  0.5428710000000 1.0
C      1  0.5586450000000  0.5009960000000  0.5175750000000 1.0
C      1  0.4874810000000  0.5027410000000  0.4411320000000 1.0
C      1  0.5973240000000  0.5368470000000  0.5452340000000 1.0
C      1  0.4150740000000  0.5359820000000  0.5588700000000 1.0
C      1  0.4936440000000  0.5371720000000  0.3942640000000 1.0
C      1  0.4051840000000  0.4628020000000  0.5463730000000 1.0
C      1  0.5855590000000  0.4643510000000  0.5609810000000 1.0
C      1  0.5056410000000  0.4624380000000  0.3921820000000 1.0
C      1  0.5033180000000  0.5440440000000  0.4620870000000 1.0
C      1  0.5306630000000  0.5454280000000  0.5322610000000 1.0
C      1  0.4628970000000  0.5500960000000  0.5136280000000 1.0
C      1  0.4950390000000  0.4497630000000  0.4584810000000 1.0
C      1  0.4701520000000  0.4553370000000  0.5271860000000 1.0
C      1  0.5409170000000  0.4474690000000  0.5164970000000 1.0
C      1  0.5378960000000  0.4583480000000  0.5890890000000 1.0
C      1  0.4052550000000  0.4521620000000  0.4906700000000 1.0
C      1  0.5520370000000  0.4490280000000  0.4192760000000 1.0
C      1  0.4629470000000  0.5410590000000  0.5866280000000 1.0
C      1  0.5961980000000  0.5417040000000  0.4904130000000 1.0
C      1  0.4492740000000  0.5519840000000  0.4220190000000 1.0
C      1  0.5307700000000  0.5475680000000  0.5840990000000 1.0
C      1  0.4102750000000  0.5480120000000  0.4844080000000 1.0
C      1  0.5585960000000  0.5471120000000  0.4321620000000 1.0
C      1  0.4697330000000  0.4509190000000  0.5840340000000 1.0
C      1  0.5863710000000  0.4513540000000  0.4869810000000 1.0
C      1  0.4439440000000  0.4528190000000  0.4323260000000 1.0
C      1  0.5135640000000  0.5020450000000  0.5764890000000 1.0
C      1  0.4310080000000  0.4979090000000  0.4734690000000 1.0
C      1  0.5600030000000  0.5020060000000  0.4479280000000 1.0
C      1  0.4863380000000  0.4964980000000  0.5768120000000 1.0
C      1  0.5721160000000  0.4943990000000  0.4724210000000 1.0
C      1  0.4453160000000  0.5073520000000  0.4495790000000 1.0
C      1  0.4086350000000  0.5459770000000  0.5328410000000 1.0
C      1  0.5193330000000  0.5456750000000  0.4038340000000 1.0
C      1  0.5734900000000  0.5470820000000  0.5587680000000 1.0
C      1  0.5911580000000  0.4532900000000  0.5348990000000 1.0
C      1  0.4800370000000  0.4529220000000  0.4016580000000 1.0
C      1  0.4250730000000  0.4527800000000  0.5648650000000 1.0
C      1  0.4654880000000  0.4353860000000  0.5606960000000 1.0
C      1  0.4671670000000  0.4363140000000  0.4400240000000 1.0
C      1  0.5688760000000  0.4364700000000  0.5052700000000 1.0
C      1  0.5349220000000  0.5627610000000  0.5588330000000 1.0
C      1  0.5399280000000  0.5677550000000  0.4364780000000 1.0
C      1  0.4229910000000  0.5692670000000  0.4968550000000 1.0
C      1  0.4487960000000  0.4900710000000  0.5972860000000 1.0
C      1  0.4417780000000  0.4927500000000  0.4066040000000 1.0
C      1  0.6083630000000  0.4895800000000  0.4972580000000 1.0
C      1  0.5499660000000  0.5102700000000  0.5966180000000 1.0
C      1  0.5561860000000  0.5068360000000  0.4066760000000 1.0
C      1  0.3926910000000  0.5083540000000  0.4974720000000 1.0
C      1  0.5274000000000  0.5298440000000  0.4640400000000 1.0
C      1  0.5162090000000  0.5240220000000  0.5413070000000 1.0
C      1  0.4566620000000  0.5276670000000  0.4966440000000 1.0
C      1  0.4636440000000  0.4738490000000  0.4740220000000 1.0
C      1  0.4838950000000  0.4713130000000  0.5437840000000 1.0
C      1  0.5331610000000  0.4718040000000  0.4840290000000 1.0
C      1  0.4608030000000  0.5115110000000  0.3958560000000 1.0
C      1  0.6100160000000  0.5077130000000  0.5190980000000 1.0
C      1  0.4289180000000  0.5086840000000  0.5871390000000 1.0
C      1  0.5364120000000  0.4894270000000  0.3966100000000 1.0
C      1  0.3912650000000  0.4903010000000  0.5190520000000 1.0
C      1  0.5703830000000  0.4923500000000  0.5871250000000 1.0
C      1  0.5226850000000  0.4997210000000  0.6036790000000 1.0
C      1  0.4009420000000  0.4981510000000  0.4683310000000 1.0
C      1  0.5774290000000  0.4959160000000  0.4253500000000 1.0
C      1  0.4761720000000  0.4999050000000  0.6035600000000 1.0
C      1  0.6008680000000  0.4991120000000  0.4702130000000 1.0
C      1  0.4238510000000  0.5032040000000  0.4280940000000 1.0
C      1  0.5158680000000  0.3968630000000  0.4809680000000 1.0
C      1  0.5085110000000  0.3967340000000  0.5204550000000 1.0
C      1  0.4780390000000  0.3932520000000  0.4947390000000 1.0
C      1  0.4844700000000  0.6079370000000  0.4820000000000 1.0
C      1  0.4875220000000  0.6027550000000  0.5227450000000 1.0
C      1  0.5203470000000  0.6046410000000  0.4969120000000 1.0
C      1  0.4378620000000  0.4271710000000  0.5597900000000 1.0
C      1  0.4789750000000  0.4269740000000  0.4146370000000 1.0
C      1  0.5823810000000  0.4257040000000  0.5322220000000 1.0
C      1  0.5621670000000  0.5745360000000  0.5595510000000 1.0
C      1  0.5206280000000  0.5719560000000  0.4164700000000 1.0
C      1  0.4163640000000  0.5726650000000  0.5244190000000 1.0
C      1  0.4098970000000  0.4223130000000  0.4877920000000 1.0
C      1  0.5516220000000  0.4207330000000  0.4268140000000 1.0
C      1  0.5260350000000  0.4082630000000  0.5709630000000 1.0
C      1  0.5751440000000  0.5904800000000  0.4874920000000 1.0
C      1  0.4445360000000  0.5814840000000  0.4317890000000 1.0
C      1  0.4738010000000  0.5894730000000  0.5736970000000 1.0
C      1  0.5662570000000  0.4643990000000  0.5843490000000 1.0
C      1  0.3958630000000  0.4620320000000  0.5180550000000 1.0
C      1  0.5349410000000  0.4605890000000  0.3980320000000 1.0
C      1  0.4339970000000  0.5366950000000  0.5825500000000 1.0
C      1  0.6077760000000  0.5362660000000  0.5171540000000 1.0
C      1  0.4642190000000  0.5403620000000  0.3999480000000 1.0
C      1  0.4972640000000  0.4516300000000  0.5943560000000 1.0
C      1  0.4190110000000  0.4518160000000  0.4475680000000 1.0
C      1  0.5850760000000  0.4503420000000  0.4576420000000 1.0
C      1  0.5038020000000  0.5472200000000  0.5963130000000 1.0
C      1  0.5811660000000  0.5473930000000  0.4513810000000 1.0
C      1  0.4122310000000  0.5449910000000  0.4558460000000 1.0
C      1  0.5613920000000  0.5957330000000  0.4627020000000 1.0
C      1  0.5014640000000  0.5954430000000  0.5755490000000 1.0
C      1  0.4317220000000  0.5911540000000  0.4577690000000 1.0
C      1  0.4410800000000  0.4071860000000  0.4645280000000 1.0
C      1  0.4977580000000  0.4056300000000  0.5723060000000 1.0
C      1  0.5587570000000  0.4090500000000  0.4711740000000 1.0
C      1  0.5266930000000  0.4437330000000  0.4923080000000 1.0
C      1  0.4907360000000  0.4409650000000  0.5128060000000 1.0
C      1  0.4875560000000  0.4380900000000  0.4841410000000 1.0
C      1  0.4792020000000  0.5643930000000  0.4948040000000 1.0
C      1  0.5109810000000  0.5588180000000  0.5182660000000 1.0
C      1  0.5063020000000  0.5604350000000  0.4894430000000 1.0
C      1  0.4968900000000  0.5114620000000  0.5250590000000 1.0
C      1  0.4809480000000  0.5155630000000  0.4887360000000 1.0
C      1  0.5271570000000  0.5167540000000  0.4892360000000 1.0
C      1  0.5039110000000  0.4835460000000  0.5287150000000 1.0
C      1  0.5136170000000  0.4912930000000  0.4917670000000 1.0
C      1  0.4846200000000  0.4870690000000  0.4890950000000 1.0
C      1  0.5695300000000  0.4247700000000  0.4493810000000 1.0
C      1  0.5103370000000  0.4257940000000  0.5882330000000 1.0
C      1  0.4185780000000  0.4248030000000  0.4607000000000 1.0
C      1  0.4205300000000  0.5703260000000  0.4445780000000 1.0
C      1  0.4914100000000  0.5743760000000  0.5923360000000 1.0
C      1  0.5823900000000  0.5745010000000  0.4642260000000 1.0
C      1  0.5346810000000  0.5871380000000  0.4553460000000 1.0
C      1  0.5232200000000  0.5888080000000  0.5524640000000 1.0
C      1  0.4390440000000  0.5900250000000  0.4859070000000 1.0
C      1  0.4662690000000  0.4106340000000  0.4511430000000 1.0
C      1  0.4779830000000  0.4125440000000  0.5521190000000 1.0
C      1  0.5659740000000  0.4088370000000  0.4987830000000 1.0
C      1  0.4775960000000  0.5849190000000  0.4391050000000 1.0
C      1  0.5657000000000  0.5858490000000  0.5171810000000 1.0
C      1  0.4610840000000  0.5937420000000  0.5425910000000 1.0
C      1  0.5233960000000  0.4087910000000  0.4319240000000 1.0
C      1  0.4293790000000  0.4105100000000  0.5142310000000 1.0
C      1  0.5481330000000  0.4098600000000  0.5514790000000 1.0
C      1  0.5875470000000  0.4732750000000  0.4403710000000 1.0
C      1  0.5166190000000  0.4711900000000  0.6051910000000 1.0
C      1  0.4033170000000  0.4680230000000  0.4649230000000 1.0
C      1  0.4064420000000  0.5190300000000  0.4443740000000 1.0
C      1  0.4827820000000  0.5285270000000  0.6047600000000 1.0
C      1  0.5989640000000  0.5281940000000  0.4645500000000 1.0
C      1  0.5014070000000  0.3849070000000  0.4989250000000 1.0
C      1  0.4983530000000  0.6166160000000  0.5010970000000 1.0
END
