TITL C-2441163-1170-1071 0.135653302332533 125000 -20480.7556766097 0 0 160 (C1) n - 1
REM
REM in /home/bkarasulu/work/CARBON/AIRSS/Generating-Clusters/ReaxFF-fromJPCA2015/Units_Real/with-SteepDescent/Higher-Symm
REM
REM
REM
REM
REM
REM ./C.cell (1df0a924f5614ab8850e4351716899ee)
REM
REM compiler GCC version 9.2.1 20190827 (Red Hat 9.2.1-1)
REM options -cpp -mtune=generic -march=x86-64 -g -O0 -fpre-include=/usr/include/finclude/math-vector-fortran.h
REM seed -195937011 -1025992635 -1858039444 -249653144 -287162034 -786888671 1598638624 -715496621 1615776890 410669032 -18916463 -451764274 162512359 -363599191 -1479883096 -356511728 -1112579311 1986998309 1924429561 -385645194 -907283048 925322773 1215310252 1610335401 1740151878 1198712192 -1305150067 -1270103448 314011014 2003792138 774187485 -1371684514 1836448343
REM
CELL 1.54180   50.00000   50.00000   50.00000   90.00000   90.00000   90.00000
LATT -1
SFAC C  
C      1  0.4856450000000  0.5057950000000  0.4742230000000 1.0
C      1  0.4819240000000  0.5378800000000  0.5440380000000 1.0
C      1  0.4943540000000  0.5328220000000  0.4670080000000 1.0
C      1  0.4415040000000  0.4200030000000  0.5334090000000 1.0
C      1  0.4025450000000  0.5079630000000  0.4846640000000 1.0
C      1  0.4439040000000  0.5172680000000  0.5340600000000 1.0
C      1  0.5626380000000  0.5391660000000  0.5702250000000 1.0
C      1  0.4720290000000  0.5480210000000  0.5154040000000 1.0
C      1  0.5683140000000  0.5144030000000  0.5020090000000 1.0
C      1  0.4301850000000  0.5362880000000  0.5512100000000 1.0
C      1  0.5447810000000  0.5045250000000  0.4108910000000 1.0
C      1  0.4219340000000  0.5686660000000  0.5139930000000 1.0
C      1  0.5144890000000  0.5198010000000  0.5884840000000 1.0
C      1  0.4202240000000  0.4706060000000  0.5054790000000 1.0
C      1  0.5131970000000  0.4096510000000  0.4557950000000 1.0
C      1  0.5415200000000  0.4701360000000  0.5828820000000 1.0
C      1  0.5103820000000  0.5024940000000  0.5164730000000 1.0
C      1  0.4744290000000  0.4862730000000  0.5384860000000 1.0
C      1  0.5870560000000  0.5343180000000  0.4631610000000 1.0
C      1  0.5920850000000  0.5026720000000  0.5151030000000 1.0
C      1  0.5197000000000  0.4625510000000  0.4511020000000 1.0
C      1  0.4739220000000  0.5083320000000  0.3959410000000 1.0
C      1  0.4317080000000  0.5375230000000  0.4855070000000 1.0
C      1  0.5601450000000  0.4213910000000  0.5109760000000 1.0
C      1  0.5289420000000  0.4936480000000  0.4942390000000 1.0
C      1  0.5363190000000  0.4112590000000  0.5216320000000 1.0
C      1  0.4993040000000  0.5218760000000  0.4037820000000 1.0
C      1  0.5149340000000  0.6053030000000  0.5085650000000 1.0
C      1  0.4604260000000  0.5719700000000  0.4302330000000 1.0
C      1  0.5109100000000  0.5298540000000  0.5118390000000 1.0
C      1  0.4841790000000  0.5231860000000  0.5976450000000 1.0
C      1  0.4782750000000  0.4895890000000  0.4370780000000 1.0
C      1  0.4934430000000  0.4201530000000  0.4364160000000 1.0
C      1  0.4429980000000  0.4793430000000  0.5691290000000 1.0
C      1  0.4637710000000  0.4861580000000  0.4117130000000 1.0
C      1  0.4098780000000  0.5304150000000  0.4676230000000 1.0
C      1  0.4895360000000  0.5399490000000  0.4951730000000 1.0
C      1  0.4677780000000  0.5126230000000  0.5472880000000 1.0
C      1  0.5634060000000  0.4561060000000  0.4397820000000 1.0
C      1  0.5354650000000  0.6000890000000  0.5310230000000 1.0
C      1  0.5312350000000  0.5661560000000  0.4983030000000 1.0
C      1  0.5732590000000  0.4993040000000  0.5609860000000 1.0
C      1  0.5946500000000  0.5093170000000  0.5444550000000 1.0
C      1  0.4448060000000  0.5602820000000  0.4728000000000 1.0
C      1  0.4430420000000  0.4703250000000  0.4247120000000 1.0
C      1  0.4643720000000  0.5018630000000  0.5973360000000 1.0
C      1  0.5098260000000  0.4362090000000  0.4182510000000 1.0
C      1  0.4484810000000  0.5510850000000  0.5712690000000 1.0
C      1  0.5594750000000  0.5775710000000  0.4866760000000 1.0
C      1  0.4730690000000  0.4126110000000  0.5388720000000 1.0
C      1  0.6062130000000  0.4791010000000  0.4746050000000 1.0
C      1  0.4486740000000  0.4710940000000  0.4987110000000 1.0
C      1  0.5103730000000  0.5691300000000  0.5271380000000 1.0
C      1  0.5000480000000  0.4447980000000  0.4905800000000 1.0
C      1  0.4153200000000  0.4658320000000  0.5335770000000 1.0
C      1  0.5242670000000  0.5316080000000  0.4588010000000 1.0
C      1  0.5630970000000  0.4328870000000  0.4566320000000 1.0
C      1  0.5600000000000  0.4735080000000  0.5323920000000 1.0
C      1  0.4745300000000  0.5656990000000  0.5627350000000 1.0
C      1  0.4837580000000  0.5825020000000  0.4436320000000 1.0
C      1  0.4129080000000  0.5423890000000  0.5272270000000 1.0
C      1  0.5567500000000  0.4606830000000  0.5597700000000 1.0
C      1  0.5346870000000  0.4771510000000  0.4055580000000 1.0
C      1  0.5269180000000  0.5285140000000  0.4106950000000 1.0
C      1  0.5146780000000  0.3983420000000  0.5072700000000 1.0
C      1  0.5144180000000  0.4590540000000  0.5401680000000 1.0
C      1  0.5742630000000  0.5320920000000  0.4367690000000 1.0
C      1  0.5033620000000  0.4987720000000  0.4252850000000 1.0
C      1  0.4347380000000  0.4224200000000  0.5051800000000 1.0
C      1  0.4878370000000  0.3960060000000  0.5182860000000 1.0
C      1  0.4196470000000  0.5397320000000  0.4406960000000 1.0
C      1  0.5384570000000  0.4536300000000  0.4231860000000 1.0
C      1  0.4451020000000  0.4300350000000  0.4652130000000 1.0
C      1  0.5062680000000  0.5713140000000  0.5721740000000 1.0
C      1  0.5898540000000  0.4618230000000  0.4933920000000 1.0
C      1  0.4893050000000  0.4515240000000  0.4069110000000 1.0
C      1  0.4354830000000  0.4802770000000  0.4518030000000 1.0
C      1  0.4576850000000  0.5304500000000  0.4046920000000 1.0
C      1  0.5117020000000  0.5850510000000  0.4820400000000 1.0
C      1  0.4073350000000  0.4931800000000  0.5375260000000 1.0
C      1  0.4636590000000  0.5850300000000  0.5421270000000 1.0
C      1  0.5158200000000  0.4262340000000  0.5720990000000 1.0
C      1  0.4849920000000  0.4967670000000  0.5148230000000 1.0
C      1  0.5116560000000  0.5422740000000  0.5391980000000 1.0
C      1  0.5888630000000  0.4997140000000  0.4656820000000 1.0
C      1  0.5152650000000  0.5878600000000  0.5500240000000 1.0
C      1  0.5742200000000  0.5381260000000  0.4883580000000 1.0
C      1  0.5239350000000  0.4468150000000  0.4753200000000 1.0
C      1  0.4320370000000  0.4417380000000  0.5487530000000 1.0
C      1  0.4381940000000  0.5771590000000  0.5333580000000 1.0
C      1  0.4647940000000  0.5009940000000  0.4943670000000 1.0
C      1  0.5686840000000  0.5035250000000  0.4275400000000 1.0
C      1  0.4365250000000  0.5633680000000  0.4447790000000 1.0
C      1  0.5070630000000  0.4982740000000  0.5693330000000 1.0
C      1  0.5626190000000  0.4672060000000  0.4844560000000 1.0
C      1  0.4408510000000  0.5066590000000  0.5781980000000 1.0
C      1  0.4635460000000  0.5423440000000  0.5936470000000 1.0
C      1  0.5516630000000  0.5260140000000  0.5198250000000 1.0
C      1  0.4641940000000  0.4264590000000  0.4395060000000 1.0
C      1  0.5191800000000  0.4517160000000  0.5855730000000 1.0
C      1  0.5030510000000  0.4867870000000  0.4813700000000 1.0
C      1  0.5634380000000  0.5130030000000  0.5852090000000 1.0
C      1  0.4899430000000  0.4495260000000  0.5529380000000 1.0
C      1  0.5501580000000  0.5009710000000  0.5415770000000 1.0
C      1  0.4737230000000  0.5331320000000  0.4469740000000 1.0
C      1  0.4099780000000  0.4841000000000  0.4682160000000 1.0
C      1  0.5379780000000  0.5479930000000  0.5577100000000 1.0
C      1  0.6077900000000  0.5024320000000  0.4907110000000 1.0
C      1  0.4620770000000  0.4633810000000  0.5239400000000 1.0
C      1  0.5334880000000  0.5379120000000  0.5019750000000 1.0
C      1  0.4752040000000  0.5478100000000  0.4217770000000 1.0
C      1  0.5284630000000  0.5547880000000  0.4238620000000 1.0
C      1  0.5398880000000  0.4984700000000  0.5929580000000 1.0
C      1  0.4542880000000  0.5119820000000  0.4470670000000 1.0
C      1  0.4172210000000  0.4932540000000  0.5655970000000 1.0
C      1  0.5470830000000  0.4303270000000  0.4807750000000 1.0
C      1  0.5786790000000  0.4811490000000  0.4437920000000 1.0
C      1  0.5606860000000  0.5868650000000  0.5272420000000 1.0
C      1  0.5394350000000  0.5555300000000  0.4509540000000 1.0
C      1  0.5720090000000  0.5452150000000  0.5281130000000 1.0
C      1  0.5027680000000  0.4028580000000  0.4810520000000 1.0
C      1  0.4997850000000  0.4735660000000  0.5823970000000 1.0
C      1  0.4556870000000  0.4158460000000  0.4874290000000 1.0
C      1  0.4507080000000  0.4600490000000  0.4715630000000 1.0
C      1  0.4052760000000  0.4590540000000  0.4832290000000 1.0
C      1  0.4838600000000  0.5842530000000  0.4723220000000 1.0
C      1  0.4864270000000  0.6126640000000  0.5081410000000 1.0
C      1  0.5778690000000  0.5677270000000  0.5097460000000 1.0
C      1  0.4552260000000  0.4593520000000  0.5882130000000 1.0
C      1  0.5211130000000  0.4910310000000  0.5443380000000 1.0
C      1  0.4411370000000  0.5812150000000  0.4925120000000 1.0
C      1  0.5250620000000  0.4924400000000  0.4463470000000 1.0
C      1  0.5418570000000  0.4137220000000  0.4572960000000 1.0
C      1  0.4818910000000  0.5745320000000  0.5211830000000 1.0
C      1  0.5104710000000  0.5772080000000  0.4315460000000 1.0
C      1  0.4373210000000  0.5226630000000  0.4252260000000 1.0
C      1  0.5790660000000  0.4346460000000  0.5280690000000 1.0
C      1  0.5310670000000  0.4286330000000  0.5461920000000 1.0
C      1  0.5058260000000  0.4755560000000  0.4041900000000 1.0
C      1  0.4434610000000  0.5190060000000  0.5048940000000 1.0
C      1  0.4657520000000  0.5969930000000  0.4903030000000 1.0
C      1  0.5234500000000  0.5499910000000  0.5820910000000 1.0
C      1  0.4876410000000  0.4228060000000  0.5660140000000 1.0
C      1  0.5866910000000  0.5365500000000  0.5516950000000 1.0
C      1  0.4897440000000  0.4652410000000  0.4495490000000 1.0
C      1  0.4771140000000  0.4758510000000  0.5980680000000 1.0
C      1  0.5869250000000  0.4623570000000  0.5228190000000 1.0
C      1  0.5606920000000  0.4335760000000  0.5511870000000 1.0
C      1  0.4047170000000  0.5152480000000  0.5156600000000 1.0
C      1  0.4769940000000  0.4408950000000  0.5300860000000 1.0
C      1  0.4526510000000  0.4392630000000  0.5683220000000 1.0
C      1  0.4771300000000  0.3991720000000  0.4918630000000 1.0
C      1  0.5247490000000  0.5799100000000  0.4558450000000 1.0
C      1  0.4793460000000  0.4550490000000  0.4718320000000 1.0
C      1  0.4601400000000  0.4461290000000  0.4199320000000 1.0
C      1  0.4195940000000  0.4335520000000  0.4825030000000 1.0
C      1  0.5359940000000  0.5072840000000  0.4671580000000 1.0
C      1  0.5136580000000  0.4586810000000  0.5120990000000 1.0
C      1  0.5696520000000  0.5707900000000  0.4609080000000 1.0
C      1  0.5410710000000  0.4683430000000  0.5064660000000 1.0
END
