TITL C-2441157-2117-492 0.108632451364164 125000 -22527.0526645456 0 0 174 (C1) n - 1
REM
REM in /home/bkarasulu/work/CARBON/AIRSS/Generating-Clusters/ReaxFF-fromJPCA2015/Units_Real/with-SteepDescent/Higher-Symm
REM
REM
REM
REM
REM
REM ./C.cell (1df0a924f5614ab8850e4351716899ee)
REM
REM compiler GCC version 9.2.1 20190827 (Red Hat 9.2.1-1)
REM options -cpp -mtune=generic -march=x86-64 -g -O0 -fpre-include=/usr/include/finclude/math-vector-fortran.h
REM seed -355244399 997218454 592096707 -41931359 -866093775 518479444 -1396321709 1752313103 -419556390 1584297992 472498202 517387925 -2054060057 1524981393 815336269 -926522915 15484609 -1236989219 -837960576 -522836999 -1394422483 224467788 -1477503616 1461344501 573508266 72504573 -1609927364 -529499437 -25892428 1871143159 1530025382 -1357176862 919425997
REM
CELL 1.54180   50.00000   50.00000   50.00000   90.00000   90.00000   90.00000
LATT -1
SFAC C  
C      1  0.5325890000000  0.5021180000000  0.5999650000000 1.0
C      1  0.5146650000000  0.4779830000000  0.5977990000000 1.0
C      1  0.4798900000000  0.4814880000000  0.5955650000000 1.0
C      1  0.4773030000000  0.5180620000000  0.5984450000000 1.0
C      1  0.5047260000000  0.5309090000000  0.5935850000000 1.0
C      1  0.5304470000000  0.5913410000000  0.5494420000000 1.0
C      1  0.5970950000000  0.4982920000000  0.5524120000000 1.0
C      1  0.5265340000000  0.4103820000000  0.5522230000000 1.0
C      1  0.4219170000000  0.4425250000000  0.5492700000000 1.0
C      1  0.4207220000000  0.5567820000000  0.5510820000000 1.0
C      1  0.5125390000000  0.4783260000000  0.5687030000000 1.0
C      1  0.4643810000000  0.4917770000000  0.5708950000000 1.0
C      1  0.4795060000000  0.5100660000000  0.5551230000000 1.0
C      1  0.5226770000000  0.5255690000000  0.5705670000000 1.0
C      1  0.5255940000000  0.4997040000000  0.5553270000000 1.0
C      1  0.4426760000000  0.4917090000000  0.4812060000000 1.0
C      1  0.4741110000000  0.5524060000000  0.4810780000000 1.0
C      1  0.5400590000000  0.5381510000000  0.4752900000000 1.0
C      1  0.5507560000000  0.4772190000000  0.4809290000000 1.0
C      1  0.4918410000000  0.4474190000000  0.4785520000000 1.0
C      1  0.4365060000000  0.5796750000000  0.5531920000000 1.0
C      1  0.5593150000000  0.5851960000000  0.5454470000000 1.0
C      1  0.6031030000000  0.4709580000000  0.5451960000000 1.0
C      1  0.5040700000000  0.3941440000000  0.5441530000000 1.0
C      1  0.4015590000000  0.4631770000000  0.5458040000000 1.0
C      1  0.4139170000000  0.5476180000000  0.5233680000000 1.0
C      1  0.5176720000000  0.5944610000000  0.5224540000000 1.0
C      1  0.5988900000000  0.5133920000000  0.5243520000000 1.0
C      1  0.5429920000000  0.4133010000000  0.5267370000000 1.0
C      1  0.4292820000000  0.4307050000000  0.5232450000000 1.0
C      1  0.5743980000000  0.5579140000000  0.4495270000000 1.0
C      1  0.5741650000000  0.4441460000000  0.4527820000000 1.0
C      1  0.4750760000000  0.4123060000000  0.4501880000000 1.0
C      1  0.4099020000000  0.4961190000000  0.4501580000000 1.0
C      1  0.4680030000000  0.5862500000000  0.4497040000000 1.0
C      1  0.4293150000000  0.5592030000000  0.4579790000000 1.0
C      1  0.5366830000000  0.5868300000000  0.4562080000000 1.0
C      1  0.5927550000000  0.4918080000000  0.4526420000000 1.0
C      1  0.5218510000000  0.4101200000000  0.4602640000000 1.0
C      1  0.4220560000000  0.4499960000000  0.4583250000000 1.0
C      1  0.4483990000000  0.4430190000000  0.5642190000000 1.0
C      1  0.4295060000000  0.5323050000000  0.5697970000000 1.0
C      1  0.5115640000000  0.5847750000000  0.5711270000000 1.0
C      1  0.5812230000000  0.5125150000000  0.5725100000000 1.0
C      1  0.5178970000000  0.4294540000000  0.5736530000000 1.0
C      1  0.4901010000000  0.5550990000000  0.5437290000000 1.0
C      1  0.5494370000000  0.5258270000000  0.5379070000000 1.0
C      1  0.5447020000000  0.4591640000000  0.5441700000000 1.0
C      1  0.4647250000000  0.4549540000000  0.5413680000000 1.0
C      1  0.4399990000000  0.5156520000000  0.5466970000000 1.0
C      1  0.5255800000000  0.4697770000000  0.3987300000000 1.0
C      1  0.4808610000000  0.4673550000000  0.4068990000000 1.0
C      1  0.4660690000000  0.5079530000000  0.4040080000000 1.0
C      1  0.4975790000000  0.5404990000000  0.4045100000000 1.0
C      1  0.5402230000000  0.5170600000000  0.3984470000000 1.0
C      1  0.5377570000000  0.5566060000000  0.5156060000000 1.0
C      1  0.5684480000000  0.4829780000000  0.5214110000000 1.0
C      1  0.5018860000000  0.4347960000000  0.5229390000000 1.0
C      1  0.4333240000000  0.4788310000000  0.5203040000000 1.0
C      1  0.4562780000000  0.5570680000000  0.5221410000000 1.0
C      1  0.5434920000000  0.4805460000000  0.4501070000000 1.0
C      1  0.5065420000000  0.4625160000000  0.4598070000000 1.0
C      1  0.4624050000000  0.4850640000000  0.4615020000000 1.0
C      1  0.4781120000000  0.5339830000000  0.4589670000000 1.0
C      1  0.5243370000000  0.5228050000000  0.4564280000000 1.0
C      1  0.4745480000000  0.5169940000000  0.5125800000000 1.0
C      1  0.5025910000000  0.5246530000000  0.5067390000000 1.0
C      1  0.5376130000000  0.5003420000000  0.4890960000000 1.0
C      1  0.5135070000000  0.4730380000000  0.5054280000000 1.0
C      1  0.4758430000000  0.4797190000000  0.5030400000000 1.0
C      1  0.4503090000000  0.5461610000000  0.4247940000000 1.0
C      1  0.5252680000000  0.5655660000000  0.4368430000000 1.0
C      1  0.5810850000000  0.5065800000000  0.4274610000000 1.0
C      1  0.5121020000000  0.4327370000000  0.4270410000000 1.0
C      1  0.4410330000000  0.4669430000000  0.4258470000000 1.0
C      1  0.4956830000000  0.3990910000000  0.4655760000000 1.0
C      1  0.4033450000000  0.4724910000000  0.4646770000000 1.0
C      1  0.4439420000000  0.5838290000000  0.4644010000000 1.0
C      1  0.5638920000000  0.5806470000000  0.4656500000000 1.0
C      1  0.5930390000000  0.4638660000000  0.4634370000000 1.0
C      1  0.4722820000000  0.4550470000000  0.5885360000000 1.0
C      1  0.4538960000000  0.5291120000000  0.5892410000000 1.0
C      1  0.5023410000000  0.5589000000000  0.5848870000000 1.0
C      1  0.5569750000000  0.5070220000000  0.5876860000000 1.0
C      1  0.5299930000000  0.4497510000000  0.5903570000000 1.0
C      1  0.5745520000000  0.4872760000000  0.4947380000000 1.0
C      1  0.5137350000000  0.4319180000000  0.4961890000000 1.0
C      1  0.4312610000000  0.4686270000000  0.4954960000000 1.0
C      1  0.4493310000000  0.5542330000000  0.4953840000000 1.0
C      1  0.5277400000000  0.5629290000000  0.4893830000000 1.0
C      1  0.5266420000000  0.6087810000000  0.4736020000000 1.0
C      1  0.6070530000000  0.5247490000000  0.4808640000000 1.0
C      1  0.5424510000000  0.3983970000000  0.4783020000000 1.0
C      1  0.4180340000000  0.4269770000000  0.4755020000000 1.0
C      1  0.4052310000000  0.5585930000000  0.4756760000000 1.0
C      1  0.4885950000000  0.4328870000000  0.5802920000000 1.0
C      1  0.4363240000000  0.4917390000000  0.5634220000000 1.0
C      1  0.4780480000000  0.5610680000000  0.5696220000000 1.0
C      1  0.5452920000000  0.5412650000000  0.5625960000000 1.0
C      1  0.5531840000000  0.4564830000000  0.5743630000000 1.0
C      1  0.4554200000000  0.5956230000000  0.4895390000000 1.0
C      1  0.5761640000000  0.5686370000000  0.4900750000000 1.0
C      1  0.5925600000000  0.4502480000000  0.4894110000000 1.0
C      1  0.4786390000000  0.3994540000000  0.4900920000000 1.0
C      1  0.3960650000000  0.4864330000000  0.4897230000000 1.0
C      1  0.4805990000000  0.6000110000000  0.4763920000000 1.0
C      1  0.5859650000000  0.5459560000000  0.4753720000000 1.0
C      1  0.5759280000000  0.4312910000000  0.4794920000000 1.0
C      1  0.4604440000000  0.4132830000000  0.4773290000000 1.0
C      1  0.3986480000000  0.5117110000000  0.4782010000000 1.0
C      1  0.4577830000000  0.5858400000000  0.5188000000000 1.0
C      1  0.5645170000000  0.5679810000000  0.5204590000000 1.0
C      1  0.5879740000000  0.4606810000000  0.5207280000000 1.0
C      1  0.4873530000000  0.4088050000000  0.5217280000000 1.0
C      1  0.4049630000000  0.4836000000000  0.5229700000000 1.0
C      1  0.5277580000000  0.4045490000000  0.5028850000000 1.0
C      1  0.4164320000000  0.4436200000000  0.4992400000000 1.0
C      1  0.4215010000000  0.5641370000000  0.4996790000000 1.0
C      1  0.5351680000000  0.5933000000000  0.4974770000000 1.0
C      1  0.6009340000000  0.4977880000000  0.4910920000000 1.0
C      1  0.4995870000000  0.5659250000000  0.4168560000000 1.0
C      1  0.5616820000000  0.5264770000000  0.4175480000000 1.0
C      1  0.5337690000000  0.4487700000000  0.4161700000000 1.0
C      1  0.4634820000000  0.4487460000000  0.4155950000000 1.0
C      1  0.4435580000000  0.5183040000000  0.4153040000000 1.0
C      1  0.4693050000000  0.4535660000000  0.4957170000000 1.0
C      1  0.4481140000000  0.5142300000000  0.4991190000000 1.0
C      1  0.4982960000000  0.5564220000000  0.4973060000000 1.0
C      1  0.5552700000000  0.5220260000000  0.4935210000000 1.0
C      1  0.5354160000000  0.4539630000000  0.4980700000000 1.0
C      1  0.5736960000000  0.5419700000000  0.5702790000000 1.0
C      1  0.5730210000000  0.4396730000000  0.5661190000000 1.0
C      1  0.4663820000000  0.4183880000000  0.5683310000000 1.0
C      1  0.4120740000000  0.5048380000000  0.5734120000000 1.0
C      1  0.4822380000000  0.5897260000000  0.5656190000000 1.0
C      1  0.5317420000000  0.4940760000000  0.3954670000000 1.0
C      1  0.4999700000000  0.4699860000000  0.3870670000000 1.0
C      1  0.4749730000000  0.4866710000000  0.3889030000000 1.0
C      1  0.4778500000000  0.5266750000000  0.3938970000000 1.0
C      1  0.5186300000000  0.5328820000000  0.3957290000000 1.0
C      1  0.4726190000000  0.5672820000000  0.4283550000000 1.0
C      1  0.5536850000000  0.5500290000000  0.4311750000000 1.0
C      1  0.5538270000000  0.4566120000000  0.4355660000000 1.0
C      1  0.4828500000000  0.4309000000000  0.4294340000000 1.0
C      1  0.4301060000000  0.4949390000000  0.4294860000000 1.0
C      1  0.4743450000000  0.5330690000000  0.5364700000000 1.0
C      1  0.5247740000000  0.5336560000000  0.5249230000000 1.0
C      1  0.5441640000000  0.4862520000000  0.5351250000000 1.0
C      1  0.5021860000000  0.4619020000000  0.5290990000000 1.0
C      1  0.4612010000000  0.4819430000000  0.5271380000000 1.0
C      1  0.4760990000000  0.3991800000000  0.5487190000000 1.0
C      1  0.3962960000000  0.4909170000000  0.5538010000000 1.0
C      1  0.4591600000000  0.5956860000000  0.5474500000000 1.0
C      1  0.5779300000000  0.5640980000000  0.5518150000000 1.0
C      1  0.5926150000000  0.4434070000000  0.5480120000000 1.0
C      1  0.5222650000000  0.4383800000000  0.4536600000000 1.0
C      1  0.4500180000000  0.4591190000000  0.4523940000000 1.0
C      1  0.4485110000000  0.5377890000000  0.4521660000000 1.0
C      1  0.5070950000000  0.5450270000000  0.4514410000000 1.0
C      1  0.5652950000000  0.5007210000000  0.4500870000000 1.0
C      1  0.3943320000000  0.5368290000000  0.4900350000000 1.0
C      1  0.5026540000000  0.6121690000000  0.4885000000000 1.0
C      1  0.6096830000000  0.5341630000000  0.5075100000000 1.0
C      1  0.5632340000000  0.4120690000000  0.4903210000000 1.0
C      1  0.4389800000000  0.4121450000000  0.4872570000000 1.0
C      1  0.5476470000000  0.4413910000000  0.5221110000000 1.0
C      1  0.4574170000000  0.4384630000000  0.5189070000000 1.0
C      1  0.4293150000000  0.5219600000000  0.5204350000000 1.0
C      1  0.4983770000000  0.5725170000000  0.5225110000000 1.0
C      1  0.5709340000000  0.5259780000000  0.5187470000000 1.0
C      1  0.5091080000000  0.4991660000000  0.4913260000000 1.0
C      1  0.4875310000000  0.5005560000000  0.4615000000000 1.0
C      1  0.4993660000000  0.4896100000000  0.5483210000000 1.0
C      1  0.5130250000000  0.4937660000000  0.4485150000000 1.0
END
