TITL C-2441159-1093-1468 2.00585359557272e-09 125000 -762.619547794472 0 0 6 (D(inf)h) n - 1
REM
REM in /home/bkarasulu/work/CARBON/AIRSS/Generating-Clusters/ReaxFF-fromJPCA2015/Units_Real/with-SteepDescent/Higher-Symm
REM
REM
REM
REM
REM
REM ./C.cell (1df0a924f5614ab8850e4351716899ee)
REM
REM compiler GCC version 9.2.1 20190827 (Red Hat 9.2.1-1)
REM options -cpp -mtune=generic -march=x86-64 -g -O0 -fpre-include=/usr/include/finclude/math-vector-fortran.h
REM seed -1014127764 2104164369 -399020534 -1137739405 -1633308324 -1267301593 -228919555 1106443096 23517507 961901927 1281778556 -1494473559 -778769132 695318513 -1737080803 813987165 -218989808 -451673976 -987064194 -543832091 1495762535 1537940493 395603125 -650082147 -978345345 431657506 309885221 902554252 1647003505 -79062128 -776215748 -1161547316 2026106268
REM
CELL 1.54180   50.00000   50.00000   50.00000   90.00000   90.00000   90.00000
LATT -1
SFAC C  
C      1  0.5004430000000  0.5008320000000  0.4616360000000 1.0
C      1  0.5004430000000  0.5008320000000  0.5126100000000 1.0
C      1  0.5004430000000  0.5008320000000  0.5383640000000 1.0
C      1  0.5004430000000  0.5008320000000  0.4372220000000 1.0
C      1  0.5004430000000  0.5008320000000  0.4873900000000 1.0
C      1  0.5004430000000  0.5008320000000  0.5627780000000 1.0
END
