TITL C-2441160-1326-238 0.131944092067384 125000 -23810.3110719769 0 0 182 (C1) n - 1
REM
REM in /home/bkarasulu/work/CARBON/AIRSS/Generating-Clusters/ReaxFF-fromJPCA2015/Units_Real/with-SteepDescent/Higher-Symm
REM
REM
REM
REM
REM
REM ./C.cell (1df0a924f5614ab8850e4351716899ee)
REM
REM compiler GCC version 9.2.1 20190827 (Red Hat 9.2.1-1)
REM options -cpp -mtune=generic -march=x86-64 -g -O0 -fpre-include=/usr/include/finclude/math-vector-fortran.h
REM seed 1733278232 2129948358 1417405659 -955676065 -2047452441 -17911976 -1003761662 -1663262460 322176997 -395041197 1367928366 1459927508 -761482813 -1667868225 -394639027 -2115494520 -388966587 -1862192523 1151532049 -305599001 1887758813 526017253 1242431010 -1458132171 -801285453 -1116873040 2050938739 1203847123 -1051483842 132634917 1512093608 1464502578 162648453
REM
CELL 1.54180   50.00000   50.00000   50.00000   90.00000   90.00000   90.00000
LATT -1
SFAC C  
C      1  0.5415850000000  0.4222220000000  0.4698780000000 1.0
C      1  0.5304380000000  0.4202820000000  0.5238840000000 1.0
C      1  0.5359080000000  0.4901640000000  0.5824950000000 1.0
C      1  0.5391100000000  0.5501720000000  0.5768380000000 1.0
C      1  0.5384930000000  0.5854130000000  0.5033730000000 1.0
C      1  0.5349380000000  0.5559320000000  0.4327310000000 1.0
C      1  0.5345450000000  0.4701020000000  0.4220530000000 1.0
C      1  0.4748200000000  0.5135780000000  0.6059230000000 1.0
C      1  0.4753230000000  0.5874950000000  0.5547830000000 1.0
C      1  0.4750370000000  0.5980520000000  0.4632820000000 1.0
C      1  0.4735830000000  0.5357860000000  0.4006060000000 1.0
C      1  0.4761390000000  0.4452220000000  0.4113430000000 1.0
C      1  0.4770140000000  0.3972770000000  0.4869920000000 1.0
C      1  0.4744700000000  0.4245700000000  0.5745000000000 1.0
C      1  0.4929850000000  0.4705670000000  0.4066660000000 1.0
C      1  0.4959780000000  0.4075040000000  0.4647250000000 1.0
C      1  0.4941220000000  0.4141780000000  0.5521460000000 1.0
C      1  0.4916120000000  0.4871630000000  0.5980660000000 1.0
C      1  0.4941840000000  0.5711460000000  0.5720160000000 1.0
C      1  0.4956250000000  0.5992200000000  0.4866510000000 1.0
C      1  0.4923720000000  0.5548210000000  0.4150790000000 1.0
C      1  0.5542100000000  0.4850360000000  0.4376970000000 1.0
C      1  0.5525020000000  0.4476950000000  0.4683690000000 1.0
C      1  0.5615930000000  0.4522140000000  0.5149650000000 1.0
C      1  0.5553640000000  0.4851580000000  0.5617180000000 1.0
C      1  0.5616200000000  0.5288870000000  0.5430080000000 1.0
C      1  0.5587010000000  0.5567120000000  0.4990340000000 1.0
C      1  0.5589150000000  0.5365630000000  0.4618890000000 1.0
C      1  0.4479190000000  0.4070430000000  0.4880370000000 1.0
C      1  0.4473370000000  0.4289050000000  0.5640640000000 1.0
C      1  0.4474890000000  0.5124100000000  0.5943890000000 1.0
C      1  0.4474630000000  0.5781650000000  0.5502150000000 1.0
C      1  0.4473090000000  0.5877470000000  0.4706560000000 1.0
C      1  0.4451080000000  0.5387340000000  0.4109820000000 1.0
C      1  0.4474010000000  0.4476380000000  0.4206610000000 1.0
C      1  0.5180900000000  0.4542120000000  0.5812860000000 1.0
C      1  0.5266390000000  0.5341720000000  0.5963340000000 1.0
C      1  0.5195170000000  0.5841770000000  0.5252420000000 1.0
C      1  0.5219150000000  0.5823500000000  0.4351890000000 1.0
C      1  0.5297980000000  0.5076590000000  0.4057780000000 1.0
C      1  0.5252050000000  0.4253270000000  0.4290240000000 1.0
C      1  0.5277900000000  0.3974850000000  0.5086760000000 1.0
C      1  0.4721860000000  0.5543390000000  0.4758320000000 1.0
C      1  0.4721440000000  0.5199390000000  0.4434150000000 1.0
C      1  0.4689690000000  0.4670010000000  0.4501590000000 1.0
C      1  0.4747180000000  0.4405310000000  0.4954600000000 1.0
C      1  0.4731700000000  0.4612270000000  0.5458750000000 1.0
C      1  0.4672860000000  0.5089340000000  0.5596460000000 1.0
C      1  0.4755810000000  0.5517910000000  0.5267630000000 1.0
C      1  0.4098700000000  0.4578120000000  0.4572110000000 1.0
C      1  0.4068640000000  0.4334080000000  0.5080500000000 1.0
C      1  0.4085020000000  0.4607280000000  0.5562900000000 1.0
C      1  0.4078170000000  0.5171410000000  0.5609600000000 1.0
C      1  0.4070260000000  0.5620300000000  0.5248890000000 1.0
C      1  0.4063910000000  0.5549540000000  0.4678670000000 1.0
C      1  0.4078420000000  0.5108720000000  0.4335260000000 1.0
C      1  0.5459510000000  0.5186070000000  0.4747560000000 1.0
C      1  0.5420030000000  0.4921890000000  0.4649130000000 1.0
C      1  0.5471720000000  0.4716900000000  0.4824230000000 1.0
C      1  0.5521740000000  0.4741700000000  0.5098690000000 1.0
C      1  0.5446740000000  0.4905540000000  0.5327350000000 1.0
C      1  0.5491140000000  0.5170680000000  0.5258020000000 1.0
C      1  0.5444110000000  0.5307530000000  0.5026310000000 1.0
C      1  0.5720710000000  0.5291710000000  0.4201660000000 1.0
C      1  0.5715060000000  0.4612900000000  0.4304270000000 1.0
C      1  0.5745950000000  0.4168620000000  0.5003970000000 1.0
C      1  0.5649880000000  0.4386290000000  0.5671910000000 1.0
C      1  0.5700510000000  0.5099030000000  0.5799550000000 1.0
C      1  0.5701340000000  0.5701210000000  0.5461050000000 1.0
C      1  0.5705500000000  0.5823530000000  0.4683160000000 1.0
C      1  0.5774290000000  0.5336720000000  0.5639470000000 1.0
C      1  0.5735730000000  0.5710750000000  0.5183390000000 1.0
C      1  0.5733590000000  0.5564810000000  0.4522200000000 1.0
C      1  0.5755470000000  0.5028800000000  0.4275250000000 1.0
C      1  0.5793640000000  0.4383660000000  0.4604120000000 1.0
C      1  0.5752040000000  0.4321850000000  0.5266580000000 1.0
C      1  0.5771610000000  0.4637920000000  0.5637220000000 1.0
C      1  0.5157500000000  0.5327010000000  0.5114470000000 1.0
C      1  0.5094500000000  0.5291860000000  0.4851310000000 1.0
C      1  0.5051640000000  0.5041960000000  0.4747200000000 1.0
C      1  0.5078960000000  0.4776670000000  0.4833820000000 1.0
C      1  0.5118090000000  0.4670360000000  0.5086880000000 1.0
C      1  0.5172290000000  0.4817970000000  0.5326410000000 1.0
C      1  0.5038290000000  0.5089000000000  0.5295720000000 1.0
C      1  0.4582720000000  0.4668700000000  0.5722800000000 1.0
C      1  0.4650720000000  0.5370530000000  0.5677590000000 1.0
C      1  0.4683400000000  0.5767290000000  0.5138540000000 1.0
C      1  0.4645480000000  0.5526840000000  0.4483440000000 1.0
C      1  0.4555030000000  0.4992110000000  0.4205750000000 1.0
C      1  0.4658550000000  0.4384000000000  0.4567880000000 1.0
C      1  0.4683560000000  0.4253290000000  0.5190530000000 1.0
C      1  0.5952870000000  0.5321280000000  0.4895940000000 1.0
C      1  0.5959730000000  0.5119540000000  0.4686250000000 1.0
C      1  0.5981410000000  0.4824620000000  0.4714220000000 1.0
C      1  0.5972910000000  0.4658190000000  0.4952420000000 1.0
C      1  0.5987590000000  0.4757600000000  0.5229300000000 1.0
C      1  0.5983890000000  0.5039930000000  0.5334740000000 1.0
C      1  0.5965230000000  0.5295270000000  0.5184460000000 1.0
C      1  0.5070270000000  0.4605670000000  0.4608520000000 1.0
C      1  0.5168380000000  0.4399460000000  0.5059890000000 1.0
C      1  0.5151900000000  0.4597330000000  0.5536330000000 1.0
C      1  0.5072290000000  0.5196570000000  0.5565340000000 1.0
C      1  0.5176810000000  0.5565880000000  0.5285440000000 1.0
C      1  0.5133000000000  0.5486270000000  0.4641970000000 1.0
C      1  0.5077570000000  0.5084230000000  0.4251700000000 1.0
C      1  0.4271220000000  0.5007750000000  0.4671460000000 1.0
C      1  0.4396360000000  0.4808350000000  0.4787000000000 1.0
C      1  0.4256960000000  0.4720390000000  0.5014600000000 1.0
C      1  0.4236670000000  0.4891940000000  0.5249960000000 1.0
C      1  0.4257330000000  0.5173600000000  0.5241400000000 1.0
C      1  0.4274500000000  0.5332000000000  0.5015940000000 1.0
C      1  0.4373010000000  0.5241570000000  0.4781170000000 1.0
C      1  0.5872950000000  0.5606610000000  0.4812400000000 1.0
C      1  0.5922170000000  0.5214600000000  0.4408830000000 1.0
C      1  0.5927510000000  0.4629490000000  0.4495630000000 1.0
C      1  0.5896250000000  0.4377930000000  0.4873600000000 1.0
C      1  0.5932400000000  0.4543690000000  0.5416930000000 1.0
C      1  0.5936610000000  0.5088290000000  0.5616190000000 1.0
C      1  0.5925560000000  0.5552830000000  0.5334370000000 1.0
C      1  0.5442770000000  0.5104620000000  0.5971080000000 1.0
C      1  0.5498590000000  0.5746100000000  0.5663250000000 1.0
C      1  0.5488380000000  0.5988860000000  0.4771230000000 1.0
C      1  0.5439700000000  0.5333080000000  0.4141590000000 1.0
C      1  0.5435850000000  0.4463800000000  0.4199720000000 1.0
C      1  0.5482230000000  0.4040560000000  0.4881150000000 1.0
C      1  0.5458050000000  0.4220850000000  0.5611840000000 1.0
C      1  0.4931080000000  0.5002430000000  0.5708330000000 1.0
C      1  0.4985120000000  0.5484770000000  0.5483180000000 1.0
C      1  0.4972400000000  0.5669030000000  0.4803530000000 1.0
C      1  0.4988570000000  0.5326130000000  0.4388520000000 1.0
C      1  0.4968480000000  0.4755440000000  0.4379250000000 1.0
C      1  0.5007980000000  0.4364170000000  0.4800230000000 1.0
C      1  0.4947850000000  0.4432740000000  0.5436520000000 1.0
C      1  0.4283030000000  0.5714010000000  0.4551660000000 1.0
C      1  0.4310440000000  0.5146290000000  0.4151060000000 1.0
C      1  0.4279420000000  0.4394460000000  0.4429050000000 1.0
C      1  0.4305020000000  0.4144700000000  0.5106390000000 1.0
C      1  0.4326700000000  0.4525940000000  0.5722000000000 1.0
C      1  0.4274420000000  0.5293600000000  0.5790150000000 1.0
C      1  0.4299250000000  0.5799140000000  0.5259650000000 1.0
C      1  0.4663470000000  0.4780600000000  0.5244350000000 1.0
C      1  0.4728250000000  0.5056780000000  0.5294860000000 1.0
C      1  0.4673200000000  0.5285470000000  0.5146870000000 1.0
C      1  0.4643050000000  0.5290410000000  0.4864220000000 1.0
C      1  0.4766160000000  0.5066900000000  0.4701410000000 1.0
C      1  0.4649460000000  0.4807950000000  0.4754120000000 1.0
C      1  0.4698900000000  0.4676080000000  0.4993860000000 1.0
C      1  0.4953180000000  0.5982520000000  0.5365110000000 1.0
C      1  0.4952980000000  0.5916580000000  0.4429690000000 1.0
C      1  0.4911360000000  0.5150120000000  0.4003280000000 1.0
C      1  0.4967260000000  0.4269950000000  0.4212550000000 1.0
C      1  0.4979510000000  0.3923320000000  0.5063390000000 1.0
C      1  0.4936160000000  0.4396120000000  0.5903260000000 1.0
C      1  0.4970170000000  0.5312190000000  0.6007250000000 1.0
C      1  0.4801340000000  0.5504950000000  0.5882660000000 1.0
C      1  0.4820050000000  0.6016800000000  0.5121700000000 1.0
C      1  0.4776090000000  0.5732040000000  0.4310040000000 1.0
C      1  0.4752690000000  0.4944450000000  0.3978350000000 1.0
C      1  0.4795130000000  0.4172640000000  0.4421440000000 1.0
C      1  0.4817330000000  0.4014650000000  0.5280750000000 1.0
C      1  0.4757590000000  0.4610780000000  0.5955520000000 1.0
C      1  0.4410260000000  0.4260880000000  0.4660450000000 1.0
C      1  0.4437040000000  0.4251800000000  0.5345170000000 1.0
C      1  0.4452270000000  0.4921840000000  0.5738390000000 1.0
C      1  0.4413710000000  0.5522010000000  0.5635010000000 1.0
C      1  0.4434040000000  0.5823770000000  0.4994520000000 1.0
C      1  0.4394210000000  0.5533740000000  0.4355640000000 1.0
C      1  0.4490890000000  0.4739760000000  0.4310830000000 1.0
C      1  0.4042020000000  0.4515270000000  0.5297540000000 1.0
C      1  0.4064260000000  0.4892230000000  0.5481950000000 1.0
C      1  0.4057380000000  0.5343910000000  0.5371670000000 1.0
C      1  0.4046720000000  0.5506830000000  0.4982610000000 1.0
C      1  0.4036890000000  0.5312890000000  0.4524870000000 1.0
C      1  0.4057540000000  0.4875750000000  0.4525020000000 1.0
C      1  0.4065900000000  0.4548340000000  0.4873610000000 1.0
C      1  0.5213780000000  0.4766850000000  0.5991240000000 1.0
C      1  0.5240320000000  0.5723930000000  0.5799540000000 1.0
C      1  0.5245640000000  0.6058100000000  0.4905980000000 1.0
C      1  0.5195720000000  0.5652260000000  0.4128410000000 1.0
C      1  0.5250230000000  0.4780740000000  0.4009890000000 1.0
C      1  0.5258030000000  0.4089370000000  0.4533650000000 1.0
C      1  0.5254750000000  0.4082560000000  0.5484640000000 1.0
END
