TITL C-2441157-2117-802 0.0351345405216331 125000 -10697.7891118454 0 0 82 (C1) n - 1
REM
REM in /home/bkarasulu/work/CARBON/AIRSS/Generating-Clusters/ReaxFF-fromJPCA2015/Units_Real/with-SteepDescent/Higher-Symm
REM
REM
REM
REM
REM
REM ./C.cell (1df0a924f5614ab8850e4351716899ee)
REM
REM compiler GCC version 9.2.1 20190827 (Red Hat 9.2.1-1)
REM options -cpp -mtune=generic -march=x86-64 -g -O0 -fpre-include=/usr/include/finclude/math-vector-fortran.h
REM seed 1956927411 562538319 279250970 861773190 -1857260375 447132084 1815096301 -810633648 1846108275 1965697472 -495124718 -727078590 2071538528 -1917385259 -20120042 -1940477245 -1034994019 2102053767 -2116271653 -7576522 -1468690276 -1046311269 -2103392360 -76780675 1528655961 -835955775 -572250019 -1492543105 -2054306337 371915018 624369612 -1783281583 -776719256
REM
CELL 1.54180   50.00000   50.00000   50.00000   90.00000   90.00000   90.00000
LATT -1
SFAC C  
C      1  0.5362610000000  0.5295390000000  0.5177080000000 1.0
C      1  0.5362970000000  0.4903700000000  0.5332000000000 1.0
C      1  0.5154700000000  0.4663250000000  0.4981070000000 1.0
C      1  0.5381150000000  0.4866380000000  0.4638560000000 1.0
C      1  0.5379880000000  0.5256100000000  0.4779390000000 1.0
C      1  0.4890420000000  0.5510900000000  0.4431550000000 1.0
C      1  0.4850740000000  0.5760980000000  0.5378080000000 1.0
C      1  0.4880650000000  0.4908330000000  0.5816690000000 1.0
C      1  0.4875130000000  0.4231390000000  0.5146100000000 1.0
C      1  0.4845480000000  0.4686740000000  0.4256070000000 1.0
C      1  0.5172980000000  0.5705200000000  0.4641020000000 1.0
C      1  0.5078100000000  0.5713990000000  0.5548550000000 1.0
C      1  0.5108800000000  0.4722670000000  0.5820900000000 1.0
C      1  0.5101480000000  0.4152350000000  0.4983400000000 1.0
C      1  0.5107220000000  0.4711740000000  0.4133010000000 1.0
C      1  0.4751460000000  0.4420510000000  0.4687180000000 1.0
C      1  0.4663390000000  0.5051860000000  0.4317320000000 1.0
C      1  0.4758240000000  0.5650350000000  0.4892570000000 1.0
C      1  0.4744720000000  0.5315760000000  0.5624970000000 1.0
C      1  0.4754370000000  0.4523300000000  0.5495590000000 1.0
C      1  0.4921700000000  0.5270300000000  0.5052560000000 1.0
C      1  0.4821840000000  0.5100820000000  0.5261150000000 1.0
C      1  0.4781100000000  0.4830620000000  0.5179870000000 1.0
C      1  0.4908570000000  0.4897230000000  0.4686710000000 1.0
C      1  0.4846040000000  0.5134120000000  0.4814920000000 1.0
C      1  0.5433550000000  0.5502120000000  0.4423070000000 1.0
C      1  0.5325250000000  0.5656640000000  0.5408550000000 1.0
C      1  0.5344520000000  0.4865420000000  0.5741940000000 1.0
C      1  0.5324850000000  0.4222570000000  0.5158970000000 1.0
C      1  0.5346120000000  0.4724820000000  0.4263120000000 1.0
C      1  0.5244690000000  0.5111850000000  0.4568630000000 1.0
C      1  0.5171520000000  0.5432200000000  0.5012370000000 1.0
C      1  0.5217980000000  0.5135900000000  0.5383890000000 1.0
C      1  0.5259570000000  0.4652370000000  0.5243670000000 1.0
C      1  0.5276660000000  0.4619690000000  0.4722000000000 1.0
C      1  0.5678450000000  0.4706050000000  0.5438140000000 1.0
C      1  0.5645850000000  0.4501040000000  0.4922160000000 1.0
C      1  0.5702980000000  0.5063720000000  0.4492670000000 1.0
C      1  0.5655760000000  0.5517800000000  0.4868950000000 1.0
C      1  0.5676500000000  0.5295340000000  0.5397670000000 1.0
C      1  0.4924340000000  0.5770950000000  0.5097810000000 1.0
C      1  0.4956140000000  0.5177270000000  0.5754480000000 1.0
C      1  0.4950150000000  0.4350470000000  0.5396640000000 1.0
C      1  0.4914890000000  0.4465890000000  0.4458470000000 1.0
C      1  0.4778200000000  0.5310360000000  0.4331320000000 1.0
C      1  0.5253380000000  0.5168720000000  0.5673550000000 1.0
C      1  0.5253940000000  0.4405570000000  0.5401220000000 1.0
C      1  0.5206300000000  0.4511880000000  0.4464220000000 1.0
C      1  0.5354660000000  0.5244740000000  0.4323210000000 1.0
C      1  0.5201840000000  0.5690520000000  0.5141860000000 1.0
C      1  0.5676900000000  0.4834720000000  0.4676140000000 1.0
C      1  0.5670440000000  0.5287100000000  0.4693750000000 1.0
C      1  0.5631150000000  0.5458340000000  0.5153890000000 1.0
C      1  0.5636650000000  0.4989950000000  0.5393970000000 1.0
C      1  0.5737530000000  0.4667190000000  0.5134620000000 1.0
C      1  0.5512160000000  0.4992310000000  0.4282840000000 1.0
C      1  0.5447180000000  0.5654220000000  0.4663260000000 1.0
C      1  0.5457880000000  0.5423280000000  0.5538040000000 1.0
C      1  0.5447170000000  0.4637040000000  0.5602430000000 1.0
C      1  0.5469320000000  0.4299620000000  0.4942230000000 1.0
C      1  0.4882690000000  0.5520560000000  0.5507320000000 1.0
C      1  0.4898760000000  0.4711940000000  0.5625270000000 1.0
C      1  0.4910810000000  0.4345960000000  0.4901760000000 1.0
C      1  0.4855440000000  0.4900530000000  0.4427410000000 1.0
C      1  0.4922920000000  0.5647680000000  0.4663080000000 1.0
C      1  0.4433150000000  0.4639000000000  0.5045040000000 1.0
C      1  0.4413270000000  0.4818490000000  0.4681540000000 1.0
C      1  0.4441750000000  0.5255520000000  0.4752860000000 1.0
C      1  0.4404780000000  0.5324150000000  0.5161160000000 1.0
C      1  0.4391940000000  0.4946310000000  0.5342900000000 1.0
C      1  0.4564410000000  0.5191380000000  0.5402440000000 1.0
C      1  0.4530270000000  0.4669930000000  0.5323470000000 1.0
C      1  0.4486510000000  0.4558890000000  0.4773190000000 1.0
C      1  0.4433170000000  0.5062760000000  0.4543530000000 1.0
C      1  0.4516960000000  0.5462450000000  0.4925810000000 1.0
C      1  0.4747450000000  0.4872260000000  0.4898810000000 1.0
C      1  0.3790470000000  0.4980110000000  0.4966250000000 1.0
C      1  0.4015670000000  0.5030390000000  0.5038420000000 1.0
C      1  0.4267820000000  0.5081560000000  0.5122780000000 1.0
C      1  0.5438470000000  0.5082180000000  0.4993030000000 1.0
C      1  0.5170960000000  0.4946870000000  0.4978760000000 1.0
C      1  0.5705460000000  0.4894340000000  0.4961960000000 1.0
END
