TITL C-2441164-471-452 0.00255033896637818 125000 -7736.17558742369 0 0 51 (Cs) n - 1
REM
REM in /home/bkarasulu/work/CARBON/AIRSS/Generating-Clusters/ReaxFF-fromJPCA2015/Units_Real/with-SteepDescent/Higher-Symm
REM
REM
REM
REM
REM
REM ./C.cell (1df0a924f5614ab8850e4351716899ee)
REM
REM compiler GCC version 9.2.1 20190827 (Red Hat 9.2.1-1)
REM options -cpp -mtune=generic -march=x86-64 -g -O0 -fpre-include=/usr/include/finclude/math-vector-fortran.h
REM seed 371559328 -1291961305 1974344154 1672140689 1308050688 -691537399 1495031481 1898201060 -796307913 1956231267 1587580068 1907234603 1487374149 294972397 630441328 1252116242 2010155545 -53521719 550141691 -376891554 850808487 -1769271719 556043768 -1494311339 1554932602 115496803 -898938626 1880122719 -1921039469 -111114081 53892003 1624987061 -1514070680
REM
CELL 1.54180   50.00000   50.00000   50.00000   90.00000   90.00000   90.00000
LATT -1
SFAC C  
C      1  0.5521770000000  0.4998100000000  0.4715490000000 1.0
C      1  0.5535860000000  0.5241600000000  0.5140970000000 1.0
C      1  0.5520700000000  0.4752930000000  0.5141670000000 1.0
C      1  0.5521790000000  0.4998100000000  0.5284510000000 1.0
C      1  0.5535860000000  0.5241600000000  0.4859030000000 1.0
C      1  0.5520690000000  0.4752950000000  0.4858320000000 1.0
C      1  0.4650490000000  0.5020190000000  0.5466240000000 1.0
C      1  0.4602080000000  0.4559590000000  0.4761270000000 1.0
C      1  0.4526570000000  0.5469670000000  0.4848220000000 1.0
C      1  0.4650530000000  0.5020200000000  0.4533770000000 1.0
C      1  0.4602070000000  0.4559540000000  0.5238730000000 1.0
C      1  0.4526570000000  0.5469670000000  0.5151780000000 1.0
C      1  0.4874090000000  0.4692170000000  0.4831670000000 1.0
C      1  0.4991200000000  0.5186190000000  0.4856100000000 1.0
C      1  0.4883020000000  0.4959230000000  0.5293050000000 1.0
C      1  0.4874070000000  0.4692100000000  0.5168330000000 1.0
C      1  0.4991200000000  0.5186230000000  0.5143930000000 1.0
C      1  0.4883030000000  0.4959200000000  0.4706990000000 1.0
C      1  0.5240290000000  0.5214000000000  0.4354130000000 1.0
C      1  0.5232060000000  0.5454770000000  0.5469340000000 1.0
C      1  0.5246010000000  0.4343960000000  0.5149040000000 1.0
C      1  0.5240300000000  0.5213990000000  0.5645880000000 1.0
C      1  0.5232090000000  0.5454760000000  0.4530620000000 1.0
C      1  0.5246030000000  0.4344020000000  0.4850830000000 1.0
C      1  0.4962680000000  0.5210530000000  0.4325100000000 1.0
C      1  0.5001260000000  0.5454070000000  0.5284930000000 1.0
C      1  0.4980580000000  0.4394390000000  0.5247300000000 1.0
C      1  0.4962670000000  0.5210510000000  0.5674890000000 1.0
C      1  0.5001260000000  0.5454090000000  0.4715080000000 1.0
C      1  0.4980810000000  0.4394350000000  0.4752770000000 1.0
C      1  0.5430280000000  0.5495840000000  0.5248850000000 1.0
C      1  0.5412220000000  0.4537420000000  0.5302930000000 1.0
C      1  0.5402370000000  0.4968360000000  0.4451500000000 1.0
C      1  0.5430280000000  0.5495850000000  0.4751150000000 1.0
C      1  0.5412210000000  0.4537220000000  0.4697310000000 1.0
C      1  0.5402350000000  0.4968100000000  0.5548490000000 1.0
C      1  0.4722970000000  0.5486470000000  0.5367520000000 1.0
C      1  0.4719540000000  0.4302110000000  0.5148440000000 1.0
C      1  0.4703970000000  0.5285120000000  0.4408710000000 1.0
C      1  0.4722940000000  0.5486470000000  0.4632470000000 1.0
C      1  0.4719510000000  0.4302030000000  0.4851600000000 1.0
C      1  0.4703960000000  0.5285120000000  0.5591300000000 1.0
C      1  0.4342690000000  0.5236910000000  0.5148800000000 1.0
C      1  0.4390500000000  0.4738720000000  0.5148770000000 1.0
C      1  0.4409700000000  0.4991290000000  0.4703670000000 1.0
C      1  0.4342700000000  0.5236910000000  0.4851190000000 1.0
C      1  0.4390530000000  0.4738710000000  0.4851230000000 1.0
C      1  0.4409680000000  0.4991300000000  0.5296330000000 1.0
C      1  0.5349410000000  0.4677820000000  0.5563980000000 1.0
C      1  0.5349300000000  0.4677690000000  0.4435790000000 1.0
C      1  0.5387810000000  0.5657840000000  0.5000000000000 1.0
END
