TITL C-2441154-10-300 0.0091779323296033 125000 -12494.6102206442 0 0 85 (C1) n - 1
REM
REM in /home/bkarasulu/work/CARBON/AIRSS/Generating-Clusters/ReaxFF-fromJPCA2015/Units_Real/with-SteepDescent/Higher-Symm
REM
REM
REM
REM
REM
REM ./C.cell (1df0a924f5614ab8850e4351716899ee)
REM
REM compiler GCC version 9.2.1 20190827 (Red Hat 9.2.1-1)
REM options -cpp -mtune=generic -march=x86-64 -g -O0 -fpre-include=/usr/include/finclude/math-vector-fortran.h
REM seed -1726020976 -313134396 1482233543 -136271672 -1754620299 -1551620782 -436043439 682338365 457522844 1259963852 -679675254 -1808745106 146876054 -1295475653 -418063549 -1064513840 -1688360757 9203453 1217357028 1474534214 589443633 1753820357 -1852582209 491203828 -543381008 -1162800221 1157344079 228463418 -707076339 129270346 1652089823 607890675 -286335594
REM
CELL 1.54180   50.00000   50.00000   50.00000   90.00000   90.00000   90.00000
LATT -1
SFAC C  
C      1  0.4231550000000  0.4773940000000  0.5155200000000 1.0
C      1  0.4834340000000  0.4794860000000  0.4234060000000 1.0
C      1  0.5732540000000  0.4771220000000  0.4846480000000 1.0
C      1  0.5176190000000  0.4817120000000  0.5775810000000 1.0
C      1  0.5078810000000  0.5001220000000  0.4692220000000 1.0
C      1  0.5321510000000  0.5006200000000  0.5085420000000 1.0
C      1  0.4916390000000  0.5020110000000  0.5302450000000 1.0
C      1  0.4673420000000  0.4969870000000  0.4917080000000 1.0
C      1  0.5040870000000  0.4736310000000  0.4788760000000 1.0
C      1  0.5201440000000  0.4736540000000  0.5037560000000 1.0
C      1  0.4946850000000  0.4742010000000  0.5217150000000 1.0
C      1  0.4799000000000  0.4716240000000  0.4960230000000 1.0
C      1  0.5319690000000  0.5240570000000  0.5535650000000 1.0
C      1  0.4433540000000  0.5212920000000  0.5323480000000 1.0
C      1  0.4649690000000  0.5246500000000  0.4457450000000 1.0
C      1  0.5546590000000  0.5219410000000  0.4687560000000 1.0
C      1  0.4481760000000  0.5632360000000  0.5192340000000 1.0
C      1  0.4889010000000  0.5636700000000  0.4598440000000 1.0
C      1  0.5532230000000  0.5634090000000  0.4818360000000 1.0
C      1  0.5132270000000  0.5629270000000  0.5400360000000 1.0
C      1  0.5707390000000  0.5495550000000  0.5008650000000 1.0
C      1  0.5009770000000  0.5505740000000  0.5643790000000 1.0
C      1  0.4301710000000  0.5474070000000  0.5012320000000 1.0
C      1  0.4993280000000  0.5478190000000  0.4368400000000 1.0
C      1  0.4718880000000  0.4237660000000  0.5169630000000 1.0
C      1  0.4935660000000  0.4262940000000  0.4701520000000 1.0
C      1  0.5141690000000  0.4238130000000  0.4919550000000 1.0
C      1  0.4999270000000  0.4196730000000  0.5156330000000 1.0
C      1  0.5300330000000  0.4744150000000  0.4266110000000 1.0
C      1  0.5700120000000  0.4701170000000  0.5287930000000 1.0
C      1  0.4721600000000  0.4733560000000  0.5708660000000 1.0
C      1  0.4322170000000  0.4722360000000  0.4709660000000 1.0
C      1  0.4659030000000  0.4349580000000  0.4687530000000 1.0
C      1  0.5389890000000  0.4372900000000  0.4601930000000 1.0
C      1  0.5300580000000  0.4419370000000  0.5353680000000 1.0
C      1  0.4731360000000  0.4365220000000  0.5423170000000 1.0
C      1  0.5362310000000  0.5575750000000  0.4571750000000 1.0
C      1  0.5346820000000  0.5535450000000  0.5218400000000 1.0
C      1  0.4659480000000  0.5558610000000  0.5426710000000 1.0
C      1  0.4693500000000  0.5553820000000  0.4802990000000 1.0
C      1  0.5648190000000  0.4807660000000  0.4565180000000 1.0
C      1  0.5436800000000  0.4825200000000  0.5640450000000 1.0
C      1  0.4366950000000  0.4774030000000  0.5423770000000 1.0
C      1  0.4567060000000  0.4787140000000  0.4370010000000 1.0
C      1  0.4765260000000  0.5364110000000  0.5612160000000 1.0
C      1  0.4392030000000  0.5361770000000  0.4760320000000 1.0
C      1  0.5260650000000  0.5365340000000  0.4399100000000 1.0
C      1  0.5576020000000  0.5355050000000  0.5219770000000 1.0
C      1  0.4455630000000  0.5027630000000  0.5539370000000 1.0
C      1  0.4443660000000  0.5044070000000  0.4457600000000 1.0
C      1  0.5543920000000  0.5058580000000  0.4447050000000 1.0
C      1  0.5556990000000  0.5074120000000  0.5525960000000 1.0
C      1  0.5306850000000  0.5049620000000  0.4253120000000 1.0
C      1  0.5738590000000  0.5002110000000  0.5298700000000 1.0
C      1  0.4696360000000  0.5036500000000  0.5739410000000 1.0
C      1  0.4269880000000  0.5100220000000  0.4709530000000 1.0
C      1  0.4829870000000  0.5268600000000  0.4232830000000 1.0
C      1  0.5772700000000  0.5252330000000  0.4871170000000 1.0
C      1  0.5141330000000  0.5279130000000  0.5763960000000 1.0
C      1  0.4191850000000  0.5240370000000  0.5165120000000 1.0
C      1  0.5640000000000  0.4574340000000  0.5036950000000 1.0
C      1  0.4981910000000  0.4619300000000  0.5707320000000 1.0
C      1  0.4314690000000  0.4582090000000  0.4954740000000 1.0
C      1  0.5048020000000  0.4609200000000  0.4289020000000 1.0
C      1  0.4987460000000  0.5038120000000  0.5805430000000 1.0
C      1  0.4167720000000  0.5007730000000  0.4991410000000 1.0
C      1  0.4998350000000  0.5032780000000  0.4191250000000 1.0
C      1  0.5802610000000  0.5001370000000  0.5012930000000 1.0
C      1  0.5014590000000  0.4486360000000  0.5446130000000 1.0
C      1  0.4597910000000  0.4438030000000  0.4960990000000 1.0
C      1  0.5089830000000  0.4480460000000  0.4572290000000 1.0
C      1  0.5359640000000  0.4446600000000  0.5066440000000 1.0
C      1  0.4553260000000  0.4576730000000  0.5530490000000 1.0
C      1  0.4498200000000  0.4565160000000  0.4547010000000 1.0
C      1  0.5499230000000  0.4593580000000  0.4436590000000 1.0
C      1  0.5501080000000  0.4593100000000  0.5478150000000 1.0
C      1  0.5178850000000  0.5139200000000  0.5302690000000 1.0
C      1  0.4708360000000  0.5157240000000  0.5139990000000 1.0
C      1  0.4826220000000  0.5139310000000  0.4726840000000 1.0
C      1  0.5303090000000  0.5130490000000  0.4822580000000 1.0
C      1  0.4877640000000  0.5708250000000  0.5295690000000 1.0
C      1  0.4713990000000  0.5724900000000  0.5048610000000 1.0
C      1  0.5135100000000  0.5712660000000  0.4716570000000 1.0
C      1  0.5301960000000  0.5704340000000  0.4967020000000 1.0
C      1  0.4828420000000  0.5346250000000  0.4940330000000 1.0
END
