TITL C-2441166-8118-457 0.00641695744679578 125000 -10853.995809173 0 0 74 (C1) n - 1
REM
REM in /home/bkarasulu/work/CARBON/AIRSS/Generating-Clusters/ReaxFF-fromJPCA2015/Units_Real/with-SteepDescent/Higher-Symm
REM
REM
REM
REM
REM
REM ./C.cell (1df0a924f5614ab8850e4351716899ee)
REM
REM compiler GCC version 9.2.1 20190827 (Red Hat 9.2.1-1)
REM options -cpp -mtune=generic -march=x86-64 -g -O0 -fpre-include=/usr/include/finclude/math-vector-fortran.h
REM seed 1406440988 1907292630 -2006864577 351845239 1625252251 216415885 -493629064 -271490981 -1744900269 -950028748 309417860 1711723489 -1855067210 -1964694527 1522651162 -1289446050 596691531 -2061940168 -477490334 -1322957958 -1561736494 -986096222 2075417589 -1291047965 577802215 790914617 -1328875908 -1318376610 1337906497 -885481652 1650002529 913648657 1877605826
REM
CELL 1.54180   50.00000   50.00000   50.00000   90.00000   90.00000   90.00000
LATT -1
SFAC C  
C      1  0.5030780000000  0.4821290000000  0.4279310000000 1.0
C      1  0.4977740000000  0.4481490000000  0.4516330000000 1.0
C      1  0.4962260000000  0.4265440000000  0.4862340000000 1.0
C      1  0.4949460000000  0.4310760000000  0.5284700000000 1.0
C      1  0.4974810000000  0.4559730000000  0.5616850000000 1.0
C      1  0.4943500000000  0.4964560000000  0.5747270000000 1.0
C      1  0.5022860000000  0.5361990000000  0.5638350000000 1.0
C      1  0.5000360000000  0.5665950000000  0.5305080000000 1.0
C      1  0.4951820000000  0.5770940000000  0.4909450000000 1.0
C      1  0.4949910000000  0.5571700000000  0.4526070000000 1.0
C      1  0.5006540000000  0.5262090000000  0.4262000000000 1.0
C      1  0.5538720000000  0.5539880000000  0.5138440000000 1.0
C      1  0.5572210000000  0.5428410000000  0.4872880000000 1.0
C      1  0.5585840000000  0.5300240000000  0.4635880000000 1.0
C      1  0.5606690000000  0.5047670000000  0.4518610000000 1.0
C      1  0.5602230000000  0.4777510000000  0.4567480000000 1.0
C      1  0.5531740000000  0.4552370000000  0.4725270000000 1.0
C      1  0.5567740000000  0.4572470000000  0.5004060000000 1.0
C      1  0.5567970000000  0.4622760000000  0.5270250000000 1.0
C      1  0.5621320000000  0.4835920000000  0.5446050000000 1.0
C      1  0.5541070000000  0.5130620000000  0.5503560000000 1.0
C      1  0.5590080000000  0.5344430000000  0.5334980000000 1.0
C      1  0.4789370000000  0.4382730000000  0.5503710000000 1.0
C      1  0.4789760000000  0.4734660000000  0.5740040000000 1.0
C      1  0.4812510000000  0.5212960000000  0.5758000000000 1.0
C      1  0.4845950000000  0.5539030000000  0.5502820000000 1.0
C      1  0.4797690000000  0.5789190000000  0.5146450000000 1.0
C      1  0.4788340000000  0.5744870000000  0.4682480000000 1.0
C      1  0.4784480000000  0.5416610000000  0.4352070000000 1.0
C      1  0.4872410000000  0.5031530000000  0.4163160000000 1.0
C      1  0.4811950000000  0.4648340000000  0.4361030000000 1.0
C      1  0.4796390000000  0.4305730000000  0.4634530000000 1.0
C      1  0.4786290000000  0.4211410000000  0.5080830000000 1.0
C      1  0.4542020000000  0.4769400000000  0.4382230000000 1.0
C      1  0.4520440000000  0.4319290000000  0.4724950000000 1.0
C      1  0.4515480000000  0.4265900000000  0.5005180000000 1.0
C      1  0.4512920000000  0.4477260000000  0.5511070000000 1.0
C      1  0.4508140000000  0.4709640000000  0.5675710000000 1.0
C      1  0.4536330000000  0.5259540000000  0.5687180000000 1.0
C      1  0.4557540000000  0.5487950000000  0.5522470000000 1.0
C      1  0.4526140000000  0.5730640000000  0.5057280000000 1.0
C      1  0.4518630000000  0.5708280000000  0.4772570000000 1.0
C      1  0.4530710000000  0.5273920000000  0.4388150000000 1.0
C      1  0.4594360000000  0.5023890000000  0.4255820000000 1.0
C      1  0.4324670000000  0.5270810000000  0.4593490000000 1.0
C      1  0.4196910000000  0.5012770000000  0.4659930000000 1.0
C      1  0.4324910000000  0.4759440000000  0.4576380000000 1.0
C      1  0.4318690000000  0.4529300000000  0.4754000000000 1.0
C      1  0.4322530000000  0.4482050000000  0.5051330000000 1.0
C      1  0.4329760000000  0.4600350000000  0.5316250000000 1.0
C      1  0.4324860000000  0.4846970000000  0.5490480000000 1.0
C      1  0.4336530000000  0.5136910000000  0.5505950000000 1.0
C      1  0.4347580000000  0.5387440000000  0.5340570000000 1.0
C      1  0.4323470000000  0.5519940000000  0.5085030000000 1.0
C      1  0.4324940000000  0.5488800000000  0.4785920000000 1.0
C      1  0.5233000000000  0.4601140000000  0.4669320000000 1.0
C      1  0.5148120000000  0.4478660000000  0.4927090000000 1.0
C      1  0.5186080000000  0.4480470000000  0.5215890000000 1.0
C      1  0.5208510000000  0.4654110000000  0.5462290000000 1.0
C      1  0.5170540000000  0.4930350000000  0.5568560000000 1.0
C      1  0.5245770000000  0.5201230000000  0.5514940000000 1.0
C      1  0.5240140000000  0.5534440000000  0.5181220000000 1.0
C      1  0.5148630000000  0.5557160000000  0.4908140000000 1.0
C      1  0.5200380000000  0.5453660000000  0.4638550000000 1.0
C      1  0.5218710000000  0.5199720000000  0.4469150000000 1.0
C      1  0.5228170000000  0.4905800000000  0.4475970000000 1.0
C      1  0.4151080000000  0.5002060000000  0.4964240000000 1.0
C      1  0.4951210000000  0.5007680000000  0.5008430000000 1.0
C      1  0.5970040000000  0.5011680000000  0.5000580000000 1.0
C      1  0.5723950000000  0.5024210000000  0.4997140000000 1.0
C      1  0.4699590000000  0.5003840000000  0.5008080000000 1.0
C      1  0.5205080000000  0.5016500000000  0.5003160000000 1.0
C      1  0.4445950000000  0.5001670000000  0.4998360000000 1.0
C      1  0.5461680000000  0.5028650000000  0.4996540000000 1.0
END
