TITL C-2441161-5029-533 0.0353330940311132 125000 -19741.2365992802 0 0 133 (C1) n - 1
REM
REM in /home/bkarasulu/work/CARBON/AIRSS/Generating-Clusters/ReaxFF-fromJPCA2015/Units_Real/with-SteepDescent/Higher-Symm
REM
REM
REM
REM
REM
REM ./C.cell (1df0a924f5614ab8850e4351716899ee)
REM
REM compiler GCC version 9.2.1 20190827 (Red Hat 9.2.1-1)
REM options -cpp -mtune=generic -march=x86-64 -g -O0 -fpre-include=/usr/include/finclude/math-vector-fortran.h
REM seed -264227577 1255859421 -1230945328 219586412 -1203736394 -1291860929 160084081 -114348053 1529784902 -750461652 923669795 1314166854 -763873031 2131105724 -856258042 722878122 410696391 -173045189 175309434 -318985978 -237703165 88529335 -245736629 -378581121 -1479954880 -1122989329 -1266507184 -1494501000 1060801122 1297180938 739519747 -1620839011 -988400589
REM
CELL 1.54180   50.00000   50.00000   50.00000   90.00000   90.00000   90.00000
LATT -1
SFAC C  
C      1  0.5122850000000  0.5884600000000  0.5524710000000 1.0
C      1  0.5728500000000  0.5394220000000  0.5582700000000 1.0
C      1  0.5780760000000  0.4669380000000  0.5470910000000 1.0
C      1  0.5221290000000  0.4208270000000  0.5625890000000 1.0
C      1  0.4529950000000  0.4325770000000  0.5478400000000 1.0
C      1  0.4135970000000  0.4964000000000  0.5495490000000 1.0
C      1  0.4414440000000  0.5646650000000  0.5482500000000 1.0
C      1  0.4632820000000  0.4929190000000  0.5940910000000 1.0
C      1  0.4727310000000  0.5204270000000  0.5823180000000 1.0
C      1  0.5018670000000  0.5349980000000  0.5888380000000 1.0
C      1  0.5289400000000  0.5223850000000  0.5825460000000 1.0
C      1  0.5329030000000  0.4899480000000  0.5896310000000 1.0
C      1  0.5128700000000  0.4679970000000  0.5901870000000 1.0
C      1  0.4833570000000  0.4700020000000  0.5945980000000 1.0
C      1  0.5802510000000  0.5151820000000  0.5452780000000 1.0
C      1  0.5607010000000  0.4443150000000  0.5462020000000 1.0
C      1  0.5039230000000  0.4217440000000  0.5391720000000 1.0
C      1  0.4417470000000  0.4605820000000  0.5437790000000 1.0
C      1  0.4190150000000  0.5246230000000  0.5467450000000 1.0
C      1  0.4659950000000  0.5789570000000  0.5477490000000 1.0
C      1  0.5382810000000  0.5777110000000  0.5449400000000 1.0
C      1  0.4244610000000  0.4623240000000  0.5204290000000 1.0
C      1  0.4169180000000  0.5370910000000  0.5209820000000 1.0
C      1  0.4758510000000  0.5880840000000  0.5228600000000 1.0
C      1  0.5410240000000  0.5855890000000  0.5173250000000 1.0
C      1  0.5892540000000  0.5035430000000  0.5207500000000 1.0
C      1  0.5536480000000  0.4324960000000  0.5211700000000 1.0
C      1  0.4838760000000  0.4107500000000  0.5198690000000 1.0
C      1  0.4660530000000  0.4506480000000  0.4460940000000 1.0
C      1  0.4429370000000  0.4858210000000  0.4281140000000 1.0
C      1  0.4592180000000  0.5379250000000  0.4503170000000 1.0
C      1  0.5067290000000  0.5556520000000  0.4503960000000 1.0
C      1  0.5476720000000  0.5342830000000  0.4295480000000 1.0
C      1  0.5581080000000  0.4855110000000  0.4313830000000 1.0
C      1  0.5205220000000  0.4480570000000  0.4473370000000 1.0
C      1  0.4398760000000  0.4872770000000  0.5810670000000 1.0
C      1  0.4523710000000  0.5380490000000  0.5772010000000 1.0
C      1  0.4996220000000  0.5592380000000  0.5784820000000 1.0
C      1  0.5530140000000  0.5404420000000  0.5783520000000 1.0
C      1  0.5560950000000  0.4849200000000  0.5766600000000 1.0
C      1  0.5240220000000  0.4419310000000  0.5829860000000 1.0
C      1  0.4767070000000  0.4482730000000  0.5787940000000 1.0
C      1  0.4062850000000  0.4991190000000  0.4963820000000 1.0
C      1  0.4397650000000  0.5725290000000  0.4969470000000 1.0
C      1  0.5183860000000  0.5981980000000  0.5056410000000 1.0
C      1  0.5776730000000  0.5368810000000  0.4934970000000 1.0
C      1  0.5836800000000  0.4604470000000  0.4960470000000 1.0
C      1  0.5215170000000  0.4084370000000  0.4958950000000 1.0
C      1  0.4425810000000  0.4243460000000  0.4977230000000 1.0
C      1  0.4481860000000  0.5645480000000  0.4500280000000 1.0
C      1  0.5203320000000  0.5811390000000  0.4575430000000 1.0
C      1  0.5775320000000  0.5378030000000  0.4445050000000 1.0
C      1  0.5728330000000  0.4650860000000  0.4476390000000 1.0
C      1  0.5184120000000  0.4195010000000  0.4509480000000 1.0
C      1  0.4457280000000  0.4296150000000  0.4508670000000 1.0
C      1  0.4219940000000  0.4987940000000  0.4468760000000 1.0
C      1  0.5130630000000  0.4716540000000  0.4612100000000 1.0
C      1  0.4859700000000  0.4676060000000  0.4693330000000 1.0
C      1  0.4690210000000  0.4910300000000  0.4722390000000 1.0
C      1  0.4751150000000  0.5204090000000  0.4687780000000 1.0
C      1  0.5012990000000  0.5315220000000  0.4637510000000 1.0
C      1  0.5245910000000  0.5199890000000  0.4734850000000 1.0
C      1  0.5295800000000  0.4920750000000  0.4725700000000 1.0
C      1  0.4204870000000  0.4447080000000  0.4462480000000 1.0
C      1  0.4206330000000  0.5268050000000  0.4437550000000 1.0
C      1  0.4732960000000  0.5779850000000  0.4458550000000 1.0
C      1  0.5476770000000  0.5814330000000  0.4465310000000 1.0
C      1  0.5923650000000  0.5129640000000  0.4434890000000 1.0
C      1  0.5601650000000  0.4407530000000  0.4436130000000 1.0
C      1  0.4913700000000  0.4161830000000  0.4439700000000 1.0
C      1  0.5290390000000  0.5229270000000  0.5017930000000 1.0
C      1  0.5359940000000  0.4919010000000  0.5007200000000 1.0
C      1  0.5178200000000  0.4706900000000  0.5096060000000 1.0
C      1  0.4907230000000  0.4684400000000  0.4988820000000 1.0
C      1  0.4717930000000  0.4902720000000  0.5004890000000 1.0
C      1  0.4750740000000  0.5193530000000  0.5013620000000 1.0
C      1  0.4989770000000  0.5291310000000  0.5132150000000 1.0
C      1  0.4809970000000  0.5883460000000  0.4724150000000 1.0
C      1  0.5629150000000  0.5748910000000  0.4714550000000 1.0
C      1  0.5954450000000  0.4995320000000  0.4701420000000 1.0
C      1  0.5578630000000  0.4275580000000  0.4700820000000 1.0
C      1  0.4787260000000  0.4077440000000  0.4689750000000 1.0
C      1  0.4144730000000  0.4577860000000  0.4720700000000 1.0
C      1  0.4159250000000  0.5400410000000  0.4699990000000 1.0
C      1  0.4708670000000  0.5172400000000  0.4157410000000 1.0
C      1  0.4952740000000  0.5334890000000  0.4171340000000 1.0
C      1  0.5233460000000  0.5223470000000  0.4178130000000 1.0
C      1  0.5335810000000  0.4942780000000  0.4158400000000 1.0
C      1  0.5206280000000  0.4686150000000  0.4124330000000 1.0
C      1  0.4912180000000  0.4661600000000  0.4154680000000 1.0
C      1  0.4709540000000  0.4886550000000  0.4177300000000 1.0
C      1  0.5462670000000  0.4341710000000  0.5677790000000 1.0
C      1  0.4780360000000  0.4290450000000  0.5608170000000 1.0
C      1  0.4233600000000  0.4735270000000  0.5653340000000 1.0
C      1  0.4330580000000  0.5427090000000  0.5650250000000 1.0
C      1  0.4881910000000  0.5811670000000  0.5672940000000 1.0
C      1  0.5560340000000  0.5618690000000  0.5609420000000 1.0
C      1  0.5785110000000  0.4914050000000  0.5624710000000 1.0
C      1  0.4669010000000  0.4837550000000  0.5445150000000 1.0
C      1  0.4715400000000  0.5120650000000  0.5519660000000 1.0
C      1  0.4950730000000  0.5265630000000  0.5409660000000 1.0
C      1  0.5223850000000  0.5195950000000  0.5519970000000 1.0
C      1  0.5309400000000  0.4959730000000  0.5394080000000 1.0
C      1  0.5179420000000  0.4702960000000  0.5394420000000 1.0
C      1  0.4901810000000  0.4759150000000  0.5421060000000 1.0
C      1  0.4102040000000  0.4860560000000  0.4706250000000 1.0
C      1  0.4300290000000  0.5641730000000  0.4722790000000 1.0
C      1  0.5080200000000  0.5951890000000  0.4789570000000 1.0
C      1  0.5797770000000  0.5520380000000  0.4694750000000 1.0
C      1  0.5879970000000  0.4727350000000  0.4707230000000 1.0
C      1  0.5348390000000  0.4116600000000  0.4719200000000 1.0
C      1  0.4520300000000  0.4146230000000  0.4732520000000 1.0
C      1  0.4307810000000  0.5613360000000  0.5216140000000 1.0
C      1  0.5016250000000  0.5966230000000  0.5272550000000 1.0
C      1  0.5529100000000  0.5402090000000  0.5055920000000 1.0
C      1  0.5870440000000  0.4750850000000  0.5207360000000 1.0
C      1  0.5286190000000  0.4184850000000  0.5217920000000 1.0
C      1  0.4568850000000  0.4190310000000  0.5222290000000 1.0
C      1  0.4102550000000  0.4860450000000  0.5217160000000 1.0
C      1  0.4834050000000  0.4394340000000  0.4261950000000 1.0
C      1  0.4334960000000  0.4594000000000  0.4256990000000 1.0
C      1  0.4455390000000  0.5310890000000  0.4263860000000 1.0
C      1  0.4898360000000  0.5609110000000  0.4275490000000 1.0
C      1  0.5405800000000  0.5608220000000  0.4284970000000 1.0
C      1  0.5750950000000  0.5054340000000  0.4217790000000 1.0
C      1  0.5380630000000  0.4474670000000  0.4245330000000 1.0
C      1  0.4934900000000  0.4054030000000  0.4937180000000 1.0
C      1  0.4257650000000  0.4473520000000  0.4966880000000 1.0
C      1  0.4103660000000  0.5267580000000  0.4950290000000 1.0
C      1  0.4652390000000  0.5845970000000  0.4964030000000 1.0
C      1  0.5525270000000  0.5680940000000  0.4980100000000 1.0
C      1  0.5922310000000  0.5140210000000  0.4945950000000 1.0
C      1  0.5665450000000  0.4379390000000  0.4957150000000 1.0
END
