TITL C-2441169-1362-276 0.0202243715757577 125000 -19810.3013732754 0 0 136 (C1) n - 1
REM
REM in /home/bkarasulu/work/CARBON/AIRSS/Generating-Clusters/ReaxFF-fromJPCA2015/Units_Real/with-SteepDescent/Higher-Symm
REM
REM
REM
REM
REM
REM ./C.cell (1df0a924f5614ab8850e4351716899ee)
REM
REM compiler GCC version 9.2.1 20190827 (Red Hat 9.2.1-1)
REM options -cpp -mtune=generic -march=x86-64 -g -O0 -fpre-include=/usr/include/finclude/math-vector-fortran.h
REM seed -1241196440 -552029858 2071816828 -867933795 -923068968 -1241304826 -49148451 -1664913651 -1717183884 -1037725318 -854519029 397071661 -1967964324 1042581124 85149957 -458948059 -921020099 -24683650 -1420248021 -1304396334 1788259473 -1424307736 -2062723506 -187318647 -2007617892 -336859246 666467204 124813930 1482175432 -1941085285 879451227 360580543 1759853161
REM
CELL 1.54180   50.00000   50.00000   50.00000   90.00000   90.00000   90.00000
LATT -1
SFAC C  
C      1  0.4778660000000  0.5504300000000  0.5337970000000 1.0
C      1  0.4634640000000  0.5402590000000  0.5107160000000 1.0
C      1  0.4617600000000  0.5510440000000  0.4845420000000 1.0
C      1  0.4810820000000  0.5428000000000  0.4653520000000 1.0
C      1  0.5054970000000  0.5519450000000  0.4610750000000 1.0
C      1  0.5299530000000  0.5427350000000  0.4715250000000 1.0
C      1  0.5379410000000  0.5399470000000  0.5014580000000 1.0
C      1  0.5277700000000  0.5504670000000  0.5256030000000 1.0
C      1  0.5045140000000  0.5408810000000  0.5397070000000 1.0
C      1  0.4759720000000  0.5898430000000  0.4647190000000 1.0
C      1  0.5047960000000  0.5914460000000  0.4567950000000 1.0
C      1  0.5313640000000  0.5874150000000  0.4688830000000 1.0
C      1  0.5439300000000  0.5868740000000  0.4959820000000 1.0
C      1  0.5364290000000  0.5900140000000  0.5253210000000 1.0
C      1  0.5114160000000  0.5889350000000  0.5416630000000 1.0
C      1  0.4811470000000  0.5910730000000  0.5397930000000 1.0
C      1  0.4612370000000  0.5889690000000  0.5186780000000 1.0
C      1  0.4607150000000  0.5934930000000  0.4902050000000 1.0
C      1  0.4710020000000  0.4755340000000  0.4718350000000 1.0
C      1  0.4962690000000  0.4698610000000  0.4567150000000 1.0
C      1  0.5231370000000  0.4656510000000  0.4656860000000 1.0
C      1  0.5403630000000  0.4713420000000  0.4885790000000 1.0
C      1  0.5384170000000  0.4654920000000  0.5182380000000 1.0
C      1  0.5193420000000  0.4738720000000  0.5367860000000 1.0
C      1  0.4932770000000  0.4615280000000  0.5311920000000 1.0
C      1  0.4677230000000  0.4745170000000  0.5246990000000 1.0
C      1  0.4687480000000  0.4623480000000  0.4969150000000 1.0
C      1  0.5236440000000  0.5010910000000  0.5310430000000 1.0
C      1  0.4985900000000  0.5132170000000  0.5376060000000 1.0
C      1  0.4733890000000  0.5025440000000  0.5288470000000 1.0
C      1  0.4621780000000  0.5129900000000  0.5048400000000 1.0
C      1  0.4662880000000  0.5025100000000  0.4782600000000 1.0
C      1  0.4868940000000  0.5155550000000  0.4636360000000 1.0
C      1  0.5138580000000  0.5056510000000  0.4657690000000 1.0
C      1  0.5360690000000  0.5008120000000  0.4831780000000 1.0
C      1  0.5381570000000  0.5125390000000  0.5088630000000 1.0
C      1  0.5575380000000  0.4472260000000  0.5558660000000 1.0
C      1  0.5101280000000  0.4312460000000  0.5650010000000 1.0
C      1  0.4557020000000  0.4424140000000  0.5623570000000 1.0
C      1  0.4367760000000  0.4316820000000  0.5200800000000 1.0
C      1  0.4318230000000  0.4404930000000  0.4664340000000 1.0
C      1  0.4712670000000  0.4334720000000  0.4400310000000 1.0
C      1  0.5167950000000  0.4394340000000  0.4267590000000 1.0
C      1  0.5640670000000  0.4409010000000  0.4564670000000 1.0
C      1  0.5643730000000  0.4297260000000  0.5069770000000 1.0
C      1  0.4621190000000  0.5132010000000  0.4110110000000 1.0
C      1  0.5257110000000  0.5120930000000  0.4049420000000 1.0
C      1  0.5832310000000  0.5128370000000  0.4437240000000 1.0
C      1  0.5988550000000  0.5099660000000  0.5084550000000 1.0
C      1  0.5696320000000  0.5147570000000  0.5733810000000 1.0
C      1  0.5037440000000  0.5126050000000  0.5991070000000 1.0
C      1  0.4423660000000  0.5127910000000  0.5788090000000 1.0
C      1  0.4063550000000  0.5120860000000  0.5165270000000 1.0
C      1  0.4022000000000  0.4980860000000  0.4655290000000 1.0
C      1  0.5391900000000  0.4852110000000  0.4104420000000 1.0
C      1  0.5929950000000  0.4855490000000  0.4530760000000 1.0
C      1  0.5920210000000  0.4840760000000  0.5199410000000 1.0
C      1  0.5656190000000  0.4872220000000  0.5821520000000 1.0
C      1  0.4958270000000  0.4845270000000  0.5943490000000 1.0
C      1  0.4306710000000  0.4863350000000  0.5763590000000 1.0
C      1  0.4071510000000  0.4833820000000  0.5116350000000 1.0
C      1  0.4104230000000  0.4796980000000  0.4457490000000 1.0
C      1  0.4713480000000  0.4853220000000  0.4097640000000 1.0
C      1  0.5734080000000  0.5214550000000  0.5454900000000 1.0
C      1  0.5311990000000  0.5113460000000  0.5970810000000 1.0
C      1  0.4664570000000  0.5277470000000  0.5810490000000 1.0
C      1  0.4099680000000  0.5112920000000  0.5448260000000 1.0
C      1  0.4124240000000  0.5245840000000  0.4700580000000 1.0
C      1  0.4374110000000  0.5140480000000  0.4255650000000 1.0
C      1  0.5034680000000  0.5277400000000  0.4135290000000 1.0
C      1  0.5592390000000  0.5249260000000  0.4342540000000 1.0
C      1  0.5864370000000  0.5244160000000  0.4883730000000 1.0
C      1  0.5336250000000  0.5524720000000  0.5739930000000 1.0
C      1  0.4735380000000  0.5552490000000  0.5811330000000 1.0
C      1  0.4319260000000  0.5528230000000  0.5450120000000 1.0
C      1  0.4215490000000  0.5615100000000  0.5013740000000 1.0
C      1  0.4448680000000  0.5519840000000  0.4414800000000 1.0
C      1  0.4970560000000  0.5554910000000  0.4143000000000 1.0
C      1  0.5512760000000  0.5522300000000  0.4310000000000 1.0
C      1  0.5836310000000  0.5536690000000  0.4809760000000 1.0
C      1  0.5754540000000  0.5509000000000  0.5376130000000 1.0
C      1  0.5942070000000  0.5313590000000  0.5276150000000 1.0
C      1  0.5486810000000  0.5317080000000  0.5855450000000 1.0
C      1  0.4869370000000  0.5351130000000  0.5971670000000 1.0
C      1  0.4256870000000  0.5306280000000  0.5608270000000 1.0
C      1  0.4107230000000  0.5345300000000  0.4970410000000 1.0
C      1  0.4255160000000  0.5336170000000  0.4445510000000 1.0
C      1  0.4790780000000  0.5348570000000  0.4050810000000 1.0
C      1  0.5460030000000  0.5309640000000  0.4120810000000 1.0
C      1  0.5925040000000  0.5317260000000  0.4632810000000 1.0
C      1  0.5669900000000  0.4491990000000  0.4844940000000 1.0
C      1  0.5548370000000  0.4464640000000  0.5282640000000 1.0
C      1  0.5287270000000  0.4532070000000  0.5638810000000 1.0
C      1  0.4836140000000  0.4414590000000  0.5558680000000 1.0
C      1  0.4431880000000  0.4538860000000  0.5377620000000 1.0
C      1  0.4435230000000  0.4418220000000  0.4928690000000 1.0
C      1  0.4529120000000  0.4545860000000  0.4503850000000 1.0
C      1  0.4939980000000  0.4497310000000  0.4374740000000 1.0
C      1  0.5358690000000  0.4423530000000  0.4503340000000 1.0
C      1  0.5905490000000  0.4615140000000  0.4990790000000 1.0
C      1  0.5741080000000  0.4687300000000  0.5635100000000 1.0
C      1  0.5193810000000  0.4651940000000  0.5879970000000 1.0
C      1  0.4494510000000  0.4637680000000  0.5818740000000 1.0
C      1  0.4164240000000  0.4653500000000  0.5332830000000 1.0
C      1  0.4084200000000  0.4573670000000  0.4639890000000 1.0
C      1  0.4519920000000  0.4669560000000  0.4243780000000 1.0
C      1  0.5191810000000  0.4620060000000  0.4073280000000 1.0
C      1  0.5765030000000  0.4628580000000  0.4407450000000 1.0
C      1  0.5098910000000  0.4131720000000  0.5404560000000 1.0
C      1  0.4801320000000  0.4167440000000  0.5391740000000 1.0
C      1  0.4604690000000  0.4142960000000  0.5173460000000 1.0
C      1  0.4589010000000  0.4165160000000  0.4882050000000 1.0
C      1  0.4768930000000  0.4147490000000  0.4640130000000 1.0
C      1  0.5041660000000  0.4175090000000  0.4598780000000 1.0
C      1  0.5311090000000  0.4169730000000  0.4673130000000 1.0
C      1  0.5419870000000  0.4124150000000  0.4958450000000 1.0
C      1  0.5279970000000  0.4130910000000  0.5188040000000 1.0
C      1  0.4353460000000  0.5718790000000  0.5255050000000 1.0
C      1  0.4412880000000  0.5723300000000  0.4813840000000 1.0
C      1  0.4626500000000  0.5720290000000  0.4454640000000 1.0
C      1  0.5068310000000  0.5690890000000  0.4379710000000 1.0
C      1  0.5441200000000  0.5633380000000  0.4567390000000 1.0
C      1  0.5614720000000  0.5635250000000  0.4952430000000 1.0
C      1  0.5503430000000  0.5653780000000  0.5360020000000 1.0
C      1  0.5195510000000  0.5713850000000  0.5627440000000 1.0
C      1  0.4708230000000  0.5683310000000  0.5554620000000 1.0
C      1  0.5843030000000  0.4872660000000  0.5460540000000 1.0
C      1  0.5397820000000  0.4844850000000  0.5938050000000 1.0
C      1  0.4689830000000  0.4823330000000  0.5891940000000 1.0
C      1  0.4143330000000  0.4849970000000  0.5537290000000 1.0
C      1  0.3997280000000  0.4764540000000  0.4848420000000 1.0
C      1  0.4306590000000  0.4856530000000  0.4282650000000 1.0
C      1  0.4986580000000  0.4805860000000  0.4046350000000 1.0
C      1  0.5621830000000  0.4816400000000  0.4261520000000 1.0
C      1  0.5995960000000  0.4804990000000  0.4803580000000 1.0
C      1  0.4949160000000  0.4482330000000  0.5036920000000 1.0
END
