TITL C-2441158-471-1114 0.0120515216529853 125000 -3361.94762505287 0 0 28 (C1) n - 1
REM
REM in /home/bkarasulu/work/CARBON/AIRSS/Generating-Clusters/ReaxFF-fromJPCA2015/Units_Real/with-SteepDescent/Higher-Symm
REM
REM
REM
REM
REM
REM ./C.cell (1df0a924f5614ab8850e4351716899ee)
REM
REM compiler GCC version 9.2.1 20190827 (Red Hat 9.2.1-1)
REM options -cpp -mtune=generic -march=x86-64 -g -O0 -fpre-include=/usr/include/finclude/math-vector-fortran.h
REM seed -268237171 -2100206985 540746448 1787518889 -987673118 2135695632 1214103039 -1016562870 -715698239 1878389469 -1584704444 716712301 496755399 -681272488 -1081388185 -650578516 1178008812 1000360448 -1363762288 968742646 -789714828 89269041 1091132218 -516673007 296979567 912701 -1877514719 -2129868763 1792737176 1707218990 2019553604 1602651940 -514980433
REM
CELL 1.54180   50.00000   50.00000   50.00000   90.00000   90.00000   90.00000
LATT -1
SFAC C  
C      1  0.4621720000000  0.5135680000000  0.4421760000000 1.0
C      1  0.4884750000000  0.4588800000000  0.5580980000000 1.0
C      1  0.5422620000000  0.4886070000000  0.4429420000000 1.0
C      1  0.5152450000000  0.5432420000000  0.5564220000000 1.0
C      1  0.5077650000000  0.5196430000000  0.5700130000000 1.0
C      1  0.4832150000000  0.5063490000000  0.4246970000000 1.0
C      1  0.4965500000000  0.4796170000000  0.5756160000000 1.0
C      1  0.5213910000000  0.4953770000000  0.4250300000000 1.0
C      1  0.4815560000000  0.4836050000000  0.5248180000000 1.0
C      1  0.5179240000000  0.4794400000000  0.4760190000000 1.0
C      1  0.5226090000000  0.5177100000000  0.5242810000000 1.0
C      1  0.4844390000000  0.5202660000000  0.4770900000000 1.0
C      1  0.5131330000000  0.4584030000000  0.5432250000000 1.0
C      1  0.5424060000000  0.5129410000000  0.4575760000000 1.0
C      1  0.4907700000000  0.5442830000000  0.5416840000000 1.0
C      1  0.4608710000000  0.4890790000000  0.4568650000000 1.0
C      1  0.4692000000000  0.5403480000000  0.5309100000000 1.0
C      1  0.4615510000000  0.4678950000000  0.4689910000000 1.0
C      1  0.5342370000000  0.4603160000000  0.5310230000000 1.0
C      1  0.5413770000000  0.5337740000000  0.4702500000000 1.0
C      1  0.5359560000000  0.4627930000000  0.4636280000000 1.0
C      1  0.5397240000000  0.5369080000000  0.5355950000000 1.0
C      1  0.4684690000000  0.5384330000000  0.4638890000000 1.0
C      1  0.4634430000000  0.4668950000000  0.5371030000000 1.0
C      1  0.5022870000000  0.5012270000000  0.4387420000000 1.0
C      1  0.4997800000000  0.4986400000000  0.5616250000000 1.0
C      1  0.5000730000000  0.4985090000000  0.4868360000000 1.0
C      1  0.5031430000000  0.4992430000000  0.5148540000000 1.0
END
