TITL C-2441168-9922-1062 0.0762062948621785 125000 -19255.0204977781 0 0 144 (C1) n - 1
REM
REM in /home/bkarasulu/work/CARBON/AIRSS/Generating-Clusters/ReaxFF-fromJPCA2015/Units_Real/with-SteepDescent/Higher-Symm
REM
REM
REM
REM
REM
REM ./C.cell (1df0a924f5614ab8850e4351716899ee)
REM
REM compiler GCC version 9.2.1 20190827 (Red Hat 9.2.1-1)
REM options -cpp -mtune=generic -march=x86-64 -g -O0 -fpre-include=/usr/include/finclude/math-vector-fortran.h
REM seed 130641534 -144503781 -53399130 -258948085 2040774669 687597167 -758254533 1311099565 -1662418124 -615896947 -154296098 2088986584 972286090 212761772 1146655552 880216096 428649965 -126009412 584288810 -177465043 -1337565531 -135403196 -295575052 -1745347745 -1349473558 1594889548 -975654222 1621193238 -1862708965 1680228631 30051283 -65522803 -2065465801
REM
CELL 1.54180   50.00000   50.00000   50.00000   90.00000   90.00000   90.00000
LATT -1
SFAC C  
C      1  0.5187120000000  0.4899160000000  0.4849290000000 1.0
C      1  0.5071970000000  0.5281830000000  0.5366350000000 1.0
C      1  0.4389790000000  0.5539740000000  0.5473260000000 1.0
C      1  0.4964390000000  0.4914620000000  0.5962870000000 1.0
C      1  0.5449810000000  0.4608310000000  0.4420280000000 1.0
C      1  0.5264730000000  0.5876360000000  0.5225730000000 1.0
C      1  0.5592510000000  0.4995780000000  0.4333830000000 1.0
C      1  0.5437630000000  0.4206170000000  0.4643500000000 1.0
C      1  0.5105520000000  0.5244840000000  0.4995930000000 1.0
C      1  0.4097210000000  0.5328220000000  0.5158500000000 1.0
C      1  0.5209950000000  0.6016820000000  0.4858050000000 1.0
C      1  0.4932800000000  0.4518540000000  0.4429250000000 1.0
C      1  0.5793650000000  0.5284680000000  0.4582940000000 1.0
C      1  0.4352850000000  0.5686430000000  0.4763470000000 1.0
C      1  0.4743580000000  0.4389650000000  0.4593720000000 1.0
C      1  0.5166680000000  0.4634420000000  0.4516590000000 1.0
C      1  0.5174560000000  0.5828380000000  0.4419350000000 1.0
C      1  0.4936890000000  0.4896200000000  0.4104850000000 1.0
C      1  0.5719320000000  0.5281370000000  0.5562720000000 1.0
C      1  0.5689590000000  0.4805350000000  0.5546930000000 1.0
C      1  0.3975750000000  0.5079560000000  0.4855070000000 1.0
C      1  0.4868560000000  0.5736720000000  0.5653480000000 1.0
C      1  0.5355460000000  0.4577930000000  0.4138090000000 1.0
C      1  0.5142750000000  0.4729280000000  0.5828370000000 1.0
C      1  0.5527280000000  0.4302720000000  0.5470400000000 1.0
C      1  0.5855840000000  0.4782230000000  0.4709440000000 1.0
C      1  0.4594240000000  0.5136020000000  0.4107990000000 1.0
C      1  0.5786150000000  0.4150310000000  0.4991750000000 1.0
C      1  0.5038950000000  0.6009150000000  0.5065260000000 1.0
C      1  0.4843570000000  0.5441990000000  0.4342420000000 1.0
C      1  0.4770560000000  0.5193920000000  0.5222360000000 1.0
C      1  0.5608800000000  0.5538870000000  0.5519660000000 1.0
C      1  0.4181600000000  0.5061240000000  0.4411330000000 1.0
C      1  0.5432380000000  0.4663580000000  0.5852490000000 1.0
C      1  0.4212920000000  0.5311870000000  0.5425850000000 1.0
C      1  0.5442570000000  0.5741890000000  0.4477760000000 1.0
C      1  0.5474730000000  0.4406740000000  0.5722180000000 1.0
C      1  0.4684090000000  0.5341700000000  0.5732210000000 1.0
C      1  0.5405250000000  0.5195490000000  0.5751820000000 1.0
C      1  0.5635840000000  0.4861980000000  0.5050120000000 1.0
C      1  0.4105010000000  0.4910120000000  0.4646270000000 1.0
C      1  0.5049250000000  0.5493140000000  0.5932220000000 1.0
C      1  0.5212910000000  0.4831330000000  0.4042540000000 1.0
C      1  0.4443780000000  0.4596470000000  0.5613190000000 1.0
C      1  0.4911510000000  0.5168780000000  0.4800900000000 1.0
C      1  0.4319670000000  0.4440010000000  0.4700990000000 1.0
C      1  0.4955410000000  0.5387240000000  0.4624540000000 1.0
C      1  0.5955220000000  0.5315530000000  0.4830770000000 1.0
C      1  0.5888530000000  0.4808460000000  0.5153560000000 1.0
C      1  0.4702770000000  0.4520010000000  0.4867920000000 1.0
C      1  0.5444490000000  0.5491310000000  0.4841010000000 1.0
C      1  0.4763150000000  0.4168370000000  0.5549230000000 1.0
C      1  0.4564360000000  0.5177110000000  0.4611580000000 1.0
C      1  0.5304080000000  0.4603640000000  0.5308600000000 1.0
C      1  0.5179220000000  0.4181170000000  0.4474400000000 1.0
C      1  0.4893170000000  0.4551280000000  0.5338090000000 1.0
C      1  0.4139440000000  0.5341230000000  0.4478800000000 1.0
C      1  0.5548560000000  0.4924170000000  0.5768460000000 1.0
C      1  0.4594540000000  0.5606540000000  0.5674750000000 1.0
C      1  0.5255270000000  0.5359890000000  0.4145000000000 1.0
C      1  0.5574290000000  0.4752720000000  0.4783940000000 1.0
C      1  0.5782190000000  0.4407990000000  0.4952240000000 1.0
C      1  0.4508750000000  0.4669020000000  0.4264410000000 1.0
C      1  0.5839230000000  0.5544230000000  0.4694990000000 1.0
C      1  0.4645030000000  0.5819920000000  0.5221290000000 1.0
C      1  0.5411650000000  0.4090980000000  0.5254120000000 1.0
C      1  0.4360450000000  0.5040340000000  0.5053900000000 1.0
C      1  0.5042010000000  0.4844310000000  0.5069760000000 1.0
C      1  0.5131290000000  0.5611670000000  0.5277190000000 1.0
C      1  0.5318800000000  0.5104190000000  0.4930730000000 1.0
C      1  0.4958040000000  0.4169280000000  0.4649660000000 1.0
C      1  0.5910960000000  0.5220750000000  0.5369330000000 1.0
C      1  0.4702570000000  0.5430750000000  0.5060920000000 1.0
C      1  0.4590330000000  0.4781350000000  0.4846480000000 1.0
C      1  0.4462250000000  0.5585100000000  0.5183180000000 1.0
C      1  0.4470000000000  0.4443010000000  0.4448750000000 1.0
C      1  0.4179720000000  0.5562660000000  0.4988930000000 1.0
C      1  0.5242010000000  0.4455520000000  0.5031750000000 1.0
C      1  0.5475910000000  0.5323510000000  0.4574840000000 1.0
C      1  0.4067940000000  0.4980210000000  0.5111560000000 1.0
C      1  0.5143150000000  0.5153940000000  0.5614390000000 1.0
C      1  0.5547610000000  0.4335880000000  0.4412750000000 1.0
C      1  0.4388230000000  0.5198570000000  0.4827200000000 1.0
C      1  0.5582280000000  0.5403370000000  0.5074860000000 1.0
C      1  0.5582400000000  0.4577900000000  0.5382040000000 1.0
C      1  0.5105590000000  0.4437100000000  0.5487820000000 1.0
C      1  0.4738070000000  0.5960540000000  0.5003310000000 1.0
C      1  0.5154520000000  0.5535280000000  0.4974900000000 1.0
C      1  0.4787040000000  0.5898410000000  0.4549580000000 1.0
C      1  0.5849430000000  0.5320220000000  0.5102200000000 1.0
C      1  0.4407620000000  0.4819200000000  0.5414380000000 1.0
C      1  0.4875050000000  0.4036190000000  0.5312900000000 1.0
C      1  0.4983670000000  0.4285820000000  0.5705150000000 1.0
C      1  0.4568330000000  0.5396840000000  0.4438120000000 1.0
C      1  0.4588840000000  0.5864300000000  0.4766730000000 1.0
C      1  0.5197990000000  0.4337860000000  0.4195290000000 1.0
C      1  0.5285690000000  0.5108580000000  0.4023030000000 1.0
C      1  0.5029180000000  0.4167820000000  0.4937730000000 1.0
C      1  0.4882420000000  0.5192250000000  0.4106400000000 1.0
C      1  0.4494810000000  0.4700940000000  0.5880700000000 1.0
C      1  0.4580580000000  0.4906700000000  0.5174530000000 1.0
C      1  0.5914920000000  0.4940920000000  0.5421130000000 1.0
C      1  0.4762040000000  0.4121730000000  0.5062930000000 1.0
C      1  0.4110730000000  0.5318460000000  0.4762150000000 1.0
C      1  0.4877070000000  0.5551640000000  0.4858830000000 1.0
C      1  0.4758140000000  0.4957210000000  0.4663280000000 1.0
C      1  0.4929250000000  0.5233770000000  0.5884960000000 1.0
C      1  0.4333560000000  0.4733620000000  0.4702870000000 1.0
C      1  0.4965750000000  0.4502340000000  0.5902100000000 1.0
C      1  0.4921140000000  0.4429330000000  0.4151840000000 1.0
C      1  0.5865030000000  0.4906860000000  0.4425820000000 1.0
C      1  0.5155470000000  0.5683420000000  0.5764200000000 1.0
C      1  0.5455610000000  0.5057180000000  0.5187810000000 1.0
C      1  0.4755630000000  0.4669760000000  0.4107780000000 1.0
C      1  0.5584810000000  0.5720180000000  0.4749280000000 1.0
C      1  0.4281920000000  0.5037770000000  0.5557190000000 1.0
C      1  0.5472440000000  0.4475790000000  0.4847890000000 1.0
C      1  0.4101270000000  0.4452950000000  0.4902750000000 1.0
C      1  0.5212260000000  0.4905200000000  0.5302010000000 1.0
C      1  0.5621760000000  0.5638300000000  0.5231240000000 1.0
C      1  0.5110290000000  0.4902760000000  0.4575290000000 1.0
C      1  0.4334000000000  0.5555850000000  0.4500680000000 1.0
C      1  0.5423440000000  0.5500440000000  0.4328570000000 1.0
C      1  0.5333320000000  0.5091040000000  0.4439980000000 1.0
C      1  0.4404460000000  0.4332960000000  0.5247130000000 1.0
C      1  0.4765430000000  0.4702240000000  0.6006180000000 1.0
C      1  0.4433930000000  0.4972660000000  0.5798640000000 1.0
C      1  0.4687060000000  0.5189720000000  0.5499330000000 1.0
C      1  0.5397540000000  0.5506580000000  0.5711410000000 1.0
C      1  0.5057940000000  0.6015790000000  0.4615200000000 1.0
C      1  0.4908520000000  0.5730230000000  0.4350940000000 1.0
C      1  0.4959600000000  0.4579470000000  0.5027940000000 1.0
C      1  0.4833550000000  0.4744350000000  0.5514240000000 1.0
C      1  0.4881690000000  0.5744520000000  0.5371940000000 1.0
C      1  0.5516150000000  0.4078710000000  0.4988770000000 1.0
C      1  0.5144750000000  0.4011110000000  0.5181140000000 1.0
C      1  0.4520270000000  0.4331630000000  0.5510430000000 1.0
C      1  0.4407380000000  0.4949310000000  0.4253520000000 1.0
C      1  0.4151920000000  0.4437940000000  0.5187990000000 1.0
C      1  0.4116210000000  0.4688250000000  0.5062140000000 1.0
C      1  0.4553280000000  0.4310520000000  0.5009120000000 1.0
C      1  0.5502820000000  0.5840550000000  0.5065380000000 1.0
C      1  0.4708880000000  0.4956980000000  0.5644650000000 1.0
C      1  0.5974690000000  0.4638870000000  0.4933130000000 1.0
END
