TITL C-2441164-471-557 0.0411898760598919 125000 -12409.2893810836 0 0 91 (C1) n - 1
REM
REM in /home/bkarasulu/work/CARBON/AIRSS/Generating-Clusters/ReaxFF-fromJPCA2015/Units_Real/with-SteepDescent/Higher-Symm
REM
REM
REM
REM
REM
REM ./C.cell (1df0a924f5614ab8850e4351716899ee)
REM
REM compiler GCC version 9.2.1 20190827 (Red Hat 9.2.1-1)
REM options -cpp -mtune=generic -march=x86-64 -g -O0 -fpre-include=/usr/include/finclude/math-vector-fortran.h
REM seed -2035658744 -1307055434 -1899889950 -1417695705 1016380379 1397629785 395619479 -1693277607 -214035782 -346800594 -92719934 -989304187 604045476 187819616 -1512568665 605788367 -1185799552 -2006766481 180671011 379900218 -1960699417 -184283412 -1504063573 1055375028 -1527310191 -1830569910 -1004288256 540303154 1248266837 442082808 1891206295 473361312 1168533607
REM
CELL 1.54180   50.00000   50.00000   50.00000   90.00000   90.00000   90.00000
LATT -1
SFAC C  
C      1  0.4913380000000  0.4982140000000  0.4158530000000 1.0
C      1  0.4904450000000  0.4824190000000  0.4873950000000 1.0
C      1  0.5620980000000  0.5410140000000  0.5330970000000 1.0
C      1  0.4332990000000  0.4535850000000  0.5191770000000 1.0
C      1  0.4992510000000  0.5026480000000  0.5061390000000 1.0
C      1  0.4715370000000  0.4843580000000  0.5762010000000 1.0
C      1  0.4571330000000  0.5375150000000  0.4547510000000 1.0
C      1  0.5776820000000  0.4589710000000  0.5010720000000 1.0
C      1  0.4678900000000  0.5645380000000  0.4597180000000 1.0
C      1  0.5125010000000  0.4531710000000  0.5140890000000 1.0
C      1  0.5728770000000  0.4581420000000  0.5318610000000 1.0
C      1  0.5207680000000  0.5405680000000  0.5085750000000 1.0
C      1  0.4264330000000  0.4986160000000  0.5228660000000 1.0
C      1  0.4652210000000  0.4252030000000  0.5145620000000 1.0
C      1  0.5290880000000  0.5017510000000  0.4780480000000 1.0
C      1  0.5293510000000  0.4954780000000  0.5063520000000 1.0
C      1  0.4458150000000  0.5533360000000  0.5071650000000 1.0
C      1  0.4671830000000  0.5212240000000  0.4757220000000 1.0
C      1  0.4978100000000  0.4713530000000  0.5754720000000 1.0
C      1  0.4410160000000  0.4483070000000  0.4727720000000 1.0
C      1  0.4702700000000  0.4357420000000  0.5414810000000 1.0
C      1  0.4685840000000  0.5664750000000  0.5208960000000 1.0
C      1  0.4481310000000  0.4786530000000  0.5602380000000 1.0
C      1  0.4280260000000  0.4733190000000  0.4638810000000 1.0
C      1  0.4913690000000  0.4690810000000  0.5298800000000 1.0
C      1  0.5341020000000  0.5685860000000  0.5038800000000 1.0
C      1  0.4722320000000  0.5142790000000  0.5748870000000 1.0
C      1  0.4666640000000  0.5287810000000  0.5493650000000 1.0
C      1  0.5361470000000  0.4677200000000  0.5038720000000 1.0
C      1  0.5164680000000  0.4837600000000  0.4205360000000 1.0
C      1  0.5805870000000  0.4863690000000  0.4976360000000 1.0
C      1  0.5069130000000  0.5102610000000  0.5467680000000 1.0
C      1  0.5133450000000  0.5812770000000  0.5221990000000 1.0
C      1  0.5806660000000  0.5124910000000  0.4912380000000 1.0
C      1  0.5367560000000  0.5505460000000  0.5482270000000 1.0
C      1  0.4248510000000  0.5168460000000  0.5001630000000 1.0
C      1  0.5000540000000  0.5177860000000  0.5782610000000 1.0
C      1  0.5064530000000  0.4174940000000  0.4776770000000 1.0
C      1  0.4680480000000  0.4929960000000  0.4752840000000 1.0
C      1  0.4590470000000  0.4999800000000  0.4196750000000 1.0
C      1  0.5389820000000  0.5076990000000  0.5831930000000 1.0
C      1  0.4371170000000  0.5304170000000  0.5463030000000 1.0
C      1  0.5168940000000  0.5258010000000  0.4664670000000 1.0
C      1  0.4676080000000  0.4779880000000  0.4517140000000 1.0
C      1  0.5108520000000  0.4822010000000  0.4669850000000 1.0
C      1  0.4426320000000  0.4850530000000  0.4388450000000 1.0
C      1  0.4170840000000  0.4893420000000  0.4843770000000 1.0
C      1  0.4698650000000  0.4304160000000  0.4342790000000 1.0
C      1  0.5686840000000  0.5132700000000  0.5448330000000 1.0
C      1  0.5361210000000  0.4656280000000  0.5606780000000 1.0
C      1  0.4191540000000  0.4759780000000  0.5093960000000 1.0
C      1  0.5262370000000  0.4868780000000  0.5464850000000 1.0
C      1  0.5513130000000  0.4453270000000  0.5480790000000 1.0
C      1  0.5234130000000  0.5295540000000  0.5331810000000 1.0
C      1  0.5113110000000  0.4657810000000  0.4430190000000 1.0
C      1  0.5098430000000  0.5653640000000  0.5456990000000 1.0
C      1  0.4658070000000  0.4458730000000  0.4548820000000 1.0
C      1  0.5536360000000  0.4530190000000  0.4857050000000 1.0
C      1  0.4819580000000  0.4250310000000  0.4916150000000 1.0
C      1  0.4429040000000  0.4367330000000  0.4993240000000 1.0
C      1  0.5388600000000  0.5018260000000  0.4319900000000 1.0
C      1  0.4482630000000  0.4546390000000  0.5438040000000 1.0
C      1  0.4842110000000  0.5816370000000  0.4783420000000 1.0
C      1  0.4961850000000  0.4498490000000  0.5517820000000 1.0
C      1  0.4881600000000  0.5831340000000  0.5072440000000 1.0
C      1  0.4856520000000  0.4975080000000  0.5309310000000 1.0
C      1  0.4588950000000  0.5281390000000  0.4277000000000 1.0
C      1  0.5313110000000  0.5725750000000  0.4756970000000 1.0
C      1  0.5701710000000  0.4847390000000  0.5399020000000 1.0
C      1  0.5718830000000  0.5096390000000  0.4628200000000 1.0
C      1  0.5043830000000  0.5221830000000  0.4203640000000 1.0
C      1  0.4823190000000  0.5535460000000  0.5425620000000 1.0
C      1  0.5233020000000  0.4333840000000  0.5390590000000 1.0
C      1  0.5720700000000  0.5395440000000  0.5057420000000 1.0
C      1  0.5080250000000  0.5789190000000  0.4604630000000 1.0
C      1  0.4322050000000  0.5017330000000  0.5501620000000 1.0
C      1  0.5140980000000  0.4939530000000  0.5872650000000 1.0
C      1  0.5005410000000  0.4441170000000  0.4879330000000 1.0
C      1  0.4247010000000  0.5402830000000  0.5219510000000 1.0
C      1  0.5566090000000  0.5226060000000  0.5687650000000 1.0
C      1  0.4846180000000  0.5423780000000  0.4214550000000 1.0
C      1  0.5250110000000  0.4274200000000  0.4610380000000 1.0
C      1  0.5304610000000  0.4457900000000  0.4451570000000 1.0
C      1  0.5603370000000  0.5367750000000  0.4594540000000 1.0
C      1  0.5354360000000  0.5297670000000  0.4438840000000 1.0
C      1  0.4894060000000  0.5638610000000  0.4407030000000 1.0
C      1  0.5575880000000  0.4880080000000  0.4486580000000 1.0
C      1  0.5630720000000  0.5536830000000  0.4824890000000 1.0
C      1  0.5005630000000  0.5315780000000  0.4901950000000 1.0
C      1  0.5524120000000  0.4581770000000  0.4564390000000 1.0
C      1  0.4503890000000  0.5284060000000  0.4940560000000 1.0
END
