TITL C-2441164-471-928 0.125606006845969 125000 -17081.6249432029 0 0 140 (C1) n - 1
REM
REM in /home/bkarasulu/work/CARBON/AIRSS/Generating-Clusters/ReaxFF-fromJPCA2015/Units_Real/with-SteepDescent/Higher-Symm
REM
REM
REM
REM
REM
REM ./C.cell (1df0a924f5614ab8850e4351716899ee)
REM
REM compiler GCC version 9.2.1 20190827 (Red Hat 9.2.1-1)
REM options -cpp -mtune=generic -march=x86-64 -g -O0 -fpre-include=/usr/include/finclude/math-vector-fortran.h
REM seed 1457951171 1823467206 669514019 -1407789988 -1679085701 -1776117654 1007437058 682638496 94089656 -773821946 1518197477 1545332733 499760939 -832008655 44488481 1476655508 30319135 467506877 -298569945 1111218832 1640844157 -161470709 1520179320 -1260641484 -1437549695 -27616245 1787921648 941078414 277104008 1849183123 810891159 1004642099 1423180279
REM
CELL 1.54180   50.00000   50.00000   50.00000   90.00000   90.00000   90.00000
LATT -1
SFAC C  
C      1  0.4093200000000  0.5059660000000  0.4789320000000 1.0
C      1  0.4212850000000  0.4523080000000  0.5217790000000 1.0
C      1  0.4657920000000  0.4155270000000  0.4786460000000 1.0
C      1  0.5212190000000  0.4107830000000  0.5218910000000 1.0
C      1  0.5693740000000  0.4411200000000  0.4774320000000 1.0
C      1  0.5906570000000  0.4937240000000  0.5214310000000 1.0
C      1  0.5794830000000  0.5477090000000  0.4776340000000 1.0
C      1  0.5352690000000  0.5845830000000  0.5221490000000 1.0
C      1  0.4775890000000  0.5875670000000  0.4782850000000 1.0
C      1  0.4307720000000  0.5607460000000  0.5213330000000 1.0
C      1  0.5239420000000  0.4172650000000  0.4737010000000 1.0
C      1  0.5688620000000  0.4465910000000  0.5261330000000 1.0
C      1  0.5890630000000  0.4959320000000  0.4723540000000 1.0
C      1  0.5767630000000  0.5522400000000  0.5283130000000 1.0
C      1  0.5288220000000  0.5812090000000  0.4742390000000 1.0
C      1  0.4766910000000  0.5839800000000  0.5256980000000 1.0
C      1  0.4284400000000  0.5563870000000  0.4711830000000 1.0
C      1  0.4134200000000  0.5030640000000  0.5254640000000 1.0
C      1  0.4281930000000  0.4505170000000  0.4730350000000 1.0
C      1  0.4699150000000  0.4190950000000  0.5260050000000 1.0
C      1  0.4930090000000  0.4036960000000  0.5095920000000 1.0
C      1  0.5523070000000  0.4193440000000  0.4893620000000 1.0
C      1  0.5895110000000  0.4654860000000  0.5094620000000 1.0
C      1  0.5946010000000  0.5210970000000  0.4880690000000 1.0
C      1  0.5637070000000  0.5761680000000  0.5116470000000 1.0
C      1  0.5052940000000  0.5966410000000  0.4889250000000 1.0
C      1  0.4491010000000  0.5815400000000  0.5084310000000 1.0
C      1  0.4105840000000  0.5401650000000  0.4879730000000 1.0
C      1  0.4060250000000  0.4776610000000  0.5095940000000 1.0
C      1  0.4389640000000  0.4255300000000  0.4893900000000 1.0
C      1  0.5098450000000  0.4789360000000  0.5460150000000 1.0
C      1  0.5202630000000  0.4883870000000  0.4516210000000 1.0
C      1  0.5233020000000  0.5029290000000  0.5472560000000 1.0
C      1  0.5173230000000  0.5158830000000  0.4530000000000 1.0
C      1  0.5047670000000  0.5229190000000  0.5471820000000 1.0
C      1  0.4899130000000  0.5211740000000  0.4518130000000 1.0
C      1  0.4794050000000  0.5117450000000  0.5475490000000 1.0
C      1  0.4766220000000  0.4978000000000  0.4536400000000 1.0
C      1  0.4826180000000  0.4839380000000  0.5484060000000 1.0
C      1  0.4947630000000  0.4773030000000  0.4519380000000 1.0
C      1  0.4541690000000  0.4841940000000  0.4141960000000 1.0
C      1  0.4726720000000  0.4602840000000  0.5868440000000 1.0
C      1  0.5019420000000  0.4522390000000  0.4138370000000 1.0
C      1  0.5289380000000  0.4628010000000  0.5852510000000 1.0
C      1  0.5480040000000  0.4861610000000  0.4143060000000 1.0
C      1  0.5456140000000  0.5163780000000  0.5852220000000 1.0
C      1  0.5274270000000  0.5408710000000  0.4137710000000 1.0
C      1  0.4985490000000  0.5484580000000  0.5862410000000 1.0
C      1  0.4695160000000  0.5392890000000  0.4144880000000 1.0
C      1  0.4530410000000  0.5139230000000  0.5856070000000 1.0
C      1  0.5062590000000  0.4329610000000  0.5323100000000 1.0
C      1  0.5443660000000  0.4492330000000  0.4662310000000 1.0
C      1  0.5658430000000  0.4848960000000  0.5333530000000 1.0
C      1  0.5629270000000  0.5285340000000  0.4666800000000 1.0
C      1  0.5340290000000  0.5575150000000  0.5307180000000 1.0
C      1  0.4933110000000  0.5665740000000  0.4675240000000 1.0
C      1  0.4563450000000  0.5512800000000  0.5319230000000 1.0
C      1  0.4349270000000  0.5140880000000  0.4699410000000 1.0
C      1  0.4368870000000  0.4725700000000  0.5332540000000 1.0
C      1  0.4659460000000  0.4424310000000  0.4666800000000 1.0
C      1  0.4358020000000  0.5369170000000  0.4505130000000 1.0
C      1  0.4252790000000  0.4909610000000  0.5526090000000 1.0
C      1  0.4449780000000  0.4485960000000  0.4465510000000 1.0
C      1  0.4852210000000  0.4269810000000  0.5524100000000 1.0
C      1  0.5311680000000  0.4310510000000  0.4465270000000 1.0
C      1  0.5661830000000  0.4625760000000  0.5529750000000 1.0
C      1  0.5742130000000  0.5069360000000  0.4496890000000 1.0
C      1  0.5545860000000  0.5497010000000  0.5504010000000 1.0
C      1  0.5149490000000  0.5726990000000  0.4483930000000 1.0
C      1  0.4684010000000  0.5690520000000  0.5523840000000 1.0
C      1  0.4123680000000  0.5385380000000  0.5163350000000 1.0
C      1  0.4075990000000  0.4777360000000  0.4818370000000 1.0
C      1  0.4376130000000  0.4287480000000  0.5164610000000 1.0
C      1  0.4928910000000  0.4052500000000  0.4822330000000 1.0
C      1  0.5487140000000  0.4189530000000  0.5165370000000 1.0
C      1  0.5871770000000  0.4656200000000  0.4812440000000 1.0
C      1  0.5910440000000  0.5229270000000  0.5165330000000 1.0
C      1  0.5637830000000  0.5713790000000  0.4835540000000 1.0
C      1  0.5083670000000  0.5946160000000  0.5167580000000 1.0
C      1  0.4483210000000  0.5794650000000  0.4808710000000 1.0
C      1  0.4757750000000  0.4645880000000  0.4173770000000 1.0
C      1  0.5010000000000  0.4557940000000  0.5836860000000 1.0
C      1  0.5269870000000  0.4655920000000  0.4171210000000 1.0
C      1  0.5430620000000  0.4876320000000  0.5838180000000 1.0
C      1  0.5399890000000  0.5134760000000  0.4176090000000 1.0
C      1  0.5250140000000  0.5361180000000  0.5821150000000 1.0
C      1  0.4987110000000  0.5436420000000  0.4178220000000 1.0
C      1  0.4727630000000  0.5348600000000  0.5825920000000 1.0
C      1  0.4571950000000  0.5134960000000  0.4177560000000 1.0
C      1  0.4587000000000  0.4858090000000  0.5827740000000 1.0
C      1  0.4625390000000  0.5002330000000  0.5064240000000 1.0
C      1  0.4666200000000  0.4783940000000  0.4954960000000 1.0
C      1  0.4860600000000  0.4653190000000  0.5061070000000 1.0
C      1  0.5093410000000  0.4638110000000  0.4949070000000 1.0
C      1  0.5315190000000  0.4742330000000  0.5064410000000 1.0
C      1  0.5411790000000  0.5074050000000  0.4907020000000 1.0
C      1  0.5240690000000  0.5173900000000  0.5070340000000 1.0
C      1  0.5112960000000  0.5350630000000  0.4953540000000 1.0
C      1  0.4873140000000  0.5381060000000  0.5061930000000 1.0
C      1  0.4768560000000  0.5165820000000  0.4950160000000 1.0
C      1  0.5686500000000  0.4855490000000  0.5722850000000 1.0
C      1  0.5632050000000  0.5268950000000  0.4276030000000 1.0
C      1  0.5345110000000  0.5601910000000  0.5708100000000 1.0
C      1  0.4927470000000  0.5693710000000  0.4286480000000 1.0
C      1  0.4530730000000  0.5513980000000  0.5707560000000 1.0
C      1  0.4319120000000  0.5146450000000  0.4297850000000 1.0
C      1  0.4364950000000  0.4716190000000  0.5724880000000 1.0
C      1  0.4660280000000  0.4398640000000  0.4276590000000 1.0
C      1  0.5074980000000  0.4310510000000  0.5715850000000 1.0
C      1  0.5465050000000  0.4478850000000  0.4276870000000 1.0
C      1  0.4362000000000  0.5271780000000  0.5655450000000 1.0
C      1  0.4324080000000  0.4850940000000  0.4342250000000 1.0
C      1  0.4544730000000  0.4482190000000  0.5672910000000 1.0
C      1  0.4942100000000  0.4314850000000  0.4330160000000 1.0
C      1  0.5352150000000  0.4414480000000  0.5660430000000 1.0
C      1  0.5632570000000  0.4715430000000  0.4349690000000 1.0
C      1  0.5678870000000  0.5147990000000  0.5659970000000 1.0
C      1  0.5466630000000  0.5507730000000  0.4341790000000 1.0
C      1  0.5062700000000  0.5688390000000  0.5661510000000 1.0
C      1  0.4650230000000  0.5603140000000  0.4345690000000 1.0
C      1  0.4469190000000  0.4714740000000  0.4804280000000 1.0
C      1  0.4725850000000  0.4469730000000  0.5194440000000 1.0
C      1  0.5095280000000  0.4416210000000  0.4803550000000 1.0
C      1  0.5436800000000  0.4571800000000  0.5180910000000 1.0
C      1  0.5485810000000  0.4823400000000  0.4897250000000 1.0
C      1  0.5512110000000  0.5214250000000  0.5137200000000 1.0
C      1  0.5282270000000  0.5536650000000  0.4841410000000 1.0
C      1  0.4905060000000  0.5598820000000  0.5203680000000 1.0
C      1  0.4657450000000  0.5399790000000  0.4866140000000 1.0
C      1  0.4402630000000  0.5104470000000  0.5180780000000 1.0
C      1  0.4911930000000  0.4483540000000  0.4591070000000 1.0
C      1  0.5244580000000  0.4528580000000  0.5393420000000 1.0
C      1  0.5455940000000  0.4758560000000  0.4614420000000 1.0
C      1  0.5522660000000  0.5077920000000  0.5403410000000 1.0
C      1  0.5377110000000  0.5370140000000  0.4606820000000 1.0
C      1  0.5082440000000  0.5523100000000  0.5395800000000 1.0
C      1  0.4760040000000  0.5471540000000  0.4601880000000 1.0
C      1  0.4528520000000  0.5250630000000  0.5399600000000 1.0
C      1  0.4482460000000  0.4919810000000  0.4602640000000 1.0
C      1  0.4618060000000  0.4628950000000  0.5408020000000 1.0
END
