TITL C-2441166-8118-543 0.0165102337022511 125000 -6792.56347256939 0 0 54 (C1) n - 1
REM
REM in /home/bkarasulu/work/CARBON/AIRSS/Generating-Clusters/ReaxFF-fromJPCA2015/Units_Real/with-SteepDescent/Higher-Symm
REM
REM
REM
REM
REM
REM ./C.cell (1df0a924f5614ab8850e4351716899ee)
REM
REM compiler GCC version 9.2.1 20190827 (Red Hat 9.2.1-1)
REM options -cpp -mtune=generic -march=x86-64 -g -O0 -fpre-include=/usr/include/finclude/math-vector-fortran.h
REM seed 536192947 1427188797 -162337630 -1666552213 870355479 338399975 1847278910 978772487 1145444473 -553009666 -1784874446 -263246191 -1458675495 408524310 618581411 -1056810353 -64581916 -749035481 -300872595 77463124 2131196054 270514954 1072543584 -1718357723 343805962 -102894850 1963863987 -1895977020 -97461836 334571382 -313479272 -843554900 1932655861
REM
CELL 1.54180   50.00000   50.00000   50.00000   90.00000   90.00000   90.00000
LATT -1
SFAC C  
C      1  0.5092710000000  0.4883670000000  0.4327810000000 1.0
C      1  0.5090320000000  0.5122750000000  0.5669360000000 1.0
C      1  0.4918650000000  0.4874780000000  0.5671950000000 1.0
C      1  0.4918340000000  0.5131100000000  0.4328190000000 1.0
C      1  0.5092380000000  0.4327460000000  0.4880510000000 1.0
C      1  0.5092400000000  0.5672920000000  0.5116580000000 1.0
C      1  0.4919500000000  0.5672470000000  0.4869250000000 1.0
C      1  0.4919570000000  0.4328430000000  0.5128260000000 1.0
C      1  0.5058000000000  0.4736110000000  0.5463640000000 1.0
C      1  0.5066300000000  0.5256290000000  0.4540470000000 1.0
C      1  0.4956840000000  0.4737440000000  0.4536850000000 1.0
C      1  0.4956110000000  0.5261510000000  0.5458910000000 1.0
C      1  0.5067770000000  0.5458250000000  0.4745620000000 1.0
C      1  0.5060140000000  0.4541250000000  0.5260730000000 1.0
C      1  0.4959150000000  0.4537830000000  0.4737350000000 1.0
C      1  0.4957730000000  0.5462640000000  0.5260910000000 1.0
C      1  0.4764110000000  0.4649180000000  0.4929350000000 1.0
C      1  0.4763300000000  0.5353800000000  0.5074020000000 1.0
C      1  0.5224750000000  0.4659300000000  0.5063550000000 1.0
C      1  0.5209680000000  0.5327290000000  0.4953440000000 1.0
C      1  0.4762940000000  0.4926690000000  0.4646540000000 1.0
C      1  0.4762500000000  0.5068670000000  0.5348790000000 1.0
C      1  0.5207790000000  0.5048340000000  0.4672330000000 1.0
C      1  0.5245710000000  0.4919400000000  0.5361720000000 1.0
C      1  0.5347180000000  0.4483290000000  0.4878350000000 1.0
C      1  0.5350550000000  0.5522750000000  0.5106270000000 1.0
C      1  0.4670770000000  0.4485540000000  0.5147330000000 1.0
C      1  0.4672760000000  0.5514570000000  0.4850800000000 1.0
C      1  0.5351420000000  0.4896660000000  0.4474220000000 1.0
C      1  0.5348920000000  0.5139320000000  0.5514810000000 1.0
C      1  0.4671410000000  0.5149460000000  0.4485970000000 1.0
C      1  0.4668980000000  0.4851040000000  0.5514170000000 1.0
C      1  0.5545610000000  0.5438010000000  0.4766670000000 1.0
C      1  0.5531340000000  0.4559600000000  0.5226350000000 1.0
C      1  0.4503440000000  0.5432360000000  0.5224920000000 1.0
C      1  0.4503610000000  0.4568790000000  0.4776000000000 1.0
C      1  0.5513990000000  0.4766830000000  0.5426550000000 1.0
C      1  0.5540870000000  0.5236300000000  0.4556840000000 1.0
C      1  0.4503150000000  0.5224510000000  0.5430600000000 1.0
C      1  0.4502530000000  0.4775220000000  0.4569040000000 1.0
C      1  0.5622470000000  0.4962110000000  0.5243940000000 1.0
C      1  0.5598910000000  0.5041910000000  0.4754270000000 1.0
C      1  0.4382260000000  0.4961450000000  0.4757880000000 1.0
C      1  0.4380220000000  0.5039760000000  0.5242870000000 1.0
C      1  0.5600070000000  0.5237930000000  0.4956130000000 1.0
C      1  0.5611330000000  0.4753780000000  0.5034690000000 1.0
C      1  0.4382390000000  0.4755880000000  0.4963780000000 1.0
C      1  0.4382580000000  0.5244800000000  0.5036890000000 1.0
C      1  0.4547430000000  0.5292730000000  0.4708070000000 1.0
C      1  0.5497410000000  0.4736110000000  0.4743290000000 1.0
C      1  0.4547020000000  0.4706720000000  0.5291870000000 1.0
C      1  0.5482640000000  0.5268540000000  0.5276770000000 1.0
C      1  0.5142690000000  0.4999550000000  0.4991920000000 1.0
C      1  0.4845410000000  0.4996850000000  0.5002590000000 1.0
END
