TITL C-2441164-471-1213 0.0013655568133448 125000 -3143.83318054443 0 0 24 (C1) n - 1
REM
REM in /home/bkarasulu/work/CARBON/AIRSS/Generating-Clusters/ReaxFF-fromJPCA2015/Units_Real/with-SteepDescent/Higher-Symm
REM
REM
REM
REM
REM
REM ./C.cell (1df0a924f5614ab8850e4351716899ee)
REM
REM compiler GCC version 9.2.1 20190827 (Red Hat 9.2.1-1)
REM options -cpp -mtune=generic -march=x86-64 -g -O0 -fpre-include=/usr/include/finclude/math-vector-fortran.h
REM seed -1279483265 1344864029 1068927359 -747173818 1353886845 -560706907 -589477120 -1743358653 -652696434 -1800605870 977844768 -576327496 -1408830839 1026707440 -1884953490 -1492155526 949421626 -1893857675 2010937891 2118257496 -1861998821 487272464 -1372081535 1536816424 -1247877602 -684378433 -28454006 1394815469 -84008351 705648030 -1123200339 1627842651 -924774031
REM
CELL 1.54180   50.00000   50.00000   50.00000   90.00000   90.00000   90.00000
LATT -1
SFAC C  
C      1  0.4647070000000  0.4668970000000  0.4871560000000 1.0
C      1  0.4714420000000  0.5324840000000  0.5298620000000 1.0
C      1  0.4703440000000  0.5473010000000  0.5050770000000 1.0
C      1  0.5502180000000  0.4589870000000  0.5067700000000 1.0
C      1  0.4723760000000  0.5536090000000  0.4795940000000 1.0
C      1  0.4975130000000  0.5090930000000  0.4535000000000 1.0
C      1  0.4606740000000  0.4932770000000  0.5024250000000 1.0
C      1  0.5227050000000  0.5259130000000  0.5304160000000 1.0
C      1  0.5180130000000  0.4957890000000  0.5282330000000 1.0
C      1  0.4913500000000  0.5377670000000  0.4563160000000 1.0
C      1  0.5334750000000  0.5425290000000  0.5510590000000 1.0
C      1  0.4957360000000  0.4858540000000  0.4620250000000 1.0
C      1  0.4980660000000  0.5410120000000  0.5337160000000 1.0
C      1  0.5302860000000  0.4803040000000  0.5037990000000 1.0
C      1  0.5526420000000  0.4935000000000  0.4859500000000 1.0
C      1  0.4898790000000  0.4566300000000  0.5406480000000 1.0
C      1  0.5123610000000  0.4542010000000  0.4940180000000 1.0
C      1  0.4400380000000  0.4827250000000  0.4820430000000 1.0
C      1  0.5059280000000  0.5439020000000  0.4362520000000 1.0
C      1  0.5011830000000  0.4407130000000  0.5180690000000 1.0
C      1  0.4916530000000  0.4618310000000  0.4747340000000 1.0
C      1  0.5673260000000  0.5065930000000  0.4724330000000 1.0
C      1  0.4927510000000  0.4866490000000  0.5378320000000 1.0
C      1  0.4693340000000  0.5024390000000  0.5280730000000 1.0
END
