TITL C-2441167-4473-673 0.0607447452269485 125000 -16421.2730385403 0 0 119 (C1) n - 1
REM
REM in /home/bkarasulu/work/CARBON/AIRSS/Generating-Clusters/ReaxFF-fromJPCA2015/Units_Real/with-SteepDescent/Higher-Symm
REM
REM
REM
REM
REM
REM ./C.cell (1df0a924f5614ab8850e4351716899ee)
REM
REM compiler GCC version 9.2.1 20190827 (Red Hat 9.2.1-1)
REM options -cpp -mtune=generic -march=x86-64 -g -O0 -fpre-include=/usr/include/finclude/math-vector-fortran.h
REM seed -1732865658 -1062234088 -377112159 -1540070360 -1000677786 -577575554 16720511 -92577403 -1118560084 236826429 1197363156 1309638215 -360758989 571315972 -1910821258 1362261123 -721341210 -561890242 787234912 882844396 -1477584704 937952400 942374596 1365758130 1928938306 -1730937564 572460980 -1854654765 -1369820264 -494645539 2061434761 1287789506 173820159
REM
CELL 1.54180   50.00000   50.00000   50.00000   90.00000   90.00000   90.00000
LATT -1
SFAC C  
C      1  0.4467220000000  0.5217870000000  0.4779800000000 1.0
C      1  0.4642720000000  0.5213450000000  0.5430800000000 1.0
C      1  0.5272170000000  0.5241340000000  0.5521710000000 1.0
C      1  0.5520900000000  0.5217190000000  0.4880560000000 1.0
C      1  0.5052600000000  0.5225070000000  0.4417740000000 1.0
C      1  0.5457660000000  0.5090720000000  0.4232080000000 1.0
C      1  0.4396250000000  0.5096560000000  0.4352080000000 1.0
C      1  0.4202670000000  0.5109630000000  0.5399770000000 1.0
C      1  0.5092030000000  0.5093890000000  0.5896750000000 1.0
C      1  0.5854790000000  0.5087470000000  0.5180930000000 1.0
C      1  0.4758470000000  0.4691180000000  0.5791660000000 1.0
C      1  0.5682790000000  0.4671820000000  0.5478750000000 1.0
C      1  0.5655410000000  0.4677700000000  0.4495270000000 1.0
C      1  0.4720940000000  0.4680920000000  0.4220890000000 1.0
C      1  0.4152260000000  0.4659730000000  0.4999230000000 1.0
C      1  0.4215690000000  0.4523730000000  0.4747760000000 1.0
C      1  0.4517470000000  0.4558520000000  0.5659200000000 1.0
C      1  0.5479770000000  0.4530220000000  0.5658650000000 1.0
C      1  0.5765350000000  0.4541330000000  0.4739100000000 1.0
C      1  0.4985080000000  0.4544140000000  0.4195810000000 1.0
C      1  0.4830830000000  0.4234760000000  0.5470340000000 1.0
C      1  0.5393490000000  0.4221510000000  0.5296420000000 1.0
C      1  0.5396000000000  0.4234410000000  0.4718320000000 1.0
C      1  0.4852690000000  0.4222610000000  0.4534980000000 1.0
C      1  0.4510180000000  0.4233580000000  0.4991650000000 1.0
C      1  0.4878580000000  0.5437440000000  0.4612180000000 1.0
C      1  0.4723000000000  0.5384710000000  0.4860020000000 1.0
C      1  0.4846840000000  0.5374440000000  0.5285110000000 1.0
C      1  0.5305060000000  0.5448120000000  0.5226150000000 1.0
C      1  0.5236420000000  0.5385040000000  0.4942210000000 1.0
C      1  0.5053280000000  0.4303210000000  0.4344840000000 1.0
C      1  0.4393760000000  0.4290340000000  0.4739570000000 1.0
C      1  0.4553030000000  0.4320780000000  0.5490690000000 1.0
C      1  0.5329280000000  0.4301530000000  0.5571510000000 1.0
C      1  0.5642900000000  0.4301490000000  0.4852350000000 1.0
C      1  0.5215690000000  0.4410670000000  0.4868170000000 1.0
C      1  0.4924220000000  0.4394860000000  0.4762950000000 1.0
C      1  0.4753850000000  0.4356410000000  0.4990650000000 1.0
C      1  0.4913750000000  0.4343290000000  0.5219110000000 1.0
C      1  0.5178570000000  0.4306050000000  0.5133320000000 1.0
C      1  0.4823980000000  0.4970020000000  0.4662510000000 1.0
C      1  0.4469340000000  0.4878550000000  0.5141390000000 1.0
C      1  0.4998550000000  0.4945620000000  0.5380370000000 1.0
C      1  0.5336990000000  0.4945780000000  0.5143290000000 1.0
C      1  0.5261720000000  0.4879640000000  0.4644930000000 1.0
C      1  0.5335730000000  0.4702590000000  0.5286170000000 1.0
C      1  0.5331180000000  0.4717790000000  0.4812010000000 1.0
C      1  0.4901440000000  0.4692770000000  0.4638060000000 1.0
C      1  0.4605330000000  0.4720190000000  0.4947080000000 1.0
C      1  0.4833520000000  0.4717730000000  0.5333190000000 1.0
C      1  0.4587520000000  0.4920850000000  0.5385350000000 1.0
C      1  0.5222950000000  0.4955900000000  0.5519800000000 1.0
C      1  0.5525260000000  0.4938170000000  0.4934060000000 1.0
C      1  0.5128840000000  0.4956780000000  0.4410610000000 1.0
C      1  0.4515850000000  0.4936530000000  0.4726750000000 1.0
C      1  0.5850220000000  0.4939380000000  0.4937000000000 1.0
C      1  0.5247930000000  0.4919260000000  0.4146470000000 1.0
C      1  0.4278250000000  0.4900820000000  0.4522970000000 1.0
C      1  0.4302680000000  0.4912530000000  0.5572760000000 1.0
C      1  0.5321130000000  0.4941180000000  0.5807710000000 1.0
C      1  0.5571150000000  0.5405860000000  0.4508740000000 1.0
C      1  0.4707260000000  0.5423550000000  0.4351370000000 1.0
C      1  0.4213220000000  0.5422670000000  0.5104230000000 1.0
C      1  0.4845460000000  0.5427210000000  0.5768540000000 1.0
C      1  0.5611580000000  0.5401030000000  0.5373610000000 1.0
C      1  0.4515150000000  0.4518850000000  0.4344980000000 1.0
C      1  0.4212580000000  0.4522680000000  0.5240870000000 1.0
C      1  0.5007060000000  0.4542000000000  0.5807760000000 1.0
C      1  0.5772580000000  0.4533880000000  0.5233790000000 1.0
C      1  0.5465850000000  0.4524750000000  0.4333970000000 1.0
C      1  0.5695710000000  0.5624830000000  0.4945910000000 1.0
C      1  0.5178200000000  0.5649810000000  0.4335070000000 1.0
C      1  0.4341390000000  0.5632980000000  0.4673680000000 1.0
C      1  0.4506880000000  0.5635770000000  0.5452050000000 1.0
C      1  0.5307150000000  0.5686340000000  0.5613140000000 1.0
C      1  0.5286290000000  0.4652730000000  0.5831370000000 1.0
C      1  0.5881460000000  0.4656010000000  0.4981560000000 1.0
C      1  0.5258580000000  0.4634570000000  0.4153140000000 1.0
C      1  0.4266390000000  0.4621020000000  0.4469420000000 1.0
C      1  0.4268020000000  0.4632250000000  0.5526690000000 1.0
C      1  0.5333510000000  0.4291440000000  0.4441850000000 1.0
C      1  0.4571250000000  0.4283250000000  0.4507600000000 1.0
C      1  0.4393110000000  0.4298310000000  0.5243110000000 1.0
C      1  0.5044780000000  0.4298900000000  0.5655010000000 1.0
C      1  0.5637950000000  0.4295640000000  0.5148850000000 1.0
C      1  0.4638360000000  0.4967390000000  0.4228780000000 1.0
C      1  0.4197730000000  0.4970100000000  0.5108880000000 1.0
C      1  0.4823010000000  0.4971380000000  0.5846800000000 1.0
C      1  0.5726080000000  0.4967100000000  0.5420720000000 1.0
C      1  0.5634880000000  0.4963110000000  0.4428540000000 1.0
C      1  0.5304410000000  0.5736500000000  0.4583400000000 1.0
C      1  0.4567560000000  0.5746300000000  0.4570480000000 1.0
C      1  0.4482780000000  0.5742220000000  0.5181400000000 1.0
C      1  0.5018200000000  0.5745910000000  0.5556520000000 1.0
C      1  0.5612700000000  0.5768320000000  0.5184100000000 1.0
C      1  0.4275190000000  0.5667040000000  0.4964720000000 1.0
C      1  0.4735470000000  0.5664140000000  0.5638730000000 1.0
C      1  0.5577610000000  0.5677070000000  0.5484920000000 1.0
C      1  0.5572600000000  0.5642710000000  0.4673180000000 1.0
C      1  0.4892510000000  0.5686920000000  0.4283390000000 1.0
C      1  0.4423310000000  0.5363060000000  0.4491250000000 1.0
C      1  0.4332300000000  0.5375880000000  0.5385240000000 1.0
C      1  0.5126910000000  0.5344740000000  0.5762550000000 1.0
C      1  0.5728570000000  0.5350790000000  0.5080280000000 1.0
C      1  0.5344920000000  0.5354800000000  0.4318680000000 1.0
C      1  0.5184800000000  0.5685010000000  0.4859200000000 1.0
C      1  0.4847330000000  0.5759050000000  0.4558360000000 1.0
C      1  0.4686110000000  0.5688530000000  0.4976820000000 1.0
C      1  0.4942800000000  0.5645220000000  0.5291580000000 1.0
C      1  0.5328450000000  0.5739040000000  0.5160750000000 1.0
C      1  0.4690650000000  0.5192330000000  0.5720650000000 1.0
C      1  0.5560370000000  0.5164880000000  0.5556910000000 1.0
C      1  0.5687320000000  0.5168620000000  0.4632220000000 1.0
C      1  0.4826040000000  0.5183450000000  0.4235230000000 1.0
C      1  0.4227480000000  0.5197730000000  0.4936870000000 1.0
C      1  0.5042650000000  0.4998870000000  0.5099370000000 1.0
C      1  0.4941990000000  0.5279570000000  0.5032740000000 1.0
C      1  0.4947450000000  0.5793590000000  0.5027810000000 1.0
C      1  0.4882000000000  0.4747840000000  0.5041180000000 1.0
END
