TITL C-2441162-9305-1495 0.197392988970845 125000 -24424.5729455525 0 0 191 (C1) n - 1
REM
REM in /home/bkarasulu/work/CARBON/AIRSS/Generating-Clusters/ReaxFF-fromJPCA2015/Units_Real/with-SteepDescent/Higher-Symm
REM
REM
REM
REM
REM
REM ./C.cell (1df0a924f5614ab8850e4351716899ee)
REM
REM compiler GCC version 9.2.1 20190827 (Red Hat 9.2.1-1)
REM options -cpp -mtune=generic -march=x86-64 -g -O0 -fpre-include=/usr/include/finclude/math-vector-fortran.h
REM seed 211259014 -94766439 1958763693 -1501102923 1990111275 -1872599483 1091290094 -409709823 -450191114 -848701665 1613029003 44463988 -1980679411 -731995282 1380151250 2089270192 -1303087214 1927198863 1648769351 2122973223 685812389 -1907878344 1204241841 1736453290 -1451382534 -661506539 1941892830 -1054565408 -1666694582 -272111726 -486308372 661861294 1551748292
REM
CELL 1.54180   50.00000   50.00000   50.00000   90.00000   90.00000   90.00000
LATT -1
SFAC C  
C      1  0.5523080000000  0.5521730000000  0.5857690000000 1.0
C      1  0.5048990000000  0.5768970000000  0.5855210000000 1.0
C      1  0.4405650000000  0.5444470000000  0.5889010000000 1.0
C      1  0.4197030000000  0.4896710000000  0.5901390000000 1.0
C      1  0.4789150000000  0.4324170000000  0.5847190000000 1.0
C      1  0.5333720000000  0.4381000000000  0.5900920000000 1.0
C      1  0.5721140000000  0.4686190000000  0.5817780000000 1.0
C      1  0.5517160000000  0.5576350000000  0.4871440000000 1.0
C      1  0.4877270000000  0.5759060000000  0.4836830000000 1.0
C      1  0.4312600000000  0.5366940000000  0.4833490000000 1.0
C      1  0.4310460000000  0.4700590000000  0.4806940000000 1.0
C      1  0.4807860000000  0.4261070000000  0.4830620000000 1.0
C      1  0.5452210000000  0.4396310000000  0.4854010000000 1.0
C      1  0.5819250000000  0.4997990000000  0.4831290000000 1.0
C      1  0.4842450000000  0.3927400000000  0.5189240000000 1.0
C      1  0.5723740000000  0.4240820000000  0.5154320000000 1.0
C      1  0.6071870000000  0.5094030000000  0.5209680000000 1.0
C      1  0.5571360000000  0.5895860000000  0.5183240000000 1.0
C      1  0.4674240000000  0.6018580000000  0.5185330000000 1.0
C      1  0.4014070000000  0.5364540000000  0.5171230000000 1.0
C      1  0.4166360000000  0.4468140000000  0.5175580000000 1.0
C      1  0.4496770000000  0.4601480000000  0.4244510000000 1.0
C      1  0.4997410000000  0.4396380000000  0.4155810000000 1.0
C      1  0.5469340000000  0.4586710000000  0.4184860000000 1.0
C      1  0.5641460000000  0.5114020000000  0.4200450000000 1.0
C      1  0.5350300000000  0.5613170000000  0.4238640000000 1.0
C      1  0.4772270000000  0.5554970000000  0.4174760000000 1.0
C      1  0.4391940000000  0.5169430000000  0.4203090000000 1.0
C      1  0.4380460000000  0.4074800000000  0.5197630000000 1.0
C      1  0.5321530000000  0.3939710000000  0.5181370000000 1.0
C      1  0.6049440000000  0.4609190000000  0.5184840000000 1.0
C      1  0.5987560000000  0.5583950000000  0.5174340000000 1.0
C      1  0.5164170000000  0.6134370000000  0.5198980000000 1.0
C      1  0.4219420000000  0.5819320000000  0.5179070000000 1.0
C      1  0.3854310000000  0.4904720000000  0.5172130000000 1.0
C      1  0.4188050000000  0.4722740000000  0.5685010000000 1.0
C      1  0.4744550000000  0.4140240000000  0.5611060000000 1.0
C      1  0.5454290000000  0.4308130000000  0.5647070000000 1.0
C      1  0.5859580000000  0.4883790000000  0.5620330000000 1.0
C      1  0.5595230000000  0.5578120000000  0.5572970000000 1.0
C      1  0.4938690000000  0.5859370000000  0.5584870000000 1.0
C      1  0.4295400000000  0.5470270000000  0.5587780000000 1.0
C      1  0.5671580000000  0.5728190000000  0.4690350000000 1.0
C      1  0.4818950000000  0.6003470000000  0.4696840000000 1.0
C      1  0.4144090000000  0.5482940000000  0.4644730000000 1.0
C      1  0.4078100000000  0.4605400000000  0.4663410000000 1.0
C      1  0.4719410000000  0.4003240000000  0.4726980000000 1.0
C      1  0.5566240000000  0.4212620000000  0.4644270000000 1.0
C      1  0.5962540000000  0.4904630000000  0.4594190000000 1.0
C      1  0.4433210000000  0.4084560000000  0.4703180000000 1.0
C      1  0.5297330000000  0.4036690000000  0.4665400000000 1.0
C      1  0.5997510000000  0.4609290000000  0.4653540000000 1.0
C      1  0.5930320000000  0.5576560000000  0.4696010000000 1.0
C      1  0.5109840000000  0.6085800000000  0.4704010000000 1.0
C      1  0.4245440000000  0.5763930000000  0.4672570000000 1.0
C      1  0.3922640000000  0.4863610000000  0.4675820000000 1.0
C      1  0.4243990000000  0.4965130000000  0.5461470000000 1.0
C      1  0.4547320000000  0.4399010000000  0.5482030000000 1.0
C      1  0.5256980000000  0.4303460000000  0.5445840000000 1.0
C      1  0.5668460000000  0.4689660000000  0.5411220000000 1.0
C      1  0.5685760000000  0.5336650000000  0.5416250000000 1.0
C      1  0.5165250000000  0.5747240000000  0.5391400000000 1.0
C      1  0.4498810000000  0.5643770000000  0.5500950000000 1.0
C      1  0.5125170000000  0.5302750000000  0.6024030000000 1.0
C      1  0.4835810000000  0.5290010000000  0.6022440000000 1.0
C      1  0.4678530000000  0.5051430000000  0.6007860000000 1.0
C      1  0.4753120000000  0.4776990000000  0.6013640000000 1.0
C      1  0.5024470000000  0.4687380000000  0.6029540000000 1.0
C      1  0.5281300000000  0.4819940000000  0.6028990000000 1.0
C      1  0.5330280000000  0.5102630000000  0.6006770000000 1.0
C      1  0.5764070000000  0.4644990000000  0.4268610000000 1.0
C      1  0.5733180000000  0.5388680000000  0.4288310000000 1.0
C      1  0.5134660000000  0.5827820000000  0.4286140000000 1.0
C      1  0.4477070000000  0.5615650000000  0.4270450000000 1.0
C      1  0.4189560000000  0.4941770000000  0.4279310000000 1.0
C      1  0.4566180000000  0.4312560000000  0.4299020000000 1.0
C      1  0.5243770000000  0.4199230000000  0.4255650000000 1.0
C      1  0.4627420000000  0.4021430000000  0.5331570000000 1.0
C      1  0.5511290000000  0.4112170000000  0.5300540000000 1.0
C      1  0.6025320000000  0.4849610000000  0.5349020000000 1.0
C      1  0.5760260000000  0.5738250000000  0.5220210000000 1.0
C      1  0.4916290000000  0.6056580000000  0.5325680000000 1.0
C      1  0.4136420000000  0.5578740000000  0.5311080000000 1.0
C      1  0.3993780000000  0.4671530000000  0.5198100000000 1.0
C      1  0.4728820000000  0.5618930000000  0.5644250000000 1.0
C      1  0.4389190000000  0.5192170000000  0.5580920000000 1.0
C      1  0.4402120000000  0.4528360000000  0.5709600000000 1.0
C      1  0.5030360000000  0.4138970000000  0.5544350000000 1.0
C      1  0.5612760000000  0.4535600000000  0.5614670000000 1.0
C      1  0.5719440000000  0.5148970000000  0.5649800000000 1.0
C      1  0.5315580000000  0.5538490000000  0.5505900000000 1.0
C      1  0.4799510000000  0.4505210000000  0.5350110000000 1.0
C      1  0.5241540000000  0.4577970000000  0.5358590000000 1.0
C      1  0.5511170000000  0.4918240000000  0.5334970000000 1.0
C      1  0.5170190000000  0.5254730000000  0.5212980000000 1.0
C      1  0.4842210000000  0.5467430000000  0.5290100000000 1.0
C      1  0.4672150000000  0.5107340000000  0.5218900000000 1.0
C      1  0.4478050000000  0.4811760000000  0.5380610000000 1.0
C      1  0.4568620000000  0.4885590000000  0.5133860000000 1.0
C      1  0.4805410000000  0.4657700000000  0.5104250000000 1.0
C      1  0.5148410000000  0.4678590000000  0.5100700000000 1.0
C      1  0.5394510000000  0.4910020000000  0.5081760000000 1.0
C      1  0.5326180000000  0.5181120000000  0.5023620000000 1.0
C      1  0.5046120000000  0.5467100000000  0.5151230000000 1.0
C      1  0.4668630000000  0.5346210000000  0.5123550000000 1.0
C      1  0.4672740000000  0.5525030000000  0.5932280000000 1.0
C      1  0.4400980000000  0.5146010000000  0.5919650000000 1.0
C      1  0.4604970000000  0.4536660000000  0.5910210000000 1.0
C      1  0.5046890000000  0.4411100000000  0.5946310000000 1.0
C      1  0.5482530000000  0.4620840000000  0.5975520000000 1.0
C      1  0.5569480000000  0.5235760000000  0.5888290000000 1.0
C      1  0.5235460000000  0.5573120000000  0.5954370000000 1.0
C      1  0.5825900000000  0.4466520000000  0.4480500000000 1.0
C      1  0.5843860000000  0.5341480000000  0.4550420000000 1.0
C      1  0.5221750000000  0.5861380000000  0.4559840000000 1.0
C      1  0.4499240000000  0.5745740000000  0.4529400000000 1.0
C      1  0.4100050000000  0.5040720000000  0.4535250000000 1.0
C      1  0.4408920000000  0.4324500000000  0.4542300000000 1.0
C      1  0.5098360000000  0.4065930000000  0.4458970000000 1.0
C      1  0.5517980000000  0.4658490000000  0.4770710000000 1.0
C      1  0.5634460000000  0.5212840000000  0.4749450000000 1.0
C      1  0.5260520000000  0.5605470000000  0.4767080000000 1.0
C      1  0.4698510000000  0.5578520000000  0.4738560000000 1.0
C      1  0.4336320000000  0.5106330000000  0.4755050000000 1.0
C      1  0.4523040000000  0.4552600000000  0.4745950000000 1.0
C      1  0.5038820000000  0.4390190000000  0.4760470000000 1.0
C      1  0.5101040000000  0.5701890000000  0.5003250000000 1.0
C      1  0.4521410000000  0.5494770000000  0.4943820000000 1.0
C      1  0.4334670000000  0.4918440000000  0.4968470000000 1.0
C      1  0.4653790000000  0.4446830000000  0.4976740000000 1.0
C      1  0.5202730000000  0.4420550000000  0.4974410000000 1.0
C      1  0.5633610000000  0.4813540000000  0.4968680000000 1.0
C      1  0.5575360000000  0.5339570000000  0.5016630000000 1.0
C      1  0.4242080000000  0.4672910000000  0.4364480000000 1.0
C      1  0.4834280000000  0.4206370000000  0.4304980000000 1.0
C      1  0.5485010000000  0.4327390000000  0.4338460000000 1.0
C      1  0.5825440000000  0.4922760000000  0.4337360000000 1.0
C      1  0.5599180000000  0.5629970000000  0.4380020000000 1.0
C      1  0.4862700000000  0.5771290000000  0.4347970000000 1.0
C      1  0.4291670000000  0.5415000000000  0.4357780000000 1.0
C      1  0.5081500000000  0.3947880000000  0.5348260000000 1.0
C      1  0.5813330000000  0.4493270000000  0.5274300000000 1.0
C      1  0.5963500000000  0.5340980000000  0.5330870000000 1.0
C      1  0.5343830000000  0.5959030000000  0.5339130000000 1.0
C      1  0.4461190000000  0.5859710000000  0.5330740000000 1.0
C      1  0.4014840000000  0.5097590000000  0.5307730000000 1.0
C      1  0.4339370000000  0.4311930000000  0.5331960000000 1.0
C      1  0.4330100000000  0.5913770000000  0.4906630000000 1.0
C      1  0.3853980000000  0.5049310000000  0.4892810000000 1.0
C      1  0.4262390000000  0.4155770000000  0.4927750000000 1.0
C      1  0.5196910000000  0.3919780000000  0.4906020000000 1.0
C      1  0.5996180000000  0.4464650000000  0.4910390000000 1.0
C      1  0.6048410000000  0.5440050000000  0.4919360000000 1.0
C      1  0.5294610000000  0.6101030000000  0.4928800000000 1.0
C      1  0.4906550000000  0.3876730000000  0.4910710000000 1.0
C      1  0.5821320000000  0.4237000000000  0.4876390000000 1.0
C      1  0.6064680000000  0.5148360000000  0.4920710000000 1.0
C      1  0.5553320000000  0.5968750000000  0.4910910000000 1.0
C      1  0.4596200000000  0.6038350000000  0.4900250000000 1.0
C      1  0.3927170000000  0.5329420000000  0.4887160000000 1.0
C      1  0.4089470000000  0.4385180000000  0.4907280000000 1.0
C      1  0.4649730000000  0.5121850000000  0.3972610000000 1.0
C      1  0.4771850000000  0.4854220000000  0.3990320000000 1.0
C      1  0.4989760000000  0.4660190000000  0.3932880000000 1.0
C      1  0.5261360000000  0.4762910000000  0.3947470000000 1.0
C      1  0.5338060000000  0.5037140000000  0.3964770000000 1.0
C      1  0.5153150000000  0.5261930000000  0.3957730000000 1.0
C      1  0.4857570000000  0.5311780000000  0.3972420000000 1.0
C      1  0.5398350000000  0.5116870000000  0.4342920000000 1.0
C      1  0.5249550000000  0.5335970000000  0.4220170000000 1.0
C      1  0.4824450000000  0.5293490000000  0.4396790000000 1.0
C      1  0.4620860000000  0.5084470000000  0.4388100000000 1.0
C      1  0.4719310000000  0.4756020000000  0.4378430000000 1.0
C      1  0.4987630000000  0.4632430000000  0.4358830000000 1.0
C      1  0.5311650000000  0.4777590000000  0.4356520000000 1.0
C      1  0.4730190000000  0.4763370000000  0.4666810000000 1.0
C      1  0.5010200000000  0.4647660000000  0.4647310000000 1.0
C      1  0.5303400000000  0.4810230000000  0.4651920000000 1.0
C      1  0.5371670000000  0.5129900000000  0.4623040000000 1.0
C      1  0.5156820000000  0.5306680000000  0.4734690000000 1.0
C      1  0.4853880000000  0.5329920000000  0.4680250000000 1.0
C      1  0.4649000000000  0.5069490000000  0.4691900000000 1.0
C      1  0.4664960000000  0.5133600000000  0.5500130000000 1.0
C      1  0.4681700000000  0.4850930000000  0.5573220000000 1.0
C      1  0.4906090000000  0.4682800000000  0.5557300000000 1.0
C      1  0.5183950000000  0.4765350000000  0.5565720000000 1.0
C      1  0.5338290000000  0.5005120000000  0.5550700000000 1.0
C      1  0.5194330000000  0.5263850000000  0.5499360000000 1.0
C      1  0.4872830000000  0.5350850000000  0.5552710000000 1.0
C      1  0.5020210000000  0.5062670000000  0.4426410000000 1.0
C      1  0.4964020000000  0.4978530000000  0.4163480000000 1.0
END
