TITL C-2441164-471-1208 0.00759496794773252 125000 -7945.53311608946 0 0 56 (C1) n - 1
REM
REM in /home/bkarasulu/work/CARBON/AIRSS/Generating-Clusters/ReaxFF-fromJPCA2015/Units_Real/with-SteepDescent/Higher-Symm
REM
REM
REM
REM
REM
REM ./C.cell (1df0a924f5614ab8850e4351716899ee)
REM
REM compiler GCC version 9.2.1 20190827 (Red Hat 9.2.1-1)
REM options -cpp -mtune=generic -march=x86-64 -g -O0 -fpre-include=/usr/include/finclude/math-vector-fortran.h
REM seed 1064193740 1023744985 821940743 1255484755 -1624589882 1869655125 -1041996970 -1702803073 -1993775872 2075515305 1154783100 -588113072 -1146668428 -1198728211 305269303 -432426242 -188000964 355326589 -1979691883 -1409713974 965136977 -1539971492 1260494732 1573837572 669975674 -531846172 1395255274 -232378647 516866288 -1827686480 -1937734278 1436523543 -108166701
REM
CELL 1.54180   50.00000   50.00000   50.00000   90.00000   90.00000   90.00000
LATT -1
SFAC C  
C      1  0.4921260000000  0.4500950000000  0.5407380000000 1.0
C      1  0.4911860000000  0.4378280000000  0.4855360000000 1.0
C      1  0.4956000000000  0.4724480000000  0.4455440000000 1.0
C      1  0.4911980000000  0.5277570000000  0.4411260000000 1.0
C      1  0.4920320000000  0.5624350000000  0.4838570000000 1.0
C      1  0.4898110000000  0.5524800000000  0.5392930000000 1.0
C      1  0.4930810000000  0.5007640000000  0.5625910000000 1.0
C      1  0.4285400000000  0.4853950000000  0.5296150000000 1.0
C      1  0.4298360000000  0.4676990000000  0.5063900000000 1.0
C      1  0.4291490000000  0.4748970000000  0.4782390000000 1.0
C      1  0.4317150000000  0.5008660000000  0.4664050000000 1.0
C      1  0.4301060000000  0.5266650000000  0.4791380000000 1.0
C      1  0.4304540000000  0.5327840000000  0.5075420000000 1.0
C      1  0.4304420000000  0.5145270000000  0.5299160000000 1.0
C      1  0.4581920000000  0.4824940000000  0.5377470000000 1.0
C      1  0.4590540000000  0.4622860000000  0.5086740000000 1.0
C      1  0.4582250000000  0.4703660000000  0.4721200000000 1.0
C      1  0.4589240000000  0.4955850000000  0.4591950000000 1.0
C      1  0.4573680000000  0.5367590000000  0.4771560000000 1.0
C      1  0.4577350000000  0.5428330000000  0.5046600000000 1.0
C      1  0.4578200000000  0.5129860000000  0.5408510000000 1.0
C      1  0.5200360000000  0.5649390000000  0.4776120000000 1.0
C      1  0.5173250000000  0.5606800000000  0.5392800000000 1.0
C      1  0.5205990000000  0.5001220000000  0.5690060000000 1.0
C      1  0.5198330000000  0.4478730000000  0.5485910000000 1.0
C      1  0.5197490000000  0.4340580000000  0.4881440000000 1.0
C      1  0.5225130000000  0.4647580000000  0.4352810000000 1.0
C      1  0.5175180000000  0.5213070000000  0.4338010000000 1.0
C      1  0.5440240000000  0.5113370000000  0.4353550000000 1.0
C      1  0.5469810000000  0.5533990000000  0.4731910000000 1.0
C      1  0.5450360000000  0.5630140000000  0.5285930000000 1.0
C      1  0.5546430000000  0.5151880000000  0.5535810000000 1.0
C      1  0.5451760000000  0.4604500000000  0.5534420000000 1.0
C      1  0.5562960000000  0.4454820000000  0.5022150000000 1.0
C      1  0.5462480000000  0.4556900000000  0.4500990000000 1.0
C      1  0.5455840000000  0.4401510000000  0.4762820000000 1.0
C      1  0.5468450000000  0.4804830000000  0.4349370000000 1.0
C      1  0.5491330000000  0.5255120000000  0.4602530000000 1.0
C      1  0.5516310000000  0.5555090000000  0.5013690000000 1.0
C      1  0.5536010000000  0.5382700000000  0.5402850000000 1.0
C      1  0.5461520000000  0.4908800000000  0.5654570000000 1.0
C      1  0.5561450000000  0.4519210000000  0.5281150000000 1.0
C      1  0.5196650000000  0.5044940000000  0.5228650000000 1.0
C      1  0.5236960000000  0.4782920000000  0.5232890000000 1.0
C      1  0.5201000000000  0.4650950000000  0.4973910000000 1.0
C      1  0.5225990000000  0.4860720000000  0.4824380000000 1.0
C      1  0.5256260000000  0.5126970000000  0.4740740000000 1.0
C      1  0.5180770000000  0.5323180000000  0.4934810000000 1.0
C      1  0.5164400000000  0.5280130000000  0.5175000000000 1.0
C      1  0.4815940000000  0.4743450000000  0.5531960000000 1.0
C      1  0.4799870000000  0.4435400000000  0.5125670000000 1.0
C      1  0.4817440000000  0.4549150000000  0.4636150000000 1.0
C      1  0.4823930000000  0.4990560000000  0.4425140000000 1.0
C      1  0.4799950000000  0.5459560000000  0.4625560000000 1.0
C      1  0.4801510000000  0.5585630000000  0.5117610000000 1.0
C      1  0.4802690000000  0.5256710000000  0.5515240000000 1.0
END
