TITL C-2441156-4686-462 0.000208331553859599 125000 -12008.6619036808 0 0 80 (C2) n - 1
REM
REM in /home/bkarasulu/work/CARBON/AIRSS/Generating-Clusters/ReaxFF-fromJPCA2015/Units_Real/with-SteepDescent/Higher-Symm
REM
REM
REM
REM
REM
REM ./C.cell (1df0a924f5614ab8850e4351716899ee)
REM
REM compiler GCC version 9.2.1 20190827 (Red Hat 9.2.1-1)
REM options -cpp -mtune=generic -march=x86-64 -g -O0 -fpre-include=/usr/include/finclude/math-vector-fortran.h
REM seed -482426059 1996541545 -1603685201 -2041682090 -1052415531 352704676 708857441 -781785905 -1207061138 1798340490 1996011523 -1052714021 1659808573 -1169203629 873345644 1012449378 1058373595 -1291691598 824017476 714598971 -216518296 -137550627 1800155357 914855866 -332791352 -735642056 -96287027 -625169757 -211475064 -497731154 195012026 -717540036 808156143
REM
CELL 1.54180   50.00000   50.00000   50.00000   90.00000   90.00000   90.00000
LATT -1
SFAC C  
C      1  0.4946180000000  0.5682580000000  0.4420000000000 1.0
C      1  0.4480890000000  0.5423940000000  0.4417580000000 1.0
C      1  0.4316150000000  0.4946010000000  0.4421960000000 1.0
C      1  0.4575760000000  0.4481110000000  0.4419560000000 1.0
C      1  0.5054000000000  0.4316800000000  0.4420030000000 1.0
C      1  0.5518600000000  0.4576510000000  0.4417050000000 1.0
C      1  0.5683930000000  0.5054040000000  0.4421640000000 1.0
C      1  0.5424570000000  0.5518680000000  0.4419070000000 1.0
C      1  0.5312480000000  0.5628240000000  0.5048540000000 1.0
C      1  0.4758290000000  0.5672260000000  0.5069460000000 1.0
C      1  0.4371970000000  0.5312780000000  0.5050400000000 1.0
C      1  0.4329020000000  0.4759920000000  0.5074580000000 1.0
C      1  0.4686960000000  0.4371590000000  0.5048880000000 1.0
C      1  0.5241410000000  0.4327650000000  0.5069150000000 1.0
C      1  0.5627750000000  0.4687100000000  0.5049730000000 1.0
C      1  0.5670440000000  0.5240230000000  0.5074210000000 1.0
C      1  0.4436140000000  0.5268360000000  0.5350530000000 1.0
C      1  0.4350710000000  0.4769660000000  0.5367880000000 1.0
C      1  0.4728330000000  0.4427240000000  0.5349610000000 1.0
C      1  0.5237090000000  0.4341570000000  0.5363780000000 1.0
C      1  0.5566000000000  0.4730720000000  0.5350250000000 1.0
C      1  0.5649410000000  0.5231110000000  0.5367900000000 1.0
C      1  0.5270950000000  0.5572830000000  0.5349280000000 1.0
C      1  0.4762020000000  0.5657960000000  0.5363960000000 1.0
C      1  0.4988570000000  0.4245410000000  0.4680200000000 1.0
C      1  0.5511360000000  0.4409830000000  0.4644980000000 1.0
C      1  0.5753600000000  0.4989060000000  0.4682400000000 1.0
C      1  0.5591010000000  0.5510470000000  0.4647520000000 1.0
C      1  0.5011790000000  0.5754490000000  0.4679940000000 1.0
C      1  0.4488500000000  0.5590260000000  0.4645760000000 1.0
C      1  0.4246660000000  0.5011200000000  0.4682720000000 1.0
C      1  0.4409190000000  0.4489710000000  0.4647900000000 1.0
C      1  0.4470210000000  0.4537440000000  0.4934100000000 1.0
C      1  0.4959860000000  0.4266850000000  0.4956230000000 1.0
C      1  0.5464070000000  0.4471190000000  0.4931170000000 1.0
C      1  0.5732340000000  0.4959750000000  0.4958600000000 1.0
C      1  0.5529530000000  0.5462780000000  0.4933630000000 1.0
C      1  0.5039760000000  0.5733160000000  0.4956080000000 1.0
C      1  0.4535740000000  0.5528490000000  0.4931860000000 1.0
C      1  0.4267380000000  0.5040630000000  0.4958950000000 1.0
C      1  0.5290020000000  0.5135590000000  0.4814020000000 1.0
C      1  0.5115970000000  0.5321380000000  0.4679140000000 1.0
C      1  0.4864320000000  0.5290700000000  0.4812580000000 1.0
C      1  0.4678770000000  0.5115180000000  0.4678740000000 1.0
C      1  0.4709950000000  0.4864030000000  0.4812620000000 1.0
C      1  0.4884870000000  0.4678510000000  0.4678620000000 1.0
C      1  0.5135700000000  0.4709670000000  0.4813220000000 1.0
C      1  0.5321570000000  0.4884820000000  0.4679540000000 1.0
C      1  0.4609630000000  0.5018300000000  0.5694480000000 1.0
C      1  0.4708150000000  0.4741600000000  0.5697060000000 1.0
C      1  0.4981440000000  0.4616770000000  0.5697960000000 1.0
C      1  0.5258020000000  0.4714680000000  0.5699880000000 1.0
C      1  0.5390910000000  0.4982300000000  0.5694270000000 1.0
C      1  0.5291680000000  0.5259030000000  0.5696970000000 1.0
C      1  0.5018260000000  0.5383480000000  0.5698220000000 1.0
C      1  0.4741930000000  0.5285570000000  0.5700530000000 1.0
C      1  0.5347670000000  0.4356140000000  0.4417630000000 1.0
C      1  0.5461250000000  0.4850730000000  0.4431960000000 1.0
C      1  0.5644980000000  0.5347850000000  0.4419290000000 1.0
C      1  0.5150470000000  0.5460800000000  0.4431650000000 1.0
C      1  0.4652400000000  0.5643850000000  0.4418480000000 1.0
C      1  0.4538470000000  0.5149760000000  0.4431730000000 1.0
C      1  0.4355570000000  0.4652240000000  0.4419610000000 1.0
C      1  0.4849960000000  0.4538750000000  0.4431360000000 1.0
C      1  0.5460040000000  0.5397550000000  0.5512770000000 1.0
C      1  0.5005110000000  0.5606230000000  0.5516380000000 1.0
C      1  0.4608950000000  0.5465930000000  0.5520110000000 1.0
C      1  0.4394950000000  0.5020680000000  0.5507180000000 1.0
C      1  0.4539690000000  0.4603150000000  0.5512880000000 1.0
C      1  0.4994080000000  0.4393470000000  0.5516550000000 1.0
C      1  0.5390540000000  0.4533690000000  0.5519720000000 1.0
C      1  0.5606130000000  0.4980460000000  0.5507870000000 1.0
C      1  0.4865410000000  0.4686540000000  0.5240550000000 1.0
C      1  0.5112720000000  0.4716520000000  0.5101520000000 1.0
C      1  0.5311840000000  0.4864800000000  0.5237700000000 1.0
C      1  0.5280860000000  0.5112770000000  0.5102160000000 1.0
C      1  0.5134190000000  0.5313270000000  0.5240650000000 1.0
C      1  0.4887430000000  0.5283380000000  0.5100730000000 1.0
C      1  0.4688440000000  0.5134100000000  0.5235970000000 1.0
C      1  0.4719000000000  0.4886090000000  0.5100590000000 1.0
END
