TITL C-2441158-471-556 0.174382973860037 125000 -25640.087468938 0 0 200 (C1) n - 1
REM
REM in /home/bkarasulu/work/CARBON/AIRSS/Generating-Clusters/ReaxFF-fromJPCA2015/Units_Real/with-SteepDescent/Higher-Symm
REM
REM
REM
REM
REM
REM ./C.cell (1df0a924f5614ab8850e4351716899ee)
REM
REM compiler GCC version 9.2.1 20190827 (Red Hat 9.2.1-1)
REM options -cpp -mtune=generic -march=x86-64 -g -O0 -fpre-include=/usr/include/finclude/math-vector-fortran.h
REM seed 1347860955 777105651 -314836886 -1002574419 -505299113 1305192175 -810166257 1652477362 1462371950 716775342 -1580976766 962179542 1679711632 697258995 -1471517745 -660269214 -20800790 1659061861 496020361 -709616907 -1795954889 93631321 428186782 -1281758430 -215580465 327511237 1144299855 1154739348 -1395662499 -728948473 -581956889 1051134266 -1212963793
REM
CELL 1.54180   50.00000   50.00000   50.00000   90.00000   90.00000   90.00000
LATT -1
SFAC C  
C      1  0.4787930000000  0.4145090000000  0.5451140000000 1.0
C      1  0.4345520000000  0.5657600000000  0.5453290000000 1.0
C      1  0.5881350000000  0.5216380000000  0.5478210000000 1.0
C      1  0.4329470000000  0.4720430000000  0.4903480000000 1.0
C      1  0.5091070000000  0.5604950000000  0.4916170000000 1.0
C      1  0.5458220000000  0.4496020000000  0.4981540000000 1.0
C      1  0.4002800000000  0.5176520000000  0.5068900000000 1.0
C      1  0.5620230000000  0.5772550000000  0.5062940000000 1.0
C      1  0.5335600000000  0.4046580000000  0.5080960000000 1.0
C      1  0.5550290000000  0.4879290000000  0.5894420000000 1.0
C      1  0.4581530000000  0.4593740000000  0.5863700000000 1.0
C      1  0.4746370000000  0.5487680000000  0.5944490000000 1.0
C      1  0.4401290000000  0.4918060000000  0.5437080000000 1.0
C      1  0.5190630000000  0.5499690000000  0.5492820000000 1.0
C      1  0.5379100000000  0.4528420000000  0.5477940000000 1.0
C      1  0.4436370000000  0.5898770000000  0.4795140000000 1.0
C      1  0.6055810000000  0.5050810000000  0.4812540000000 1.0
C      1  0.4498040000000  0.4044850000000  0.4819700000000 1.0
C      1  0.4731550000000  0.4405140000000  0.5040550000000 1.0
C      1  0.4572950000000  0.5488190000000  0.5080100000000 1.0
C      1  0.5637750000000  0.5194550000000  0.5095120000000 1.0
C      1  0.5170040000000  0.4516990000000  0.4949100000000 1.0
C      1  0.4527250000000  0.5216000000000  0.5002130000000 1.0
C      1  0.5419490000000  0.5305520000000  0.4945460000000 1.0
C      1  0.5567390000000  0.4817730000000  0.4726590000000 1.0
C      1  0.4585860000000  0.4499920000000  0.4605490000000 1.0
C      1  0.4813730000000  0.5598420000000  0.4608850000000 1.0
C      1  0.5313200000000  0.4494790000000  0.4194680000000 1.0
C      1  0.4436220000000  0.4946320000000  0.4192690000000 1.0
C      1  0.5235400000000  0.5535110000000  0.4187060000000 1.0
C      1  0.5545750000000  0.5359780000000  0.4681590000000 1.0
C      1  0.5061790000000  0.4349880000000  0.4717300000000 1.0
C      1  0.4418990000000  0.5283250000000  0.4729850000000 1.0
C      1  0.4921890000000  0.4279200000000  0.5921980000000 1.0
C      1  0.4312800000000  0.5476710000000  0.5904870000000 1.0
C      1  0.5675730000000  0.5307470000000  0.5915960000000 1.0
C      1  0.5916270000000  0.4733440000000  0.5226980000000 1.0
C      1  0.4325150000000  0.4310420000000  0.5242600000000 1.0
C      1  0.4758600000000  0.5930580000000  0.5252930000000 1.0
C      1  0.4098420000000  0.4312700000000  0.4784820000000 1.0
C      1  0.4832840000000  0.6077380000000  0.4798290000000 1.0
C      1  0.6041770000000  0.4562500000000  0.4788470000000 1.0
C      1  0.4463730000000  0.5858210000000  0.5293470000000 1.0
C      1  0.5999600000000  0.5026270000000  0.5304070000000 1.0
C      1  0.4543960000000  0.4113530000000  0.5307380000000 1.0
C      1  0.4956450000000  0.4784260000000  0.6125440000000 1.0
C      1  0.5003470000000  0.5065040000000  0.6103550000000 1.0
C      1  0.5243430000000  0.5077170000000  0.6164700000000 1.0
C      1  0.5285570000000  0.5445050000000  0.4512240000000 1.0
C      1  0.5092690000000  0.4532840000000  0.4431420000000 1.0
C      1  0.4566210000000  0.5128960000000  0.4417490000000 1.0
C      1  0.5130010000000  0.4794690000000  0.4559710000000 1.0
C      1  0.4740920000000  0.4955640000000  0.4560490000000 1.0
C      1  0.5104600000000  0.5250680000000  0.4609930000000 1.0
C      1  0.5084270000000  0.6082240000000  0.4659380000000 1.0
C      1  0.5964830000000  0.4548780000000  0.4513190000000 1.0
C      1  0.4117890000000  0.4396610000000  0.4509450000000 1.0
C      1  0.5310950000000  0.5312440000000  0.3993920000000 1.0
C      1  0.5133210000000  0.4569630000000  0.3968470000000 1.0
C      1  0.4568410000000  0.5091460000000  0.3959150000000 1.0
C      1  0.4737680000000  0.5627800000000  0.3992270000000 1.0
C      1  0.5682480000000  0.4891220000000  0.4031410000000 1.0
C      1  0.4570330000000  0.4462500000000  0.4007790000000 1.0
C      1  0.5514450000000  0.5857770000000  0.4799700000000 1.0
C      1  0.5427710000000  0.4106880000000  0.4794190000000 1.0
C      1  0.4015190000000  0.5059860000000  0.4792770000000 1.0
C      1  0.5286660000000  0.4461520000000  0.5986880000000 1.0
C      1  0.4401010000000  0.5075840000000  0.5978950000000 1.0
C      1  0.5330190000000  0.5524410000000  0.5964260000000 1.0
C      1  0.5173380000000  0.4364230000000  0.5424520000000 1.0
C      1  0.4343210000000  0.5190340000000  0.5419780000000 1.0
C      1  0.5460070000000  0.5455660000000  0.5423790000000 1.0
C      1  0.5340200000000  0.4120910000000  0.4503490000000 1.0
C      1  0.4074200000000  0.5133580000000  0.4499600000000 1.0
C      1  0.5557640000000  0.5794240000000  0.4490170000000 1.0
C      1  0.4390810000000  0.4707310000000  0.4634070000000 1.0
C      1  0.5104340000000  0.5652120000000  0.4632820000000 1.0
C      1  0.5559820000000  0.4617860000000  0.4518080000000 1.0
C      1  0.5902070000000  0.5231720000000  0.4307280000000 1.0
C      1  0.4803000000000  0.4131660000000  0.4298550000000 1.0
C      1  0.4351740000000  0.5606140000000  0.4305960000000 1.0
C      1  0.5808040000000  0.5601320000000  0.5198070000000 1.0
C      1  0.5091550000000  0.4010850000000  0.5229160000000 1.0
C      1  0.4090800000000  0.5411170000000  0.5212000000000 1.0
C      1  0.5938460000000  0.5532900000000  0.4984900000000 1.0
C      1  0.4939460000000  0.3926250000000  0.5008300000000 1.0
C      1  0.4090190000000  0.5595480000000  0.4998620000000 1.0
C      1  0.5948870000000  0.5479030000000  0.4446050000000 1.0
C      1  0.4881590000000  0.3938310000000  0.4505060000000 1.0
C      1  0.4131250000000  0.5629420000000  0.4494960000000 1.0
C      1  0.4130550000000  0.4206240000000  0.5055810000000 1.0
C      1  0.4750400000000  0.6136790000000  0.5061920000000 1.0
C      1  0.6123380000000  0.4641450000000  0.5057020000000 1.0
C      1  0.5432810000000  0.5274470000000  0.6101930000000 1.0
C      1  0.5029040000000  0.4503670000000  0.6095020000000 1.0
C      1  0.4520020000000  0.5337000000000  0.6044560000000 1.0
C      1  0.4801080000000  0.5141100000000  0.5632460000000 1.0
C      1  0.5188300000000  0.4985010000000  0.5521300000000 1.0
C      1  0.4915930000000  0.4886190000000  0.5590490000000 1.0
C      1  0.5524630000000  0.5134550000000  0.4073050000000 1.0
C      1  0.4868860000000  0.4456410000000  0.4005950000000 1.0
C      1  0.4579620000000  0.5374980000000  0.4003720000000 1.0
C      1  0.4994260000000  0.4042680000000  0.4748090000000 1.0
C      1  0.4169780000000  0.5489270000000  0.4743230000000 1.0
C      1  0.5838650000000  0.5491520000000  0.4728250000000 1.0
C      1  0.4546720000000  0.4858980000000  0.5871690000000 1.0
C      1  0.5142160000000  0.5434010000000  0.5767550000000 1.0
C      1  0.5333720000000  0.4705140000000  0.5844350000000 1.0
C      1  0.4181100000000  0.5219160000000  0.5838890000000 1.0
C      1  0.5589300000000  0.5575010000000  0.5825000000000 1.0
C      1  0.5191960000000  0.4219050000000  0.5851550000000 1.0
C      1  0.4763760000000  0.5916610000000  0.4370390000000 1.0
C      1  0.5981670000000  0.4812910000000  0.4402080000000 1.0
C      1  0.4323870000000  0.4228510000000  0.4387700000000 1.0
C      1  0.5107420000000  0.5120170000000  0.4044070000000 1.0
C      1  0.5058560000000  0.4841170000000  0.4007880000000 1.0
C      1  0.4838890000000  0.5025220000000  0.4001320000000 1.0
C      1  0.4229400000000  0.4500480000000  0.5618840000000 1.0
C      1  0.4931570000000  0.5890350000000  0.5657650000000 1.0
C      1  0.5828090000000  0.4571210000000  0.5618290000000 1.0
C      1  0.5310340000000  0.4977550000000  0.5770400000000 1.0
C      1  0.4818130000000  0.4748330000000  0.5864010000000 1.0
C      1  0.4921940000000  0.5280460000000  0.5854430000000 1.0
C      1  0.5186760000000  0.5811710000000  0.5582300000000 1.0
C      1  0.5592970000000  0.4401250000000  0.5625830000000 1.0
C      1  0.4207720000000  0.4791370000000  0.5609360000000 1.0
C      1  0.5364660000000  0.4800020000000  0.5407960000000 1.0
C      1  0.4810030000000  0.4692540000000  0.5411600000000 1.0
C      1  0.4775660000000  0.5321780000000  0.5426870000000 1.0
C      1  0.5476640000000  0.5875050000000  0.5561290000000 1.0
C      1  0.5538330000000  0.4125360000000  0.5548000000000 1.0
C      1  0.3986900000000  0.4985510000000  0.5563280000000 1.0
C      1  0.5005760000000  0.6009130000000  0.5396580000000 1.0
C      1  0.5898230000000  0.4478160000000  0.5350360000000 1.0
C      1  0.4111490000000  0.4474060000000  0.5359700000000 1.0
C      1  0.4978450000000  0.5448130000000  0.5313060000000 1.0
C      1  0.5443960000000  0.4862180000000  0.5174970000000 1.0
C      1  0.4584200000000  0.4765410000000  0.5284120000000 1.0
C      1  0.4662270000000  0.5419280000000  0.4695640000000 1.0
C      1  0.5593400000000  0.5081790000000  0.4571320000000 1.0
C      1  0.4803210000000  0.4480660000000  0.4775130000000 1.0
C      1  0.4489340000000  0.4564520000000  0.5098880000000 1.0
C      1  0.4869540000000  0.5632700000000  0.5111200000000 1.0
C      1  0.5640580000000  0.4713890000000  0.5043290000000 1.0
C      1  0.5086990000000  0.5930450000000  0.4407650000000 1.0
C      1  0.5718850000000  0.4382170000000  0.4479140000000 1.0
C      1  0.4138940000000  0.4690600000000  0.4471870000000 1.0
C      1  0.4112130000000  0.5237370000000  0.5560950000000 1.0
C      1  0.5630890000000  0.5636640000000  0.5542140000000 1.0
C      1  0.5244270000000  0.4121420000000  0.5573800000000 1.0
C      1  0.5585340000000  0.4081820000000  0.5264990000000 1.0
C      1  0.3930240000000  0.4953730000000  0.5274820000000 1.0
C      1  0.5479840000000  0.5948550000000  0.5272910000000 1.0
C      1  0.4153640000000  0.5380690000000  0.4335960000000 1.0
C      1  0.5712530000000  0.5604680000000  0.4353660000000 1.0
C      1  0.5091820000000  0.4057780000000  0.4339190000000 1.0
C      1  0.4465150000000  0.4376360000000  0.5745090000000 1.0
C      1  0.4724410000000  0.5722710000000  0.5779870000000 1.0
C      1  0.5801480000000  0.4833220000000  0.5756880000000 1.0
C      1  0.4668370000000  0.4098670000000  0.5048140000000 1.0
C      1  0.4377810000000  0.5735460000000  0.5032850000000 1.0
C      1  0.5911360000000  0.5126260000000  0.5048850000000 1.0
C      1  0.3989540000000  0.4694150000000  0.5186280000000 1.0
C      1  0.5239950000000  0.6029130000000  0.5165750000000 1.0
C      1  0.5773730000000  0.4272180000000  0.5170400000000 1.0
C      1  0.4556410000000  0.6146360000000  0.4857360000000 1.0
C      1  0.6180900000000  0.4803660000000  0.4852470000000 1.0
C      1  0.4225060000000  0.4066340000000  0.4854710000000 1.0
C      1  0.4855230000000  0.4587510000000  0.4266350000000 1.0
C      1  0.4712960000000  0.5325710000000  0.4260270000000 1.0
C      1  0.5436390000000  0.5025100000000  0.4326340000000 1.0
C      1  0.5604850000000  0.5229270000000  0.5365880000000 1.0
C      1  0.4903880000000  0.4426380000000  0.5329510000000 1.0
C      1  0.4514950000000  0.5401380000000  0.5349250000000 1.0
C      1  0.5281280000000  0.4998430000000  0.5012640000000 1.0
C      1  0.4986170000000  0.4747200000000  0.5006560000000 1.0
C      1  0.4808080000000  0.5124400000000  0.4988980000000 1.0
C      1  0.5846400000000  0.5126790000000  0.5754100000000 1.0
C      1  0.4711410000000  0.4220130000000  0.5721490000000 1.0
C      1  0.4437510000000  0.5676580000000  0.5727260000000 1.0
C      1  0.5506640000000  0.4746290000000  0.4250260000000 1.0
C      1  0.4581280000000  0.4668250000000  0.4213830000000 1.0
C      1  0.4920450000000  0.5518900000000  0.4191180000000 1.0
C      1  0.5907050000000  0.5046310000000  0.4560900000000 1.0
C      1  0.4532540000000  0.4219980000000  0.4593300000000 1.0
C      1  0.4611640000000  0.5804070000000  0.4591420000000 1.0
C      1  0.5342720000000  0.5800570000000  0.4294500000000 1.0
C      1  0.5500150000000  0.4272960000000  0.4312470000000 1.0
C      1  0.4141540000000  0.4929650000000  0.4308630000000 1.0
C      1  0.4544010000000  0.4229370000000  0.4191560000000 1.0
C      1  0.4579230000000  0.5779420000000  0.4194170000000 1.0
C      1  0.5926400000000  0.4970980000000  0.4167990000000 1.0
C      1  0.4051240000000  0.4788570000000  0.4912830000000 1.0
C      1  0.5286810000000  0.6015180000000  0.4871980000000 1.0
C      1  0.5634440000000  0.4281920000000  0.4905580000000 1.0
C      1  0.4768800000000  0.4867930000000  0.4839030000000 1.0
C      1  0.5109450000000  0.5321940000000  0.4886050000000 1.0
C      1  0.5298620000000  0.4865140000000  0.4769400000000 1.0
C      1  0.4998920000000  0.5028910000000  0.4469060000000 1.0
C      1  0.5015110000000  0.4990400000000  0.5160620000000 1.0
END
