TITL C-2441154-10-767 0.00460760190152794 125000 -8263.36933578617 0 0 54 (C1) n - 1
REM
REM in /home/bkarasulu/work/CARBON/AIRSS/Generating-Clusters/ReaxFF-fromJPCA2015/Units_Real/with-SteepDescent/Higher-Symm
REM
REM
REM
REM
REM
REM ./C.cell (1df0a924f5614ab8850e4351716899ee)
REM
REM compiler GCC version 9.2.1 20190827 (Red Hat 9.2.1-1)
REM options -cpp -mtune=generic -march=x86-64 -g -O0 -fpre-include=/usr/include/finclude/math-vector-fortran.h
REM seed -2034711171 1033995641 1309430458 -433907611 -1315788380 1970125098 -1666873710 -1842227691 -585746147 1976727523 1199832299 1285781945 -1214368559 1112027792 1443135499 738466912 -552003408 1386369516 1336737267 -1473684738 505616059 -7588641 -586895321 320765878 -1518344312 -1735194841 -478820694 -614517155 -966502844 634336456 -995033157 -1798256851 1906817648
REM
CELL 1.54180   50.00000   50.00000   50.00000   90.00000   90.00000   90.00000
LATT -1
SFAC C  
C      1  0.4587910000000  0.4595410000000  0.4693800000000 1.0
C      1  0.4415260000000  0.5071230000000  0.4681220000000 1.0
C      1  0.4528630000000  0.5330230000000  0.4700260000000 1.0
C      1  0.4964390000000  0.5595100000000  0.4679460000000 1.0
C      1  0.5244320000000  0.5537670000000  0.4690490000000 1.0
C      1  0.5577560000000  0.5138970000000  0.4683140000000 1.0
C      1  0.5586760000000  0.4839980000000  0.4693050000000 1.0
C      1  0.5225020000000  0.4473630000000  0.4682770000000 1.0
C      1  0.4811470000000  0.4414020000000  0.4669710000000 1.0
C      1  0.5053560000000  0.5665860000000  0.5294250000000 1.0
C      1  0.5473150000000  0.5489440000000  0.5330260000000 1.0
C      1  0.5668270000000  0.5072470000000  0.5308410000000 1.0
C      1  0.5564580000000  0.4623170000000  0.5321910000000 1.0
C      1  0.5199550000000  0.4351180000000  0.5321790000000 1.0
C      1  0.4727620000000  0.4388820000000  0.5292370000000 1.0
C      1  0.4386040000000  0.4698580000000  0.5334750000000 1.0
C      1  0.4351060000000  0.5167500000000  0.5296710000000 1.0
C      1  0.4598750000000  0.5553300000000  0.5329650000000 1.0
C      1  0.5394890000000  0.4836750000000  0.4454350000000 1.0
C      1  0.5199520000000  0.4618150000000  0.4440970000000 1.0
C      1  0.4908990000000  0.4578490000000  0.4436650000000 1.0
C      1  0.4677660000000  0.4752120000000  0.4474220000000 1.0
C      1  0.4582580000000  0.5019830000000  0.4445960000000 1.0
C      1  0.4695370000000  0.5287610000000  0.4469720000000 1.0
C      1  0.4944750000000  0.5418840000000  0.4443990000000 1.0
C      1  0.5227940000000  0.5355440000000  0.4470650000000 1.0
C      1  0.5401000000000  0.5127980000000  0.4452530000000 1.0
C      1  0.5024310000000  0.5421300000000  0.5452650000000 1.0
C      1  0.5290220000000  0.5308050000000  0.5468600000000 1.0
C      1  0.5418560000000  0.5047290000000  0.5452400000000 1.0
C      1  0.5357520000000  0.4767100000000  0.5456890000000 1.0
C      1  0.5127480000000  0.4592760000000  0.5463340000000 1.0
C      1  0.4835210000000  0.4611340000000  0.5450340000000 1.0
C      1  0.4620640000000  0.4807360000000  0.5473790000000 1.0
C      1  0.4586670000000  0.5097650000000  0.5454440000000 1.0
C      1  0.4744350000000  0.5342280000000  0.5471270000000 1.0
C      1  0.4411760000000  0.4618400000000  0.4919280000000 1.0
C      1  0.4320430000000  0.4891430000000  0.4892260000000 1.0
C      1  0.4517620000000  0.5499240000000  0.4915340000000 1.0
C      1  0.4766440000000  0.5640690000000  0.4893900000000 1.0
C      1  0.5403410000000  0.5558180000000  0.4911020000000 1.0
C      1  0.5588130000000  0.5339940000000  0.4898360000000 1.0
C      1  0.5654570000000  0.4720270000000  0.4937120000000 1.0
C      1  0.5365760000000  0.4442270000000  0.4903830000000 1.0
C      1  0.4921170000000  0.4310620000000  0.4907490000000 1.0
C      1  0.5738590000000  0.4809520000000  0.5190330000000 1.0
C      1  0.5443200000000  0.4403390000000  0.5174140000000 1.0
C      1  0.4963580000000  0.4239640000000  0.5175010000000 1.0
C      1  0.4471030000000  0.4473280000000  0.5176490000000 1.0
C      1  0.4263330000000  0.4915400000000  0.5174780000000 1.0
C      1  0.4390690000000  0.5430140000000  0.5172820000000 1.0
C      1  0.4793420000000  0.5710790000000  0.5173570000000 1.0
C      1  0.5317950000000  0.5670570000000  0.5169020000000 1.0
C      1  0.5667390000000  0.5329320000000  0.5178440000000 1.0
END
