TITL C-2441166-8118-478 0.0431509734788167 125000 -15545.7137719815 0 0 115 (C1) n - 1
REM
REM in /home/bkarasulu/work/CARBON/AIRSS/Generating-Clusters/ReaxFF-fromJPCA2015/Units_Real/with-SteepDescent/Higher-Symm
REM
REM
REM
REM
REM
REM ./C.cell (1df0a924f5614ab8850e4351716899ee)
REM
REM compiler GCC version 9.2.1 20190827 (Red Hat 9.2.1-1)
REM options -cpp -mtune=generic -march=x86-64 -g -O0 -fpre-include=/usr/include/finclude/math-vector-fortran.h
REM seed -194516978 -1783291691 200155360 2013763950 19257583 -520504738 -452300065 -1949881183 1521798406 1677136475 296478312 -532568736 872072536 1775454219 -1473212680 1889441034 -1627744526 2035022224 1899275279 1306213005 1132356828 -559413046 -1550212614 1578057966 -1432324506 -1560542099 1644118295 -1127691832 1540860482 -468546457 275572141 76160738 1555134608
REM
CELL 1.54180   50.00000   50.00000   50.00000   90.00000   90.00000   90.00000
LATT -1
SFAC C  
C      1  0.5111360000000  0.4630120000000  0.4795710000000 1.0
C      1  0.5107440000000  0.4658530000000  0.5314320000000 1.0
C      1  0.5021840000000  0.5063040000000  0.5312400000000 1.0
C      1  0.5086300000000  0.5359210000000  0.4974980000000 1.0
C      1  0.5106640000000  0.5115330000000  0.4568110000000 1.0
C      1  0.4274930000000  0.4700980000000  0.5066450000000 1.0
C      1  0.4364920000000  0.4951910000000  0.5379220000000 1.0
C      1  0.4364760000000  0.5297000000000  0.5158060000000 1.0
C      1  0.4258690000000  0.5269790000000  0.4695960000000 1.0
C      1  0.4266280000000  0.4843590000000  0.4684840000000 1.0
C      1  0.4479150000000  0.4658670000000  0.5766660000000 1.0
C      1  0.4475890000000  0.5632040000000  0.5524360000000 1.0
C      1  0.4477190000000  0.5724680000000  0.4603910000000 1.0
C      1  0.4498060000000  0.4779320000000  0.4209360000000 1.0
C      1  0.4487830000000  0.4187220000000  0.4907620000000 1.0
C      1  0.5214680000000  0.5771430000000  0.5162280000000 1.0
C      1  0.5197040000000  0.5392040000000  0.4251750000000 1.0
C      1  0.5213230000000  0.4455050000000  0.4400990000000 1.0
C      1  0.5208160000000  0.4238670000000  0.5331740000000 1.0
C      1  0.5239940000000  0.5180900000000  0.5818940000000 1.0
C      1  0.5435710000000  0.5500630000000  0.5533230000000 1.0
C      1  0.5417180000000  0.5711400000000  0.4726100000000 1.0
C      1  0.5408140000000  0.4880430000000  0.4235930000000 1.0
C      1  0.5432480000000  0.4281380000000  0.4892210000000 1.0
C      1  0.5377310000000  0.4602210000000  0.5687750000000 1.0
C      1  0.4513910000000  0.5714860000000  0.5236000000000 1.0
C      1  0.4506290000000  0.5502580000000  0.4439700000000 1.0
C      1  0.4528950000000  0.4572950000000  0.4423710000000 1.0
C      1  0.4475950000000  0.4238790000000  0.5188230000000 1.0
C      1  0.4533630000000  0.4925260000000  0.5793670000000 1.0
C      1  0.4550080000000  0.5866960000000  0.4987840000000 1.0
C      1  0.4570350000000  0.5182940000000  0.4196220000000 1.0
C      1  0.4560370000000  0.4294840000000  0.4513460000000 1.0
C      1  0.4564870000000  0.4312220000000  0.5491230000000 1.0
C      1  0.4552560000000  0.5327420000000  0.5783520000000 1.0
C      1  0.5760590000000  0.4723030000000  0.5283920000000 1.0
C      1  0.5735610000000  0.4999670000000  0.5357240000000 1.0
C      1  0.5707450000000  0.5351690000000  0.4968360000000 1.0
C      1  0.5716990000000  0.5114700000000  0.4626100000000 1.0
C      1  0.5705800000000  0.4728020000000  0.4779110000000 1.0
C      1  0.5524740000000  0.4552700000000  0.4909740000000 1.0
C      1  0.5444070000000  0.4781640000000  0.5499550000000 1.0
C      1  0.5468070000000  0.5236480000000  0.5359430000000 1.0
C      1  0.5494930000000  0.5459540000000  0.4748920000000 1.0
C      1  0.5558660000000  0.4937370000000  0.4475430000000 1.0
C      1  0.5455630000000  0.4255260000000  0.5187060000000 1.0
C      1  0.5405990000000  0.4975740000000  0.5835610000000 1.0
C      1  0.5452210000000  0.5704490000000  0.5321840000000 1.0
C      1  0.5434590000000  0.5515310000000  0.4364390000000 1.0
C      1  0.5446530000000  0.4593620000000  0.4313470000000 1.0
C      1  0.4246220000000  0.4687340000000  0.5352400000000 1.0
C      1  0.4238550000000  0.5214430000000  0.5408030000000 1.0
C      1  0.4262280000000  0.5441390000000  0.4914890000000 1.0
C      1  0.4216710000000  0.5058110000000  0.4505450000000 1.0
C      1  0.4258360000000  0.4592840000000  0.4796150000000 1.0
C      1  0.5219140000000  0.5807490000000  0.4873090000000 1.0
C      1  0.5185970000000  0.5070400000000  0.4236720000000 1.0
C      1  0.5202490000000  0.4332000000000  0.4696910000000 1.0
C      1  0.5178120000000  0.4444340000000  0.5565280000000 1.0
C      1  0.5210710000000  0.5447770000000  0.5721550000000 1.0
C      1  0.4335910000000  0.5019260000000  0.4231360000000 1.0
C      1  0.4337960000000  0.4327430000000  0.4695400000000 1.0
C      1  0.4341080000000  0.4501900000000  0.5553070000000 1.0
C      1  0.4323680000000  0.5403430000000  0.5617610000000 1.0
C      1  0.4329120000000  0.5738390000000  0.4861960000000 1.0
C      1  0.5191440000000  0.4772060000000  0.5841100000000 1.0
C      1  0.4992260000000  0.5700400000000  0.5332180000000 1.0
C      1  0.5149740000000  0.5614230000000  0.4433240000000 1.0
C      1  0.4992290000000  0.4614910000000  0.4329140000000 1.0
C      1  0.4991140000000  0.4204240000000  0.5151820000000 1.0
C      1  0.4830950000000  0.4697740000000  0.4789000000000 1.0
C      1  0.4831040000000  0.4692510000000  0.5333500000000 1.0
C      1  0.4771390000000  0.5105330000000  0.5399810000000 1.0
C      1  0.4821350000000  0.5499940000000  0.4956370000000 1.0
C      1  0.4818210000000  0.5126510000000  0.4649560000000 1.0
C      1  0.4780370000000  0.4632180000000  0.4522560000000 1.0
C      1  0.4731030000000  0.4290740000000  0.5258070000000 1.0
C      1  0.4708740000000  0.5105610000000  0.5690210000000 1.0
C      1  0.4767340000000  0.5594110000000  0.5205620000000 1.0
C      1  0.4673840000000  0.5284270000000  0.4445870000000 1.0
C      1  0.4980680000000  0.5589780000000  0.5601080000000 1.0
C      1  0.5030340000000  0.5778110000000  0.4670240000000 1.0
C      1  0.5002110000000  0.4862800000000  0.4168840000000 1.0
C      1  0.4990290000000  0.4184520000000  0.4857060000000 1.0
C      1  0.4987180000000  0.4563230000000  0.5759590000000 1.0
C      1  0.5276290000000  0.5351790000000  0.5190010000000 1.0
C      1  0.5238670000000  0.5307590000000  0.4748790000000 1.0
C      1  0.5263490000000  0.4874610000000  0.4673660000000 1.0
C      1  0.5274280000000  0.4684590000000  0.5042060000000 1.0
C      1  0.5280110000000  0.5009000000000  0.5417290000000 1.0
C      1  0.4728690000000  0.4190190000000  0.4742660000000 1.0
C      1  0.4739210000000  0.4565900000000  0.5620350000000 1.0
C      1  0.4705840000000  0.5545540000000  0.5675310000000 1.0
C      1  0.4758280000000  0.5735240000000  0.4790050000000 1.0
C      1  0.4728850000000  0.4941660000000  0.4128990000000 1.0
C      1  0.5667050000000  0.4660700000000  0.4504310000000 1.0
C      1  0.5662950000000  0.4455300000000  0.5289110000000 1.0
C      1  0.5655790000000  0.4940160000000  0.5625640000000 1.0
C      1  0.5672790000000  0.5546020000000  0.5175740000000 1.0
C      1  0.5636760000000  0.5370110000000  0.4526570000000 1.0
C      1  0.5030200000000  0.5071480000000  0.5034330000000 1.0
C      1  0.6814750000000  0.4996950000000  0.5011830000000 1.0
C      1  0.4094740000000  0.4920360000000  0.5046030000000 1.0
C      1  0.3112290000000  0.5004640000000  0.5003010000000 1.0
C      1  0.5290870000000  0.4961720000000  0.4948410000000 1.0
C      1  0.3355570000000  0.5016640000000  0.5003490000000 1.0
C      1  0.7058530000000  0.4998890000000  0.5005860000000 1.0
C      1  0.3855850000000  0.4976460000000  0.5023270000000 1.0
C      1  0.3610490000000  0.5018440000000  0.5006990000000 1.0
C      1  0.5785210000000  0.5036110000000  0.4940310000000 1.0
C      1  0.6307080000000  0.5003790000000  0.5006970000000 1.0
C      1  0.4760790000000  0.4969000000000  0.4887120000000 1.0
C      1  0.6558530000000  0.4997140000000  0.5015330000000 1.0
C      1  0.4564580000000  0.5069650000000  0.5184770000000 1.0
C      1  0.6061950000000  0.5018970000000  0.4975690000000 1.0
END
