TITL C-2441162-9305-573 0.093604854810582 125000 -22719.1799198196 0 0 167 (C1) n - 1
REM
REM in /home/bkarasulu/work/CARBON/AIRSS/Generating-Clusters/ReaxFF-fromJPCA2015/Units_Real/with-SteepDescent/Higher-Symm
REM
REM
REM
REM
REM
REM ./C.cell (1df0a924f5614ab8850e4351716899ee)
REM
REM compiler GCC version 9.2.1 20190827 (Red Hat 9.2.1-1)
REM options -cpp -mtune=generic -march=x86-64 -g -O0 -fpre-include=/usr/include/finclude/math-vector-fortran.h
REM seed -650938401 2102652910 1016785026 -1128560884 2116308832 847927025 546330901 -513110031 -414473465 1283710197 485874721 10865606 -1092919900 -1605839782 2071863758 522231388 -1654856216 -107832265 -1096897462 755288589 -731063283 -286344992 1250926700 -1663511188 1068029338 -501488586 535561202 1904730881 137396689 29611088 -569819462 1379697451 -1117528914
REM
CELL 1.54180   50.00000   50.00000   50.00000   90.00000   90.00000   90.00000
LATT -1
SFAC C  
C      1  0.4305240000000  0.4764380000000  0.5104400000000 1.0
C      1  0.5095430000000  0.4774410000000  0.5693670000000 1.0
C      1  0.5673040000000  0.4769680000000  0.4904370000000 1.0
C      1  0.4973950000000  0.4729480000000  0.4330760000000 1.0
C      1  0.4307550000000  0.5218990000000  0.4891880000000 1.0
C      1  0.5088260000000  0.5220720000000  0.4313360000000 1.0
C      1  0.5693030000000  0.5219050000000  0.5101750000000 1.0
C      1  0.4908130000000  0.5235000000000  0.5700370000000 1.0
C      1  0.5296180000000  0.4895580000000  0.4020580000000 1.0
C      1  0.4068600000000  0.4888790000000  0.4670790000000 1.0
C      1  0.4669750000000  0.4878340000000  0.5921130000000 1.0
C      1  0.5959280000000  0.4877990000000  0.5282700000000 1.0
C      1  0.5286310000000  0.5089660000000  0.5967150000000 1.0
C      1  0.4049270000000  0.5098270000000  0.5277530000000 1.0
C      1  0.4725890000000  0.5054640000000  0.4024570000000 1.0
C      1  0.5980280000000  0.5098300000000  0.4720960000000 1.0
C      1  0.5366230000000  0.4858270000000  0.5804120000000 1.0
C      1  0.5807980000000  0.4841120000000  0.4633110000000 1.0
C      1  0.4425100000000  0.4892730000000  0.4258190000000 1.0
C      1  0.4227840000000  0.4868100000000  0.5418950000000 1.0
C      1  0.5353140000000  0.5156630000000  0.4173530000000 1.0
C      1  0.5821580000000  0.5129410000000  0.5346600000000 1.0
C      1  0.4666610000000  0.5159110000000  0.5836290000000 1.0
C      1  0.4174370000000  0.5153230000000  0.4647820000000 1.0
C      1  0.5829610000000  0.4429410000000  0.5241800000000 1.0
C      1  0.5256660000000  0.4437070000000  0.4152950000000 1.0
C      1  0.4186310000000  0.4444570000000  0.4768900000000 1.0
C      1  0.4789900000000  0.4435460000000  0.5834150000000 1.0
C      1  0.5835280000000  0.5547840000000  0.4768730000000 1.0
C      1  0.5247910000000  0.5545990000000  0.5830980000000 1.0
C      1  0.4193670000000  0.5547090000000  0.5260410000000 1.0
C      1  0.4767170000000  0.5549910000000  0.4132900000000 1.0
C      1  0.5715800000000  0.5803970000000  0.4851540000000 1.0
C      1  0.4847970000000  0.5801000000000  0.4260950000000 1.0
C      1  0.4305140000000  0.5800660000000  0.5153530000000 1.0
C      1  0.5149040000000  0.5806180000000  0.5713800000000 1.0
C      1  0.5717720000000  0.4177380000000  0.5146600000000 1.0
C      1  0.4870850000000  0.4182270000000  0.5709590000000 1.0
C      1  0.4305820000000  0.4193350000000  0.4851920000000 1.0
C      1  0.5149020000000  0.4189730000000  0.4276380000000 1.0
C      1  0.5750770000000  0.5823660000000  0.5147690000000 1.0
C      1  0.5142300000000  0.5820250000000  0.4249020000000 1.0
C      1  0.4259810000000  0.5812320000000  0.4856800000000 1.0
C      1  0.4858800000000  0.5840040000000  0.5749910000000 1.0
C      1  0.5752660000000  0.4179680000000  0.4851180000000 1.0
C      1  0.5154540000000  0.4201760000000  0.5749290000000 1.0
C      1  0.4269080000000  0.4157530000000  0.5146250000000 1.0
C      1  0.4860710000000  0.4240720000000  0.4259930000000 1.0
C      1  0.4923560000000  0.5598410000000  0.4620210000000 1.0
C      1  0.4670170000000  0.5560940000000  0.5046580000000 1.0
C      1  0.5066260000000  0.5578140000000  0.5345370000000 1.0
C      1  0.5338350000000  0.5567140000000  0.4944580000000 1.0
C      1  0.4936350000000  0.4435820000000  0.5342900000000 1.0
C      1  0.4674990000000  0.4414820000000  0.4959280000000 1.0
C      1  0.5141710000000  0.4389380000000  0.4628290000000 1.0
C      1  0.5358550000000  0.4389410000000  0.5083350000000 1.0
C      1  0.5410650000000  0.5447020000000  0.4081490000000 1.0
C      1  0.4101930000000  0.5428840000000  0.4554180000000 1.0
C      1  0.4605050000000  0.5434570000000  0.5921830000000 1.0
C      1  0.5928170000000  0.5401990000000  0.5424120000000 1.0
C      1  0.5442190000000  0.4560710000000  0.5886390000000 1.0
C      1  0.4057840000000  0.4588630000000  0.5434150000000 1.0
C      1  0.4640550000000  0.4770150000000  0.4096780000000 1.0
C      1  0.5892280000000  0.4544460000000  0.4572700000000 1.0
C      1  0.4524490000000  0.4561520000000  0.5162210000000 1.0
C      1  0.5135160000000  0.4562510000000  0.5487500000000 1.0
C      1  0.5451750000000  0.4576590000000  0.4858310000000 1.0
C      1  0.4924750000000  0.4547090000000  0.4535600000000 1.0
C      1  0.4576410000000  0.5399510000000  0.4825030000000 1.0
C      1  0.5159330000000  0.5427780000000  0.4527870000000 1.0
C      1  0.5483870000000  0.5452590000000  0.5168550000000 1.0
C      1  0.4839870000000  0.5452720000000  0.5480730000000 1.0
C      1  0.4290970000000  0.5613460000000  0.4419340000000 1.0
C      1  0.4427700000000  0.5545620000000  0.5702460000000 1.0
C      1  0.5713440000000  0.5541900000000  0.5584790000000 1.0
C      1  0.5538450000000  0.5623870000000  0.4279580000000 1.0
C      1  0.4178940000000  0.4454240000000  0.5652220000000 1.0
C      1  0.4444970000000  0.4394200000000  0.4115250000000 1.0
C      1  0.5699060000000  0.4349280000000  0.4470010000000 1.0
C      1  0.5596050000000  0.4408600000000  0.5698670000000 1.0
C      1  0.4665980000000  0.5486890000000  0.4567030000000 1.0
C      1  0.4616170000000  0.5611600000000  0.5526960000000 1.0
C      1  0.5541310000000  0.5608120000000  0.5389410000000 1.0
C      1  0.5440610000000  0.5489570000000  0.4499990000000 1.0
C      1  0.4466570000000  0.4436200000000  0.5440990000000 1.0
C      1  0.4499510000000  0.4414910000000  0.4414960000000 1.0
C      1  0.5424410000000  0.4486450000000  0.4575750000000 1.0
C      1  0.5355990000000  0.4447150000000  0.5363180000000 1.0
C      1  0.5089900000000  0.4767700000000  0.5097180000000 1.0
C      1  0.5195190000000  0.4703660000000  0.4841910000000 1.0
C      1  0.4750460000000  0.4596320000000  0.4758980000000 1.0
C      1  0.4827740000000  0.4682370000000  0.5222240000000 1.0
C      1  0.5212850000000  0.5340130000000  0.4818570000000 1.0
C      1  0.5227240000000  0.5354860000000  0.5269940000000 1.0
C      1  0.4772640000000  0.5338410000000  0.5196900000000 1.0
C      1  0.4775650000000  0.5212550000000  0.4815200000000 1.0
C      1  0.4539520000000  0.5931080000000  0.5270800000000 1.0
C      1  0.5276820000000  0.5932750000000  0.5474440000000 1.0
C      1  0.5481900000000  0.5911180000000  0.4693530000000 1.0
C      1  0.4687030000000  0.5916350000000  0.4504640000000 1.0
C      1  0.4540350000000  0.4077050000000  0.4717280000000 1.0
C      1  0.5317230000000  0.4048410000000  0.4503990000000 1.0
C      1  0.5492880000000  0.4053220000000  0.5285420000000 1.0
C      1  0.4734230000000  0.4067360000000  0.5464910000000 1.0
C      1  0.5411490000000  0.5865440000000  0.4402760000000 1.0
C      1  0.4407400000000  0.5822370000000  0.4581670000000 1.0
C      1  0.4626010000000  0.5869210000000  0.5547580000000 1.0
C      1  0.5549830000000  0.5861510000000  0.5383690000000 1.0
C      1  0.5418990000000  0.4211770000000  0.5549360000000 1.0
C      1  0.4464240000000  0.4148090000000  0.5379350000000 1.0
C      1  0.4645540000000  0.4175060000000  0.4454400000000 1.0
C      1  0.5592990000000  0.4111990000000  0.4595630000000 1.0
C      1  0.4941240000000  0.4152480000000  0.5279060000000 1.0
C      1  0.5309980000000  0.4100820000000  0.5064310000000 1.0
C      1  0.5108030000000  0.4104270000000  0.4694980000000 1.0
C      1  0.4734160000000  0.4127460000000  0.4925650000000 1.0
C      1  0.4909160000000  0.5882040000000  0.4689480000000 1.0
C      1  0.5276300000000  0.5841780000000  0.4887830000000 1.0
C      1  0.5079000000000  0.5862020000000  0.5277090000000 1.0
C      1  0.4723980000000  0.5840170000000  0.5063970000000 1.0
C      1  0.4774550000000  0.4914930000000  0.5367180000000 1.0
C      1  0.5300690000000  0.4910010000000  0.5198930000000 1.0
C      1  0.5218750000000  0.4922950000000  0.4660520000000 1.0
C      1  0.4596490000000  0.4841760000000  0.4748810000000 1.0
C      1  0.4756110000000  0.5039470000000  0.4623650000000 1.0
C      1  0.5370740000000  0.5107180000000  0.4780580000000 1.0
C      1  0.5223110000000  0.5095930000000  0.5385740000000 1.0
C      1  0.4619700000000  0.5092100000000  0.5229430000000 1.0
C      1  0.5192750000000  0.4427990000000  0.5906380000000 1.0
C      1  0.5911560000000  0.4420330000000  0.4825070000000 1.0
C      1  0.4735940000000  0.4475170000000  0.4079480000000 1.0
C      1  0.4107810000000  0.4357970000000  0.5261500000000 1.0
C      1  0.5167410000000  0.5589830000000  0.4089300000000 1.0
C      1  0.5901270000000  0.5594760000000  0.5221960000000 1.0
C      1  0.4834200000000  0.5605850000000  0.5906470000000 1.0
C      1  0.4107650000000  0.5594210000000  0.4784390000000 1.0
C      1  0.5503590000000  0.4868520000000  0.4206070000000 1.0
C      1  0.4228600000000  0.4800510000000  0.4448160000000 1.0
C      1  0.4480930000000  0.4822000000000  0.5720250000000 1.0
C      1  0.5843530000000  0.4818400000000  0.5520310000000 1.0
C      1  0.5518950000000  0.5135740000000  0.5816670000000 1.0
C      1  0.4147800000000  0.5142050000000  0.5535920000000 1.0
C      1  0.4511800000000  0.5151060000000  0.4187870000000 1.0
C      1  0.5801740000000  0.5121150000000  0.4506440000000 1.0
C      1  0.5898590000000  0.4666460000000  0.5080540000000 1.0
C      1  0.5096670000000  0.4678040000000  0.4072500000000 1.0
C      1  0.4108550000000  0.4697380000000  0.4886610000000 1.0
C      1  0.4903680000000  0.4690500000000  0.5909760000000 1.0
C      1  0.5926650000000  0.5310910000000  0.4915310000000 1.0
C      1  0.5101290000000  0.5308920000000  0.5921350000000 1.0
C      1  0.4100230000000  0.5320410000000  0.5096820000000 1.0
C      1  0.4894690000000  0.5289580000000  0.4090270000000 1.0
C      1  0.5765550000000  0.4549810000000  0.5507360000000 1.0
C      1  0.5425690000000  0.4614130000000  0.4312700000000 1.0
C      1  0.4352530000000  0.4582840000000  0.4579600000000 1.0
C      1  0.4575430000000  0.4565160000000  0.5677020000000 1.0
C      1  0.5685670000000  0.5385330000000  0.4572430000000 1.0
C      1  0.5496690000000  0.5409800000000  0.5757210000000 1.0
C      1  0.4243900000000  0.5417330000000  0.5514730000000 1.0
C      1  0.4530590000000  0.5431820000000  0.4306370000000 1.0
C      1  0.4462010000000  0.4988680000000  0.5004640000000 1.0
C      1  0.4992650000000  0.5007130000000  0.5533180000000 1.0
C      1  0.5514040000000  0.5001320000000  0.5001970000000 1.0
C      1  0.5002660000000  0.4976610000000  0.4468710000000 1.0
C      1  0.5020470000000  0.4017360000000  0.4993450000000 1.0
C      1  0.4993220000000  0.5965640000000  0.4991850000000 1.0
C      1  0.4977760000000  0.5227630000000  0.4988880000000 1.0
END
