TITL C-2441165-58-1093 0.103352572768193 125000 -25981.6621987075 0 0 193 (C1) n - 1
REM
REM in /home/bkarasulu/work/CARBON/AIRSS/Generating-Clusters/ReaxFF-fromJPCA2015/Units_Real/with-SteepDescent/Higher-Symm
REM
REM
REM
REM
REM
REM ./C.cell (1df0a924f5614ab8850e4351716899ee)
REM
REM compiler GCC version 9.2.1 20190827 (Red Hat 9.2.1-1)
REM options -cpp -mtune=generic -march=x86-64 -g -O0 -fpre-include=/usr/include/finclude/math-vector-fortran.h
REM seed -757273912 1021724906 341124493 1573113752 944570655 1372091701 121350071 1233504553 1809869856 -1793733550 -284046281 1130879709 -1333533796 -1066452547 1091642406 533647755 -1633697567 -1513373093 -462208143 1994069569 1175292551 824575829 837188190 2133137177 1234425505 -1522979697 129764513 717790158 -983211087 -506915911 -971871348 -713733026 20456619
REM
CELL 1.54180   50.00000   50.00000   50.00000   90.00000   90.00000   90.00000
LATT -1
SFAC C  
C      1  0.4371250000000  0.4447950000000  0.5821730000000 1.0
C      1  0.5641470000000  0.5560140000000  0.5781230000000 1.0
C      1  0.4312620000000  0.4457350000000  0.4183320000000 1.0
C      1  0.5602750000000  0.5578090000000  0.4187350000000 1.0
C      1  0.5693800000000  0.4456200000000  0.5815470000000 1.0
C      1  0.4289920000000  0.5570720000000  0.5822470000000 1.0
C      1  0.5702480000000  0.4481310000000  0.4221310000000 1.0
C      1  0.4371650000000  0.5580190000000  0.4178870000000 1.0
C      1  0.4732150000000  0.4643750000000  0.5123050000000 1.0
C      1  0.5313070000000  0.5467560000000  0.5157090000000 1.0
C      1  0.4613260000000  0.4723010000000  0.4877930000000 1.0
C      1  0.5414710000000  0.5422870000000  0.4892210000000 1.0
C      1  0.5317850000000  0.4576170000000  0.5156690000000 1.0
C      1  0.4578170000000  0.5370020000000  0.5124930000000 1.0
C      1  0.5399210000000  0.4579690000000  0.4879350000000 1.0
C      1  0.4685760000000  0.5456590000000  0.4855370000000 1.0
C      1  0.5819060000000  0.5625290000000  0.4818930000000 1.0
C      1  0.4177470000000  0.4340420000000  0.4858060000000 1.0
C      1  0.5856540000000  0.5654360000000  0.5104260000000 1.0
C      1  0.4189960000000  0.4319830000000  0.5142190000000 1.0
C      1  0.4180980000000  0.5652700000000  0.4826470000000 1.0
C      1  0.5813430000000  0.4381240000000  0.4874460000000 1.0
C      1  0.4155170000000  0.5658500000000  0.5113510000000 1.0
C      1  0.5837120000000  0.4332570000000  0.5153210000000 1.0
C      1  0.5706720000000  0.4407640000000  0.5551200000000 1.0
C      1  0.4264360000000  0.5596660000000  0.5546920000000 1.0
C      1  0.5784820000000  0.4463110000000  0.4477260000000 1.0
C      1  0.4306240000000  0.5575750000000  0.4443180000000 1.0
C      1  0.4286660000000  0.4397010000000  0.5562070000000 1.0
C      1  0.5740820000000  0.5601980000000  0.5528290000000 1.0
C      1  0.4292730000000  0.4435880000000  0.4472020000000 1.0
C      1  0.5703350000000  0.5551880000000  0.4432240000000 1.0
C      1  0.5613690000000  0.5845850000000  0.4831630000000 1.0
C      1  0.4402950000000  0.4145010000000  0.4837580000000 1.0
C      1  0.5651100000000  0.5862000000000  0.5117470000000 1.0
C      1  0.4416810000000  0.4135710000000  0.5127420000000 1.0
C      1  0.4396170000000  0.5856230000000  0.4838970000000 1.0
C      1  0.5611440000000  0.4160280000000  0.4858000000000 1.0
C      1  0.4362240000000  0.5867920000000  0.5129100000000 1.0
C      1  0.5615090000000  0.4137220000000  0.5145690000000 1.0
C      1  0.4884320000000  0.4403580000000  0.5112930000000 1.0
C      1  0.5174180000000  0.5702780000000  0.5258760000000 1.0
C      1  0.4933660000000  0.4328090000000  0.4826770000000 1.0
C      1  0.5181530000000  0.5554730000000  0.4776900000000 1.0
C      1  0.5145740000000  0.4364570000000  0.5234340000000 1.0
C      1  0.4896540000000  0.5706870000000  0.5184970000000 1.0
C      1  0.5202740000000  0.4418050000000  0.4752630000000 1.0
C      1  0.4932570000000  0.5617290000000  0.4904560000000 1.0
C      1  0.4842740000000  0.4277020000000  0.4238060000000 1.0
C      1  0.5149770000000  0.5709600000000  0.4247540000000 1.0
C      1  0.4827560000000  0.4288990000000  0.5738470000000 1.0
C      1  0.5179790000000  0.5716380000000  0.5753150000000 1.0
C      1  0.5175910000000  0.4275900000000  0.4238320000000 1.0
C      1  0.4844180000000  0.5687510000000  0.4258610000000 1.0
C      1  0.5152260000000  0.4274370000000  0.5756430000000 1.0
C      1  0.4824390000000  0.5726280000000  0.5736020000000 1.0
C      1  0.5126310000000  0.5488490000000  0.4509550000000 1.0
C      1  0.4852340000000  0.4425020000000  0.4494070000000 1.0
C      1  0.5142670000000  0.5546050000000  0.5525820000000 1.0
C      1  0.4831740000000  0.4471080000000  0.5506690000000 1.0
C      1  0.4829890000000  0.5493330000000  0.4487530000000 1.0
C      1  0.5143510000000  0.4452030000000  0.4477990000000 1.0
C      1  0.4836090000000  0.5528950000000  0.5498680000000 1.0
C      1  0.5119540000000  0.4459400000000  0.5496160000000 1.0
C      1  0.4769260000000  0.4748490000000  0.5537880000000 1.0
C      1  0.5230730000000  0.5256720000000  0.5570790000000 1.0
C      1  0.4740570000000  0.4702530000000  0.4428920000000 1.0
C      1  0.5252230000000  0.5247620000000  0.4420880000000 1.0
C      1  0.5223750000000  0.4735710000000  0.5570730000000 1.0
C      1  0.4751160000000  0.5260220000000  0.5573860000000 1.0
C      1  0.5226360000000  0.4755770000000  0.4450160000000 1.0
C      1  0.4730850000000  0.5237170000000  0.4417100000000 1.0
C      1  0.5109050000000  0.5182110000000  0.4908830000000 1.0
C      1  0.4809540000000  0.4800360000000  0.4683720000000 1.0
C      1  0.5114800000000  0.5261580000000  0.5187600000000 1.0
C      1  0.4868590000000  0.4864560000000  0.5261560000000 1.0
C      1  0.4831820000000  0.5199700000000  0.4855890000000 1.0
C      1  0.5071010000000  0.4837550000000  0.4683780000000 1.0
C      1  0.4806770000000  0.5179240000000  0.5152270000000 1.0
C      1  0.5153130000000  0.4819860000000  0.5178270000000 1.0
C      1  0.4836600000000  0.5128620000000  0.5830650000000 1.0
C      1  0.5143150000000  0.4791620000000  0.5840840000000 1.0
C      1  0.4854050000000  0.5167340000000  0.4158840000000 1.0
C      1  0.5144000000000  0.4790890000000  0.4161700000000 1.0
C      1  0.5128790000000  0.5196340000000  0.5835410000000 1.0
C      1  0.4861710000000  0.4817240000000  0.5817700000000 1.0
C      1  0.5149000000000  0.5186080000000  0.4161610000000 1.0
C      1  0.4855160000000  0.4788250000000  0.4156060000000 1.0
C      1  0.5903010000000  0.5506030000000  0.5338650000000 1.0
C      1  0.4122630000000  0.4479440000000  0.5363470000000 1.0
C      1  0.5883500000000  0.5428860000000  0.4607570000000 1.0
C      1  0.4069700000000  0.4510460000000  0.4644580000000 1.0
C      1  0.4087850000000  0.5513770000000  0.5351080000000 1.0
C      1  0.5904870000000  0.4477990000000  0.5385100000000 1.0
C      1  0.4107040000000  0.5476410000000  0.4602150000000 1.0
C      1  0.5945560000000  0.4577400000000  0.4692130000000 1.0
C      1  0.4522890000000  0.5122390000000  0.5488570000000 1.0
C      1  0.5494420000000  0.4822380000000  0.5526830000000 1.0
C      1  0.4514330000000  0.5084370000000  0.4513480000000 1.0
C      1  0.5500960000000  0.4834330000000  0.4458860000000 1.0
C      1  0.5451740000000  0.5105950000000  0.5466060000000 1.0
C      1  0.4503530000000  0.4843580000000  0.5550540000000 1.0
C      1  0.5472020000000  0.5114920000000  0.4537170000000 1.0
C      1  0.4494530000000  0.4826790000000  0.4392390000000 1.0
C      1  0.5556980000000  0.4844870000000  0.4867850000000 1.0
C      1  0.4349180000000  0.5094590000000  0.4751350000000 1.0
C      1  0.5593120000000  0.4870190000000  0.5145630000000 1.0
C      1  0.4387510000000  0.5185540000000  0.5244420000000 1.0
C      1  0.4378400000000  0.4873490000000  0.4922440000000 1.0
C      1  0.5536270000000  0.5155400000000  0.4814730000000 1.0
C      1  0.4319830000000  0.4908020000000  0.5203030000000 1.0
C      1  0.5628780000000  0.5135910000000  0.5237030000000 1.0
C      1  0.4650850000000  0.4089000000000  0.5593720000000 1.0
C      1  0.5373720000000  0.5892320000000  0.5610690000000 1.0
C      1  0.4638360000000  0.4089070000000  0.4374840000000 1.0
C      1  0.5335870000000  0.5882870000000  0.4404770000000 1.0
C      1  0.5358400000000  0.4110340000000  0.5609170000000 1.0
C      1  0.4617480000000  0.5907020000000  0.5596060000000 1.0
C      1  0.5375740000000  0.4129560000000  0.4403790000000 1.0
C      1  0.4659490000000  0.5887380000000  0.4409130000000 1.0
C      1  0.4717800000000  0.5548330000000  0.5965690000000 1.0
C      1  0.5225940000000  0.4526400000000  0.5951220000000 1.0
C      1  0.4781680000000  0.5431620000000  0.4036710000000 1.0
C      1  0.5240270000000  0.4534640000000  0.4043210000000 1.0
C      1  0.5229210000000  0.5452710000000  0.5942150000000 1.0
C      1  0.4722970000000  0.4568110000000  0.5948190000000 1.0
C      1  0.5207140000000  0.5454230000000  0.4038700000000 1.0
C      1  0.4758340000000  0.4534930000000  0.4039800000000 1.0
C      1  0.3869010000000  0.5122170000000  0.5197420000000 1.0
C      1  0.6125100000000  0.4829360000000  0.5209000000000 1.0
C      1  0.3878120000000  0.5169020000000  0.4900410000000 1.0
C      1  0.6078090000000  0.4794190000000  0.4922930000000 1.0
C      1  0.6124250000000  0.5114360000000  0.5174240000000 1.0
C      1  0.3860470000000  0.4840570000000  0.5146460000000 1.0
C      1  0.6109430000000  0.5073130000000  0.4884830000000 1.0
C      1  0.3862980000000  0.4885130000000  0.4851710000000 1.0
C      1  0.4645260000000  0.5945640000000  0.4691630000000 1.0
C      1  0.5387350000000  0.4052530000000  0.4687880000000 1.0
C      1  0.4571840000000  0.5970390000000  0.5315640000000 1.0
C      1  0.5395830000000  0.4047190000000  0.5327260000000 1.0
C      1  0.5365200000000  0.5942050000000  0.4690700000000 1.0
C      1  0.4609980000000  0.4044290000000  0.4656260000000 1.0
C      1  0.5457370000000  0.5975070000000  0.5332250000000 1.0
C      1  0.4642620000000  0.4041890000000  0.5301800000000 1.0
C      1  0.5980750000000  0.5146470000000  0.4652930000000 1.0
C      1  0.3975480000000  0.4779910000000  0.4601360000000 1.0
C      1  0.5914020000000  0.5225280000000  0.5355760000000 1.0
C      1  0.4077380000000  0.4763790000000  0.5355680000000 1.0
C      1  0.4097690000000  0.5215660000000  0.4711340000000 1.0
C      1  0.5966240000000  0.4887660000000  0.4529650000000 1.0
C      1  0.3993540000000  0.5256410000000  0.5425100000000 1.0
C      1  0.6016820000000  0.4724200000000  0.5446270000000 1.0
C      1  0.5906180000000  0.4861150000000  0.5685300000000 1.0
C      1  0.4116940000000  0.5145590000000  0.5676600000000 1.0
C      1  0.5895880000000  0.4910630000000  0.4255420000000 1.0
C      1  0.4138930000000  0.5184130000000  0.4323600000000 1.0
C      1  0.4106790000000  0.4867590000000  0.5655480000000 1.0
C      1  0.5867990000000  0.5139380000000  0.5674500000000 1.0
C      1  0.4082900000000  0.4907700000000  0.4352230000000 1.0
C      1  0.5853280000000  0.5187720000000  0.4267150000000 1.0
C      1  0.5616460000000  0.4200730000000  0.5704900000000 1.0
C      1  0.4360660000000  0.5813870000000  0.5679690000000 1.0
C      1  0.5634200000000  0.4244500000000  0.4358850000000 1.0
C      1  0.4390390000000  0.5813240000000  0.4345600000000 1.0
C      1  0.4399610000000  0.4187040000000  0.5689160000000 1.0
C      1  0.5648030000000  0.5825120000000  0.5660380000000 1.0
C      1  0.4371770000000  0.4195120000000  0.4329240000000 1.0
C      1  0.5608710000000  0.5800680000000  0.4356360000000 1.0
C      1  0.5456560000000  0.4644480000000  0.6070170000000 1.0
C      1  0.4591610000000  0.5292430000000  0.5968190000000 1.0
C      1  0.5454470000000  0.4669950000000  0.3918040000000 1.0
C      1  0.4542310000000  0.5314600000000  0.3923880000000 1.0
C      1  0.4526710000000  0.4701350000000  0.6098880000000 1.0
C      1  0.5462810000000  0.5321040000000  0.6058210000000 1.0
C      1  0.4525610000000  0.4631250000000  0.3913880000000 1.0
C      1  0.5435360000000  0.5343640000000  0.3904050000000 1.0
C      1  0.4860310000000  0.6051070000000  0.4865270000000 1.0
C      1  0.5170370000000  0.3947650000000  0.4848270000000 1.0
C      1  0.4810440000000  0.6000810000000  0.5150390000000 1.0
C      1  0.5159690000000  0.3998390000000  0.5148680000000 1.0
C      1  0.5159800000000  0.6041710000000  0.4875850000000 1.0
C      1  0.4871320000000  0.3996470000000  0.4837170000000 1.0
C      1  0.5229740000000  0.6002830000000  0.5160160000000 1.0
C      1  0.4860930000000  0.3947350000000  0.5137630000000 1.0
C      1  0.5708450000000  0.5294340000000  0.5856900000000 1.0
C      1  0.4343920000000  0.4749080000000  0.5782100000000 1.0
C      1  0.5691920000000  0.5333210000000  0.4088810000000 1.0
C      1  0.4302180000000  0.4751050000000  0.4205120000000 1.0
C      1  0.4313010000000  0.5289370000000  0.5865280000000 1.0
C      1  0.5646650000000  0.4738860000000  0.5778230000000 1.0
C      1  0.4284410000000  0.5314540000000  0.4116220000000 1.0
C      1  0.5628140000000  0.4748380000000  0.4203600000000 1.0
C      1  0.5174720000000  0.4935200000000  0.4915190000000 1.0
END
