TITL C-2441163-1170-1442 0.0184223810978842 125000 -8732.57403548411 0 0 66 (C1) n - 1
REM
REM in /home/bkarasulu/work/CARBON/AIRSS/Generating-Clusters/ReaxFF-fromJPCA2015/Units_Real/with-SteepDescent/Higher-Symm
REM
REM
REM
REM
REM
REM ./C.cell (1df0a924f5614ab8850e4351716899ee)
REM
REM compiler GCC version 9.2.1 20190827 (Red Hat 9.2.1-1)
REM options -cpp -mtune=generic -march=x86-64 -g -O0 -fpre-include=/usr/include/finclude/math-vector-fortran.h
REM seed -1094781382 -1489096205 -1591309221 891897912 1393070824 -322457079 2060613179 -1139423276 -552007744 -2022358705 767621176 -1100575927 966342509 513251435 -1110004605 -2145769587 -1816222470 -32228185 -1476376733 120325022 2025659843 552267250 -1085425938 -1496690738 1827325276 117974801 1183519990 -808717227 1765848257 -80649683 -695399505 705487468 -1322289600
REM
CELL 1.54180   50.00000   50.00000   50.00000   90.00000   90.00000   90.00000
LATT -1
SFAC C  
C      1  0.4781210000000  0.5587210000000  0.4968170000000 1.0
C      1  0.4773260000000  0.5223710000000  0.5589580000000 1.0
C      1  0.4789470000000  0.4517030000000  0.5398540000000 1.0
C      1  0.4761550000000  0.4432160000000  0.4645670000000 1.0
C      1  0.4772440000000  0.5150430000000  0.4377310000000 1.0
C      1  0.5162390000000  0.4410680000000  0.4945450000000 1.0
C      1  0.5222730000000  0.4759280000000  0.5576320000000 1.0
C      1  0.5208490000000  0.5470940000000  0.5395350000000 1.0
C      1  0.5197780000000  0.5517770000000  0.4667430000000 1.0
C      1  0.5213900000000  0.4849020000000  0.4398840000000 1.0
C      1  0.5731110000000  0.4535000000000  0.5253980000000 1.0
C      1  0.5688830000000  0.4612840000000  0.4680250000000 1.0
C      1  0.5724480000000  0.5219320000000  0.4519910000000 1.0
C      1  0.5719950000000  0.5510320000000  0.5062100000000 1.0
C      1  0.5721140000000  0.5084060000000  0.5501380000000 1.0
C      1  0.4267150000000  0.5447750000000  0.5241140000000 1.0
C      1  0.4277690000000  0.5376700000000  0.4666650000000 1.0
C      1  0.4279460000000  0.4781930000000  0.4516970000000 1.0
C      1  0.4275490000000  0.4488960000000  0.5047510000000 1.0
C      1  0.4267480000000  0.4894750000000  0.5506000000000 1.0
C      1  0.5215330000000  0.5614000000000  0.5124900000000 1.0
C      1  0.5227630000000  0.5060020000000  0.5633280000000 1.0
C      1  0.5249300000000  0.4397440000000  0.5234110000000 1.0
C      1  0.5193040000000  0.4621040000000  0.4584140000000 1.0
C      1  0.5227310000000  0.5314200000000  0.4446350000000 1.0
C      1  0.4760450000000  0.4370480000000  0.5134370000000 1.0
C      1  0.4762170000000  0.4922590000000  0.5637590000000 1.0
C      1  0.4763690000000  0.5572190000000  0.5265160000000 1.0
C      1  0.4766840000000  0.5407200000000  0.4522480000000 1.0
C      1  0.4782800000000  0.4669680000000  0.4459200000000 1.0
C      1  0.5508230000000  0.5078090000000  0.5230810000000 1.0
C      1  0.5521780000000  0.4793600000000  0.5144780000000 1.0
C      1  0.5602130000000  0.4816050000000  0.4858000000000 1.0
C      1  0.5529610000000  0.5076720000000  0.4755670000000 1.0
C      1  0.5513040000000  0.5246680000000  0.4984800000000 1.0
C      1  0.4480800000000  0.4902230000000  0.5234310000000 1.0
C      1  0.4477480000000  0.5188280000000  0.5158410000000 1.0
C      1  0.4491310000000  0.5200400000000  0.4862400000000 1.0
C      1  0.4474550000000  0.4922870000000  0.4758440000000 1.0
C      1  0.4492750000000  0.4738990000000  0.4988210000000 1.0
C      1  0.4775190000000  0.4589070000000  0.4921020000000 1.0
C      1  0.4755650000000  0.4932690000000  0.4621080000000 1.0
C      1  0.4781510000000  0.5294700000000  0.4809970000000 1.0
C      1  0.4712250000000  0.5282550000000  0.5303350000000 1.0
C      1  0.4725140000000  0.4806860000000  0.5367210000000 1.0
C      1  0.5255570000000  0.5393920000000  0.4931340000000 1.0
C      1  0.5232050000000  0.5069120000000  0.4630390000000 1.0
C      1  0.5065100000000  0.4671470000000  0.4852570000000 1.0
C      1  0.5271920000000  0.4687840000000  0.5286300000000 1.0
C      1  0.5265810000000  0.5178800000000  0.5366470000000 1.0
C      1  0.4479330000000  0.4934860000000  0.5671440000000 1.0
C      1  0.4483730000000  0.4324620000000  0.5122130000000 1.0
C      1  0.4506130000000  0.4658070000000  0.4425360000000 1.0
C      1  0.4488350000000  0.5446600000000  0.4504600000000 1.0
C      1  0.4479970000000  0.5618120000000  0.5249220000000 1.0
C      1  0.5510590000000  0.5048180000000  0.5670160000000 1.0
C      1  0.5498180000000  0.5648880000000  0.5139310000000 1.0
C      1  0.5503510000000  0.5319240000000  0.4390870000000 1.0
C      1  0.5474440000000  0.4564380000000  0.4558590000000 1.0
C      1  0.5523740000000  0.4370610000000  0.5280690000000 1.0
C      1  0.4993330000000  0.5410700000000  0.5577840000000 1.0
C      1  0.4996100000000  0.4583890000000  0.5584050000000 1.0
C      1  0.4993880000000  0.4996350000000  0.4302340000000 1.0
C      1  0.4979040000000  0.5660250000000  0.4779910000000 1.0
C      1  0.4964790000000  0.4253310000000  0.4772390000000 1.0
C      1  0.4971420000000  0.5054870000000  0.4788560000000 1.0
END
