TITL C-2441161-5029-810 0.0858071267352656 125000 -17309.2076693093 0 0 132 (C1) n - 1
REM
REM in /home/bkarasulu/work/CARBON/AIRSS/Generating-Clusters/ReaxFF-fromJPCA2015/Units_Real/with-SteepDescent/Higher-Symm
REM
REM
REM
REM
REM
REM ./C.cell (1df0a924f5614ab8850e4351716899ee)
REM
REM compiler GCC version 9.2.1 20190827 (Red Hat 9.2.1-1)
REM options -cpp -mtune=generic -march=x86-64 -g -O0 -fpre-include=/usr/include/finclude/math-vector-fortran.h
REM seed -906655618 -268338019 1507173512 527200426 -1574247251 696064730 -833586082 -486029041 -339226325 340271829 -2006955813 -1656695320 1210684494 -2100709708 427098057 -109137726 205574577 -1699810286 -2054561888 -626436631 624445223 348992759 1030519108 -1645457751 2001603981 -671437268 -627292768 -1627670671 -472937861 260934579 291362495 1094334120 619666303
REM
CELL 1.54180   50.00000   50.00000   50.00000   90.00000   90.00000   90.00000
LATT -1
SFAC C  
C      1  0.5197950000000  0.5121230000000  0.4686240000000 1.0
C      1  0.4914470000000  0.5211630000000  0.4707030000000 1.0
C      1  0.4812880000000  0.4926040000000  0.4720620000000 1.0
C      1  0.5090240000000  0.4827080000000  0.4699430000000 1.0
C      1  0.4793760000000  0.5054320000000  0.5239500000000 1.0
C      1  0.5050310000000  0.5195970000000  0.5267760000000 1.0
C      1  0.5190730000000  0.4934230000000  0.5243920000000 1.0
C      1  0.4932100000000  0.4794000000000  0.5230380000000 1.0
C      1  0.5925040000000  0.5357850000000  0.5173960000000 1.0
C      1  0.4648530000000  0.5924630000000  0.5188240000000 1.0
C      1  0.4071630000000  0.4617270000000  0.5178680000000 1.0
C      1  0.5359110000000  0.4040170000000  0.5219390000000 1.0
C      1  0.4052180000000  0.5321280000000  0.4765120000000 1.0
C      1  0.5307530000000  0.5926230000000  0.4756620000000 1.0
C      1  0.5951010000000  0.4722210000000  0.4750560000000 1.0
C      1  0.4699750000000  0.4054460000000  0.4737030000000 1.0
C      1  0.4257230000000  0.4510820000000  0.5365630000000 1.0
C      1  0.5473070000000  0.4253180000000  0.5398920000000 1.0
C      1  0.5757860000000  0.5489450000000  0.5362970000000 1.0
C      1  0.4519340000000  0.5761330000000  0.5384910000000 1.0
C      1  0.5726410000000  0.4554760000000  0.4652180000000 1.0
C      1  0.4538990000000  0.4288740000000  0.4630460000000 1.0
C      1  0.4274130000000  0.5456080000000  0.4646640000000 1.0
C      1  0.5460750000000  0.5706910000000  0.4622890000000 1.0
C      1  0.4916410000000  0.4562740000000  0.5039660000000 1.0
C      1  0.5421120000000  0.4908900000000  0.5051320000000 1.0
C      1  0.5050520000000  0.5434390000000  0.5095980000000 1.0
C      1  0.4562890000000  0.5097580000000  0.5042390000000 1.0
C      1  0.5140790000000  0.4591510000000  0.4859080000000 1.0
C      1  0.4581380000000  0.4856930000000  0.4877810000000 1.0
C      1  0.4862520000000  0.5434280000000  0.4884290000000 1.0
C      1  0.5421270000000  0.5140300000000  0.4868330000000 1.0
C      1  0.5251270000000  0.4418830000000  0.5355100000000 1.0
C      1  0.5568640000000  0.5270650000000  0.5351840000000 1.0
C      1  0.4748770000000  0.5585800000000  0.5377650000000 1.0
C      1  0.4428150000000  0.4742230000000  0.5334550000000 1.0
C      1  0.4772160000000  0.4449020000000  0.4684610000000 1.0
C      1  0.4439540000000  0.5222190000000  0.4684110000000 1.0
C      1  0.5231800000000  0.5524770000000  0.4636000000000 1.0
C      1  0.5555890000000  0.4792810000000  0.4690300000000 1.0
C      1  0.4795750000000  0.5552920000000  0.5647680000000 1.0
C      1  0.4445720000000  0.4830090000000  0.5604770000000 1.0
C      1  0.5205610000000  0.4463640000000  0.5631220000000 1.0
C      1  0.5550960000000  0.5178310000000  0.5620540000000 1.0
C      1  0.5152160000000  0.5512220000000  0.4356110000000 1.0
C      1  0.5494490000000  0.4806800000000  0.4409710000000 1.0
C      1  0.4783870000000  0.4517090000000  0.4405690000000 1.0
C      1  0.4480880000000  0.5169010000000  0.4403890000000 1.0
C      1  0.5991010000000  0.5101280000000  0.5082590000000 1.0
C      1  0.4903090000000  0.5935170000000  0.5059810000000 1.0
C      1  0.4018060000000  0.4845020000000  0.5034940000000 1.0
C      1  0.5126930000000  0.4092070000000  0.5043020000000 1.0
C      1  0.4016360000000  0.5123860000000  0.4973120000000 1.0
C      1  0.5197000000000  0.5964630000000  0.5022770000000 1.0
C      1  0.5977140000000  0.4819800000000  0.5028080000000 1.0
C      1  0.4803930000000  0.4039130000000  0.5009960000000 1.0
C      1  0.5626640000000  0.4647960000000  0.5654290000000 1.0
C      1  0.5393980000000  0.5629430000000  0.5593390000000 1.0
C      1  0.4399120000000  0.5348150000000  0.5649660000000 1.0
C      1  0.4608980000000  0.4367290000000  0.5589150000000 1.0
C      1  0.4332190000000  0.4660340000000  0.4371070000000 1.0
C      1  0.4622680000000  0.5646270000000  0.4357910000000 1.0
C      1  0.5615640000000  0.5373290000000  0.4370560000000 1.0
C      1  0.5369360000000  0.4345740000000  0.4410440000000 1.0
C      1  0.4579510000000  0.4203680000000  0.5133760000000 1.0
C      1  0.5778450000000  0.4570860000000  0.5170430000000 1.0
C      1  0.5429820000000  0.5793580000000  0.5139260000000 1.0
C      1  0.4209590000000  0.5419230000000  0.5194200000000 1.0
C      1  0.5354140000000  0.4355640000000  0.4875220000000 1.0
C      1  0.4347260000000  0.4645280000000  0.4873000000000 1.0
C      1  0.4626490000000  0.5649240000000  0.4880910000000 1.0
C      1  0.5640660000000  0.5351690000000  0.4880180000000 1.0
C      1  0.5116370000000  0.4224980000000  0.4425440000000 1.0
C      1  0.5779360000000  0.5141300000000  0.4431920000000 1.0
C      1  0.4854740000000  0.5836630000000  0.4512780000000 1.0
C      1  0.4161070000000  0.4852070000000  0.4523280000000 1.0
C      1  0.4833310000000  0.4230440000000  0.5478240000000 1.0
C      1  0.4165020000000  0.5156110000000  0.5367960000000 1.0
C      1  0.5175980000000  0.5770550000000  0.5487070000000 1.0
C      1  0.5840050000000  0.4895630000000  0.5398470000000 1.0
C      1  0.5711090000000  0.4932160000000  0.5650820000000 1.0
C      1  0.5019540000000  0.5701300000000  0.5697940000000 1.0
C      1  0.4298800000000  0.5081160000000  0.5618120000000 1.0
C      1  0.4987740000000  0.4300860000000  0.5689370000000 1.0
C      1  0.4304950000000  0.4966570000000  0.4317740000000 1.0
C      1  0.4930560000000  0.5688390000000  0.4289610000000 1.0
C      1  0.5641410000000  0.4971890000000  0.4231440000000 1.0
C      1  0.4967850000000  0.4386300000000  0.4235820000000 1.0
C      1  0.4704350000000  0.4943550000000  0.5950630000000 1.0
C      1  0.5030560000000  0.4695660000000  0.5965560000000 1.0
C      1  0.5298310000000  0.5060020000000  0.5962800000000 1.0
C      1  0.4974380000000  0.5304570000000  0.5985260000000 1.0
C      1  0.5413350000000  0.4971360000000  0.4049910000000 1.0
C      1  0.5002550000000  0.4613940000000  0.4057560000000 1.0
C      1  0.4761610000000  0.5066800000000  0.4005210000000 1.0
C      1  0.5005390000000  0.5222180000000  0.3945980000000 1.0
C      1  0.5281360000000  0.5210150000000  0.4018620000000 1.0
C      1  0.4853320000000  0.5250040000000  0.4181940000000 1.0
C      1  0.4766770000000  0.4779510000000  0.4058430000000 1.0
C      1  0.5272210000000  0.4717060000000  0.4050210000000 1.0
C      1  0.4735560000000  0.5206520000000  0.5978880000000 1.0
C      1  0.5197980000000  0.5263910000000  0.5885270000000 1.0
C      1  0.5270940000000  0.4794370000000  0.5970970000000 1.0
C      1  0.4795230000000  0.4729030000000  0.5891910000000 1.0
C      1  0.5368230000000  0.5391420000000  0.4211720000000 1.0
C      1  0.4617630000000  0.5367290000000  0.4243280000000 1.0
C      1  0.4609850000000  0.4673050000000  0.4265990000000 1.0
C      1  0.5392210000000  0.4585940000000  0.4277030000000 1.0
C      1  0.4624540000000  0.5401020000000  0.5809270000000 1.0
C      1  0.5418580000000  0.5389860000000  0.5754960000000 1.0
C      1  0.5387520000000  0.4612990000000  0.5794830000000 1.0
C      1  0.4582460000000  0.4616640000000  0.5736080000000 1.0
C      1  0.5572640000000  0.5714410000000  0.5401110000000 1.0
C      1  0.4316180000000  0.5541000000000  0.5438690000000 1.0
C      1  0.4431990000000  0.4279000000000  0.5399470000000 1.0
C      1  0.5685050000000  0.4463440000000  0.5429880000000 1.0
C      1  0.4475750000000  0.5670930000000  0.4623130000000 1.0
C      1  0.5680240000000  0.5510780000000  0.4615960000000 1.0
C      1  0.5536880000000  0.4329110000000  0.4632930000000 1.0
C      1  0.4332800000000  0.4486840000000  0.4618490000000 1.0
C      1  0.5011920000000  0.4324640000000  0.5221800000000 1.0
C      1  0.5624270000000  0.5008990000000  0.5243120000000 1.0
C      1  0.4981110000000  0.5685110000000  0.5250500000000 1.0
C      1  0.4347970000000  0.4993400000000  0.5219450000000 1.0
C      1  0.4946120000000  0.4209750000000  0.4666540000000 1.0
C      1  0.4210190000000  0.5057380000000  0.4732960000000 1.0
C      1  0.5066010000000  0.5759440000000  0.4695020000000 1.0
C      1  0.5797330000000  0.4961670000000  0.4671730000000 1.0
C      1  0.4405410000000  0.5546510000000  0.5027790000000 1.0
C      1  0.5593370000000  0.4417140000000  0.5027590000000 1.0
C      1  0.5535050000000  0.5575560000000  0.5015390000000 1.0
C      1  0.4461410000000  0.4420190000000  0.5012680000000 1.0
END
