TITL C-2441154-10-309 0.0557787622377968 125000 -25409.4571788567 0 0 184 (C1) n - 1
REM
REM in /home/bkarasulu/work/CARBON/AIRSS/Generating-Clusters/ReaxFF-fromJPCA2015/Units_Real/with-SteepDescent/Higher-Symm
REM
REM
REM
REM
REM
REM ./C.cell (1df0a924f5614ab8850e4351716899ee)
REM
REM compiler GCC version 9.2.1 20190827 (Red Hat 9.2.1-1)
REM options -cpp -mtune=generic -march=x86-64 -g -O0 -fpre-include=/usr/include/finclude/math-vector-fortran.h
REM seed 1522039669 -1667824498 -258230596 -1845111530 -1385906220 -1168517101 -689518960 590312847 -1484977916 787955711 2098375962 2006546879 -121049246 -434017149 1375474232 885756649 107755816 -277516357 -1036757535 -80374767 1280715308 -1149675995 150166871 -410632284 -590409283 609087894 -1650256434 -1403505355 -625808296 1231411622 -1595566715 1830718970 -1097378722
REM
CELL 1.54180   50.00000   50.00000   50.00000   90.00000   90.00000   90.00000
LATT -1
SFAC C  
C      1  0.5146000000000  0.4439270000000  0.5920210000000 1.0
C      1  0.4657510000000  0.4506370000000  0.5843380000000 1.0
C      1  0.4251980000000  0.4454790000000  0.5503310000000 1.0
C      1  0.4069030000000  0.4480540000000  0.5015340000000 1.0
C      1  0.4155070000000  0.4400160000000  0.4503580000000 1.0
C      1  0.4551670000000  0.4463550000000  0.4177960000000 1.0
C      1  0.5105210000000  0.4484770000000  0.4101200000000 1.0
C      1  0.5591430000000  0.4470190000000  0.4287870000000 1.0
C      1  0.5873540000000  0.4479320000000  0.4724970000000 1.0
C      1  0.5877040000000  0.4472280000000  0.5220630000000 1.0
C      1  0.5564050000000  0.4420110000000  0.5599850000000 1.0
C      1  0.5641290000000  0.5843350000000  0.5409810000000 1.0
C      1  0.5455910000000  0.5760140000000  0.5807150000000 1.0
C      1  0.4891160000000  0.5870600000000  0.5776740000000 1.0
C      1  0.4384860000000  0.5788280000000  0.5726050000000 1.0
C      1  0.4231830000000  0.5835510000000  0.5274850000000 1.0
C      1  0.4195420000000  0.5829850000000  0.4766330000000 1.0
C      1  0.4376430000000  0.5762480000000  0.4303730000000 1.0
C      1  0.4836960000000  0.5846050000000  0.4256250000000 1.0
C      1  0.5346040000000  0.5820390000000  0.4131940000000 1.0
C      1  0.5628640000000  0.5826980000000  0.4554640000000 1.0
C      1  0.5917040000000  0.5795410000000  0.4935960000000 1.0
C      1  0.4302670000000  0.5230440000000  0.5688330000000 1.0
C      1  0.4188840000000  0.5286330000000  0.5238770000000 1.0
C      1  0.4086210000000  0.5179600000000  0.4700840000000 1.0
C      1  0.4421500000000  0.5225480000000  0.4270970000000 1.0
C      1  0.4918130000000  0.5231360000000  0.4071180000000 1.0
C      1  0.5426490000000  0.5191350000000  0.4161020000000 1.0
C      1  0.5860550000000  0.5201860000000  0.4499000000000 1.0
C      1  0.5916210000000  0.5176660000000  0.5046500000000 1.0
C      1  0.5766570000000  0.5191530000000  0.5591040000000 1.0
C      1  0.5313800000000  0.5136080000000  0.5891890000000 1.0
C      1  0.4776700000000  0.5250950000000  0.5912270000000 1.0
C      1  0.5098970000000  0.5888640000000  0.4433560000000 1.0
C      1  0.5389380000000  0.5925080000000  0.4389140000000 1.0
C      1  0.5696370000000  0.5929740000000  0.4840880000000 1.0
C      1  0.5574570000000  0.5917690000000  0.5111940000000 1.0
C      1  0.5422750000000  0.5937790000000  0.5603330000000 1.0
C      1  0.5126290000000  0.5920550000000  0.5591260000000 1.0
C      1  0.4614670000000  0.5939070000000  0.5683800000000 1.0
C      1  0.4398140000000  0.5947320000000  0.5491580000000 1.0
C      1  0.4336400000000  0.5900180000000  0.5012100000000 1.0
C      1  0.4335710000000  0.5925650000000  0.4513600000000 1.0
C      1  0.4597040000000  0.5925560000000  0.4399360000000 1.0
C      1  0.5963510000000  0.5387540000000  0.5481950000000 1.0
C      1  0.5532030000000  0.5291710000000  0.6015100000000 1.0
C      1  0.4957810000000  0.5406410000000  0.6084290000000 1.0
C      1  0.4316760000000  0.5332180000000  0.5951470000000 1.0
C      1  0.3941170000000  0.5316800000000  0.5347830000000 1.0
C      1  0.3897240000000  0.5358500000000  0.4858450000000 1.0
C      1  0.4156900000000  0.5297640000000  0.4226740000000 1.0
C      1  0.4700760000000  0.5402340000000  0.3947390000000 1.0
C      1  0.5357610000000  0.5342460000000  0.3921170000000 1.0
C      1  0.5842730000000  0.5385040000000  0.4273670000000 1.0
C      1  0.6116200000000  0.5328420000000  0.4893990000000 1.0
C      1  0.4552730000000  0.4863580000000  0.4626890000000 1.0
C      1  0.4923150000000  0.4814590000000  0.4450920000000 1.0
C      1  0.5224300000000  0.4832320000000  0.4445320000000 1.0
C      1  0.5454520000000  0.4888270000000  0.4619480000000 1.0
C      1  0.5542320000000  0.4798370000000  0.4919950000000 1.0
C      1  0.5492200000000  0.4895890000000  0.5252900000000 1.0
C      1  0.5284450000000  0.4800560000000  0.5476270000000 1.0
C      1  0.4987470000000  0.4920040000000  0.5520600000000 1.0
C      1  0.4669740000000  0.4808910000000  0.5466780000000 1.0
C      1  0.4514780000000  0.4911310000000  0.5203990000000 1.0
C      1  0.4424940000000  0.4780960000000  0.4886440000000 1.0
C      1  0.4048290000000  0.4440350000000  0.5292810000000 1.0
C      1  0.4009810000000  0.4432330000000  0.4742100000000 1.0
C      1  0.4427820000000  0.4389590000000  0.4431410000000 1.0
C      1  0.4821510000000  0.4436470000000  0.4048340000000 1.0
C      1  0.5397080000000  0.4447260000000  0.4085380000000 1.0
C      1  0.5814530000000  0.4422540000000  0.4457670000000 1.0
C      1  0.6003920000000  0.4449820000000  0.4975340000000 1.0
C      1  0.5826490000000  0.4408270000000  0.5496990000000 1.0
C      1  0.5365510000000  0.4267220000000  0.5980640000000 1.0
C      1  0.4868570000000  0.4441340000000  0.5997850000000 1.0
C      1  0.4378720000000  0.4472120000000  0.5770230000000 1.0
C      1  0.4557180000000  0.4026900000000  0.4963390000000 1.0
C      1  0.4640580000000  0.4065730000000  0.4698090000000 1.0
C      1  0.4897760000000  0.3941430000000  0.4647720000000 1.0
C      1  0.5117160000000  0.4077620000000  0.4518540000000 1.0
C      1  0.5392960000000  0.4074490000000  0.4650660000000 1.0
C      1  0.5440780000000  0.4034250000000  0.4924910000000 1.0
C      1  0.5439250000000  0.4077200000000  0.5204130000000 1.0
C      1  0.5251460000000  0.3955780000000  0.5410830000000 1.0
C      1  0.5001370000000  0.4093310000000  0.5485900000000 1.0
C      1  0.4725630000000  0.3972330000000  0.5443670000000 1.0
C      1  0.4544150000000  0.4085470000000  0.5240590000000 1.0
C      1  0.5256170000000  0.5285790000000  0.5369250000000 1.0
C      1  0.5015870000000  0.5171780000000  0.5433550000000 1.0
C      1  0.4785510000000  0.5284060000000  0.5372210000000 1.0
C      1  0.4623650000000  0.5176510000000  0.5158580000000 1.0
C      1  0.4555250000000  0.5283820000000  0.4893530000000 1.0
C      1  0.4628200000000  0.5118130000000  0.4674210000000 1.0
C      1  0.4812030000000  0.5249550000000  0.4526850000000 1.0
C      1  0.5055620000000  0.5189800000000  0.4581130000000 1.0
C      1  0.5317430000000  0.5199830000000  0.4653780000000 1.0
C      1  0.5452950000000  0.5248580000000  0.4929650000000 1.0
C      1  0.5419050000000  0.5150950000000  0.5190750000000 1.0
C      1  0.4764110000000  0.4688660000000  0.6081220000000 1.0
C      1  0.4168190000000  0.4659060000000  0.5687480000000 1.0
C      1  0.3905720000000  0.4653310000000  0.5163340000000 1.0
C      1  0.3970210000000  0.4613530000000  0.4518250000000 1.0
C      1  0.4447930000000  0.4726010000000  0.4129720000000 1.0
C      1  0.4964250000000  0.4654440000000  0.3908460000000 1.0
C      1  0.5605370000000  0.4649400000000  0.4068940000000 1.0
C      1  0.5956550000000  0.4675730000000  0.4529960000000 1.0
C      1  0.6082070000000  0.4654080000000  0.5170940000000 1.0
C      1  0.5761980000000  0.4575910000000  0.5734860000000 1.0
C      1  0.5380170000000  0.4497830000000  0.6075190000000 1.0
C      1  0.5745900000000  0.5603370000000  0.4427300000000 1.0
C      1  0.6020270000000  0.5583690000000  0.4917900000000 1.0
C      1  0.5804430000000  0.5616910000000  0.5447360000000 1.0
C      1  0.5495930000000  0.5560250000000  0.5923850000000 1.0
C      1  0.4929780000000  0.5637500000000  0.5935800000000 1.0
C      1  0.4393060000000  0.5510240000000  0.5755130000000 1.0
C      1  0.4285160000000  0.5539720000000  0.5304420000000 1.0
C      1  0.4042870000000  0.5589200000000  0.4805660000000 1.0
C      1  0.4309490000000  0.5495060000000  0.4353680000000 1.0
C      1  0.4780330000000  0.5623710000000  0.4095860000000 1.0
C      1  0.5350080000000  0.5601390000000  0.4025710000000 1.0
C      1  0.4826410000000  0.4977990000000  0.4199100000000 1.0
C      1  0.5276330000000  0.4945640000000  0.4182280000000 1.0
C      1  0.5726130000000  0.4924110000000  0.4453320000000 1.0
C      1  0.5822490000000  0.4926430000000  0.4924990000000 1.0
C      1  0.5747920000000  0.4952090000000  0.5415140000000 1.0
C      1  0.5397440000000  0.4896600000000  0.5744770000000 1.0
C      1  0.4927260000000  0.5010740000000  0.5805810000000 1.0
C      1  0.4515540000000  0.4953890000000  0.5690050000000 1.0
C      1  0.4258520000000  0.5012940000000  0.5310170000000 1.0
C      1  0.4143320000000  0.4937490000000  0.4855100000000 1.0
C      1  0.4371580000000  0.4879510000000  0.4380060000000 1.0
C      1  0.4606560000000  0.4941320000000  0.4014840000000 1.0
C      1  0.5142360000000  0.4887060000000  0.3930940000000 1.0
C      1  0.5718580000000  0.4900030000000  0.4160330000000 1.0
C      1  0.6031370000000  0.4875950000000  0.4738480000000 1.0
C      1  0.6019410000000  0.4890790000000  0.5332020000000 1.0
C      1  0.5661940000000  0.4833870000000  0.5840390000000 1.0
C      1  0.5009700000000  0.4894360000000  0.6054540000000 1.0
C      1  0.4525480000000  0.4882150000000  0.5961980000000 1.0
C      1  0.4104360000000  0.4902800000000  0.5528570000000 1.0
C      1  0.3925160000000  0.4917470000000  0.5036670000000 1.0
C      1  0.4071380000000  0.4856480000000  0.4401670000000 1.0
C      1  0.5000590000000  0.4390220000000  0.5467570000000 1.0
C      1  0.4755140000000  0.4521890000000  0.5387980000000 1.0
C      1  0.4579510000000  0.4390010000000  0.5180930000000 1.0
C      1  0.4508340000000  0.4499750000000  0.4922470000000 1.0
C      1  0.4615260000000  0.4386710000000  0.4653610000000 1.0
C      1  0.4875060000000  0.4543470000000  0.4542330000000 1.0
C      1  0.5107400000000  0.4372350000000  0.4538150000000 1.0
C      1  0.5376110000000  0.4372070000000  0.4677120000000 1.0
C      1  0.5460920000000  0.4511150000000  0.4926970000000 1.0
C      1  0.5411880000000  0.4374080000000  0.5175980000000 1.0
C      1  0.5301290000000  0.4492540000000  0.5442230000000 1.0
C      1  0.4623830000000  0.5546760000000  0.4798950000000 1.0
C      1  0.4816090000000  0.5519370000000  0.4590320000000 1.0
C      1  0.5085110000000  0.5631070000000  0.4559040000000 1.0
C      1  0.5330510000000  0.5488920000000  0.4608610000000 1.0
C      1  0.5457910000000  0.5514820000000  0.4863730000000 1.0
C      1  0.5412480000000  0.5682750000000  0.5095080000000 1.0
C      1  0.5269510000000  0.5563860000000  0.5319450000000 1.0
C      1  0.5038920000000  0.5705010000000  0.5422760000000 1.0
C      1  0.4787490000000  0.5556540000000  0.5419320000000 1.0
C      1  0.4564670000000  0.5604600000000  0.5252490000000 1.0
C      1  0.4608880000000  0.5761970000000  0.5003360000000 1.0
C      1  0.5142080000000  0.5148440000000  0.6127740000000 1.0
C      1  0.4527970000000  0.5162220000000  0.6053930000000 1.0
C      1  0.4012600000000  0.5168960000000  0.5595900000000 1.0
C      1  0.3824250000000  0.5194050000000  0.5102400000000 1.0
C      1  0.4011380000000  0.5136920000000  0.4419210000000 1.0
C      1  0.4478610000000  0.5209120000000  0.3997600000000 1.0
C      1  0.5120260000000  0.5167950000000  0.3868750000000 1.0
C      1  0.5701650000000  0.5183960000000  0.4092570000000 1.0
C      1  0.6097950000000  0.5147060000000  0.4658080000000 1.0
C      1  0.6073730000000  0.5179790000000  0.5288890000000 1.0
C      1  0.5738240000000  0.5119030000000  0.5872620000000 1.0
C      1  0.4984090000000  0.4240640000000  0.4994300000000 1.0
C      1  0.4953020000000  0.5799170000000  0.4997860000000 1.0
C      1  0.4993350000000  0.4498160000000  0.5007400000000 1.0
C      1  0.4970660000000  0.3940880000000  0.4951060000000 1.0
C      1  0.4999250000000  0.5530900000000  0.4993440000000 1.0
C      1  0.5001000000000  0.4753600000000  0.4995800000000 1.0
C      1  0.5008930000000  0.5008390000000  0.4983560000000 1.0
C      1  0.5009740000000  0.5269100000000  0.4988120000000 1.0
END
