TITL C-2441162-9305-840 0.0485025649195987 125000 -23774.796393156 0 0 166 (C1) n - 1
REM
REM in /home/bkarasulu/work/CARBON/AIRSS/Generating-Clusters/ReaxFF-fromJPCA2015/Units_Real/with-SteepDescent/Higher-Symm
REM
REM
REM
REM
REM
REM ./C.cell (1df0a924f5614ab8850e4351716899ee)
REM
REM compiler GCC version 9.2.1 20190827 (Red Hat 9.2.1-1)
REM options -cpp -mtune=generic -march=x86-64 -g -O0 -fpre-include=/usr/include/finclude/math-vector-fortran.h
REM seed 1239114317 1435796434 119150482 1126926223 1255106550 -88924875 -554674443 -1856944398 -853252768 -449669403 -301519568 112032499 660985746 546878827 -726353520 -1454837217 -220878251 1358015200 267032029 -1486417095 -1448479560 -100503727 -1748400637 -2142665648 -1001382255 654346751 -171064909 -1217481927 1165025548 1331000122 2087253498 474089193 2141803339
REM
CELL 1.54180   50.00000   50.00000   50.00000   90.00000   90.00000   90.00000
LATT -1
SFAC C  
C      1  0.4087410000000  0.5286640000000  0.4521720000000 1.0
C      1  0.5813580000000  0.5293770000000  0.4422320000000 1.0
C      1  0.5107280000000  0.5294540000000  0.5990380000000 1.0
C      1  0.5110490000000  0.4941180000000  0.5521470000000 1.0
C      1  0.4422520000000  0.4862910000000  0.4800910000000 1.0
C      1  0.5357180000000  0.4965160000000  0.4680630000000 1.0
C      1  0.5515190000000  0.4046820000000  0.4856450000000 1.0
C      1  0.4911900000000  0.3986810000000  0.5480420000000 1.0
C      1  0.4614720000000  0.4032750000000  0.4638710000000 1.0
C      1  0.4916570000000  0.4079990000000  0.4673460000000 1.0
C      1  0.5341980000000  0.4135350000000  0.5082270000000 1.0
C      1  0.4754380000000  0.4128400000000  0.5256540000000 1.0
C      1  0.4640850000000  0.5701160000000  0.4275080000000 1.0
C      1  0.5854110000000  0.5719170000000  0.5069780000000 1.0
C      1  0.4571440000000  0.5728480000000  0.5695300000000 1.0
C      1  0.4522520000000  0.4757810000000  0.4159520000000 1.0
C      1  0.6052160000000  0.4795880000000  0.4980620000000 1.0
C      1  0.4510210000000  0.4784200000000  0.6009290000000 1.0
C      1  0.4413230000000  0.5916570000000  0.5300930000000 1.0
C      1  0.5046660000000  0.5882380000000  0.4292820000000 1.0
C      1  0.5633840000000  0.5916650000000  0.5346890000000 1.0
C      1  0.4665190000000  0.4696770000000  0.5505930000000 1.0
C      1  0.4715080000000  0.4753870000000  0.4438470000000 1.0
C      1  0.5550810000000  0.4843810000000  0.5167790000000 1.0
C      1  0.4591270000000  0.5121430000000  0.5116320000000 1.0
C      1  0.5003270000000  0.5251190000000  0.4516660000000 1.0
C      1  0.5183610000000  0.5288090000000  0.5236050000000 1.0
C      1  0.4121440000000  0.5299400000000  0.5247730000000 1.0
C      1  0.5229470000000  0.5231600000000  0.4074600000000 1.0
C      1  0.5793510000000  0.5273030000000  0.5584980000000 1.0
C      1  0.5001800000000  0.4348260000000  0.4743910000000 1.0
C      1  0.5245400000000  0.4430330000000  0.5096220000000 1.0
C      1  0.4754790000000  0.4453010000000  0.5131670000000 1.0
C      1  0.4893090000000  0.5600510000000  0.5038730000000 1.0
C      1  0.5293870000000  0.5382420000000  0.4836700000000 1.0
C      1  0.4973520000000  0.5483000000000  0.5292310000000 1.0
C      1  0.4336460000000  0.4368090000000  0.5690460000000 1.0
C      1  0.4785080000000  0.4300040000000  0.4045110000000 1.0
C      1  0.5950450000000  0.4331150000000  0.5279670000000 1.0
C      1  0.5284510000000  0.5169910000000  0.5490180000000 1.0
C      1  0.4501170000000  0.5332290000000  0.4960860000000 1.0
C      1  0.5293280000000  0.5238100000000  0.4538220000000 1.0
C      1  0.4640650000000  0.5023830000000  0.4000860000000 1.0
C      1  0.6036950000000  0.5024650000000  0.5149020000000 1.0
C      1  0.4459300000000  0.5052550000000  0.5982130000000 1.0
C      1  0.4894290000000  0.5098290000000  0.5972670000000 1.0
C      1  0.4214750000000  0.5064480000000  0.4358670000000 1.0
C      1  0.5913520000000  0.5078210000000  0.4597620000000 1.0
C      1  0.4939180000000  0.5534190000000  0.5913520000000 1.0
C      1  0.4231540000000  0.5549500000000  0.4459460000000 1.0
C      1  0.5809070000000  0.5541190000000  0.4587090000000 1.0
C      1  0.4214210000000  0.4541670000000  0.5183510000000 1.0
C      1  0.5307940000000  0.4460970000000  0.4162300000000 1.0
C      1  0.5531880000000  0.4503830000000  0.5578930000000 1.0
C      1  0.4878430000000  0.5919510000000  0.4544750000000 1.0
C      1  0.5496930000000  0.6024140000000  0.5113500000000 1.0
C      1  0.4704010000000  0.5995640000000  0.5346070000000 1.0
C      1  0.4028770000000  0.5206290000000  0.4784470000000 1.0
C      1  0.5622050000000  0.5212430000000  0.4211840000000 1.0
C      1  0.5383830000000  0.5207760000000  0.5931400000000 1.0
C      1  0.5173150000000  0.4769490000000  0.4640650000000 1.0
C      1  0.5149090000000  0.4730370000000  0.5342600000000 1.0
C      1  0.4525980000000  0.4862140000000  0.5071990000000 1.0
C      1  0.5547820000000  0.4788150000000  0.5672230000000 1.0
C      1  0.4059250000000  0.4795930000000  0.5116640000000 1.0
C      1  0.5390980000000  0.4738500000000  0.4117360000000 1.0
C      1  0.5626010000000  0.4908670000000  0.4117390000000 1.0
C      1  0.5468460000000  0.4914430000000  0.5934020000000 1.0
C      1  0.3945800000000  0.4930450000000  0.4875920000000 1.0
C      1  0.5460120000000  0.5904750000000  0.5581270000000 1.0
C      1  0.4340230000000  0.5867990000000  0.5038160000000 1.0
C      1  0.5316990000000  0.5831510000000  0.4352220000000 1.0
C      1  0.5007490000000  0.4504140000000  0.5251010000000 1.0
C      1  0.4774860000000  0.4484490000000  0.4850680000000 1.0
C      1  0.5250550000000  0.4501660000000  0.4795770000000 1.0
C      1  0.4323280000000  0.4614660000000  0.5848710000000 1.0
C      1  0.4650520000000  0.4558120000000  0.3972990000000 1.0
C      1  0.6086920000000  0.4602370000000  0.5207350000000 1.0
C      1  0.4858780000000  0.5321850000000  0.4295590000000 1.0
C      1  0.5674580000000  0.5365590000000  0.5161690000000 1.0
C      1  0.4262840000000  0.5238710000000  0.5671570000000 1.0
C      1  0.4746980000000  0.5190780000000  0.5720700000000 1.0
C      1  0.4481740000000  0.5140460000000  0.4443910000000 1.0
C      1  0.5741540000000  0.5136650000000  0.4825350000000 1.0
C      1  0.5117850000000  0.5197470000000  0.4961250000000 1.0
C      1  0.4724550000000  0.5147760000000  0.5332280000000 1.0
C      1  0.4876810000000  0.5202480000000  0.4773000000000 1.0
C      1  0.5675200000000  0.4248980000000  0.4875590000000 1.0
C      1  0.4612750000000  0.4267010000000  0.5665620000000 1.0
C      1  0.4590450000000  0.4236150000000  0.4485010000000 1.0
C      1  0.5305020000000  0.5686860000000  0.5658080000000 1.0
C      1  0.4220880000000  0.5695490000000  0.4893270000000 1.0
C      1  0.5338250000000  0.5815730000000  0.4596500000000 1.0
C      1  0.5539660000000  0.4470650000000  0.4767080000000 1.0
C      1  0.4809990000000  0.4473680000000  0.5598750000000 1.0
C      1  0.4598730000000  0.4506430000000  0.4628310000000 1.0
C      1  0.4243020000000  0.4788620000000  0.4280360000000 1.0
C      1  0.5996040000000  0.4809010000000  0.4682100000000 1.0
C      1  0.4803110000000  0.4829260000000  0.6050120000000 1.0
C      1  0.5626180000000  0.5770850000000  0.4597780000000 1.0
C      1  0.5030870000000  0.5738980000000  0.5726140000000 1.0
C      1  0.4348150000000  0.5752870000000  0.4640660000000 1.0
C      1  0.5511300000000  0.5264880000000  0.5675350000000 1.0
C      1  0.4206210000000  0.5372100000000  0.4978760000000 1.0
C      1  0.5389470000000  0.5309570000000  0.4277840000000 1.0
C      1  0.5621630000000  0.5815410000000  0.4918830000000 1.0
C      1  0.4801340000000  0.5871340000000  0.5589670000000 1.0
C      1  0.4653170000000  0.5726850000000  0.4587060000000 1.0
C      1  0.4832920000000  0.6006470000000  0.5094750000000 1.0
C      1  0.5072620000000  0.5949480000000  0.4751330000000 1.0
C      1  0.5227680000000  0.5983520000000  0.5136860000000 1.0
C      1  0.6010540000000  0.4698210000000  0.5472270000000 1.0
C      1  0.4151220000000  0.4731240000000  0.5652570000000 1.0
C      1  0.4907650000000  0.4670390000000  0.3887630000000 1.0
C      1  0.5420000000000  0.4063020000000  0.4557050000000 1.0
C      1  0.5203550000000  0.4064660000000  0.5591370000000 1.0
C      1  0.4408660000000  0.4083710000000  0.4869280000000 1.0
C      1  0.4941770000000  0.4959570000000  0.3943630000000 1.0
C      1  0.5943520000000  0.5008030000000  0.5432720000000 1.0
C      1  0.4155890000000  0.4992870000000  0.5567710000000 1.0
C      1  0.5495530000000  0.5514150000000  0.4992130000000 1.0
C      1  0.4788870000000  0.5375880000000  0.5484360000000 1.0
C      1  0.4717130000000  0.5480640000000  0.4838080000000 1.0
C      1  0.5498280000000  0.5659900000000  0.5408690000000 1.0
C      1  0.4360750000000  0.5699400000000  0.5495750000000 1.0
C      1  0.4897520000000  0.5691080000000  0.4126480000000 1.0
C      1  0.4076490000000  0.5021430000000  0.5300230000000 1.0
C      1  0.5142050000000  0.4928130000000  0.4162630000000 1.0
C      1  0.5644390000000  0.4928760000000  0.5429730000000 1.0
C      1  0.5896740000000  0.5265170000000  0.5010070000000 1.0
C      1  0.4492430000000  0.5277140000000  0.5851410000000 1.0
C      1  0.4586720000000  0.5271460000000  0.4232910000000 1.0
C      1  0.4177130000000  0.4496670000000  0.5475870000000 1.0
C      1  0.5053700000000  0.4443480000000  0.4016680000000 1.0
C      1  0.5835930000000  0.4469840000000  0.5520190000000 1.0
C      1  0.4683670000000  0.3998240000000  0.5635490000000 1.0
C      1  0.4693110000000  0.4197230000000  0.4276900000000 1.0
C      1  0.5795040000000  0.4235210000000  0.5085080000000 1.0
C      1  0.4125750000000  0.4602880000000  0.4483660000000 1.0
C      1  0.5910110000000  0.4614380000000  0.4476090000000 1.0
C      1  0.5017370000000  0.4617750000000  0.6022630000000 1.0
C      1  0.4309160000000  0.4473650000000  0.4687360000000 1.0
C      1  0.5657460000000  0.4442280000000  0.4507630000000 1.0
C      1  0.5045890000000  0.4466790000000  0.5765170000000 1.0
C      1  0.5001220000000  0.4795380000000  0.4413330000000 1.0
C      1  0.5413910000000  0.4605180000000  0.5269290000000 1.0
C      1  0.4543850000000  0.4635150000000  0.5246740000000 1.0
C      1  0.5269750000000  0.4730190000000  0.5997320000000 1.0
C      1  0.3984140000000  0.4717680000000  0.4697760000000 1.0
C      1  0.5795170000000  0.4733530000000  0.4249600000000 1.0
C      1  0.5287100000000  0.4327410000000  0.5679090000000 1.0
C      1  0.4266070000000  0.4330540000000  0.4934880000000 1.0
C      1  0.5454150000000  0.4285520000000  0.4363080000000 1.0
C      1  0.5146240000000  0.4034550000000  0.4527550000000 1.0
C      1  0.5306660000000  0.4060670000000  0.5340200000000 1.0
C      1  0.4538110000000  0.4074310000000  0.5106840000000 1.0
C      1  0.4791880000000  0.4958600000000  0.5527230000000 1.0
C      1  0.4639420000000  0.4992590000000  0.4618400000000 1.0
C      1  0.5533680000000  0.4966400000000  0.4905900000000 1.0
C      1  0.5941030000000  0.5553120000000  0.4857290000000 1.0
C      1  0.4650540000000  0.5531590000000  0.5890420000000 1.0
C      1  0.4412840000000  0.5533840000000  0.4237250000000 1.0
C      1  0.5776510000000  0.5493060000000  0.5399580000000 1.0
C      1  0.4226300000000  0.5444050000000  0.5469320000000 1.0
C      1  0.5003080000000  0.5424230000000  0.4066490000000 1.0
C      1  0.5018400000000  0.5859880000000  0.5012670000000 1.0
END
