TITL C-2441166-8118-1206 0.0894012505987723 125000 -22941.5475999654 0 0 163 (C1) n - 1
REM
REM in /home/bkarasulu/work/CARBON/AIRSS/Generating-Clusters/ReaxFF-fromJPCA2015/Units_Real/with-SteepDescent/Higher-Symm
REM
REM
REM
REM
REM
REM ./C.cell (1df0a924f5614ab8850e4351716899ee)
REM
REM compiler GCC version 9.2.1 20190827 (Red Hat 9.2.1-1)
REM options -cpp -mtune=generic -march=x86-64 -g -O0 -fpre-include=/usr/include/finclude/math-vector-fortran.h
REM seed -49764339 1341100369 1496959746 -1506765135 1065113728 -1950146363 79120838 1538698989 1852280276 -2025939484 882377064 534627691 418916002 -2079541915 -1037071023 1129503971 -338485856 1476707816 -1616087528 1280961355 -1552823554 -260506521 698036717 -821353682 1831709163 1784338626 -1361551431 -1203590953 2145115961 -727403250 965444505 1240291472 1904735968
REM
CELL 1.54180   50.00000   50.00000   50.00000   90.00000   90.00000   90.00000
LATT -1
SFAC C  
C      1  0.5297960000000  0.5197720000000  0.4616700000000 1.0
C      1  0.5508010000000  0.5673770000000  0.4640870000000 1.0
C      1  0.4893010000000  0.5537800000000  0.5092970000000 1.0
C      1  0.4098600000000  0.5000400000000  0.5398840000000 1.0
C      1  0.4834200000000  0.4214680000000  0.5578830000000 1.0
C      1  0.4353520000000  0.4326630000000  0.4792800000000 1.0
C      1  0.5766570000000  0.4672870000000  0.4478090000000 1.0
C      1  0.4540580000000  0.3956460000000  0.4986600000000 1.0
C      1  0.4331400000000  0.4442560000000  0.5522650000000 1.0
C      1  0.6045290000000  0.4987270000000  0.4987130000000 1.0
C      1  0.4362710000000  0.4645410000000  0.5334870000000 1.0
C      1  0.4916020000000  0.5040830000000  0.5896640000000 1.0
C      1  0.4429670000000  0.5222170000000  0.4109620000000 1.0
C      1  0.5561210000000  0.4206070000000  0.4646140000000 1.0
C      1  0.4668050000000  0.5561840000000  0.5897320000000 1.0
C      1  0.4651120000000  0.4264020000000  0.4331930000000 1.0
C      1  0.4614990000000  0.5480010000000  0.5178030000000 1.0
C      1  0.5335500000000  0.4644040000000  0.5372150000000 1.0
C      1  0.5737110000000  0.4446490000000  0.4683290000000 1.0
C      1  0.4392300000000  0.4906940000000  0.5399340000000 1.0
C      1  0.4469820000000  0.5753720000000  0.5150750000000 1.0
C      1  0.5731100000000  0.5264720000000  0.5555680000000 1.0
C      1  0.4290630000000  0.5421960000000  0.4266270000000 1.0
C      1  0.4668740000000  0.5355890000000  0.4031790000000 1.0
C      1  0.4705460000000  0.5000680000000  0.4958240000000 1.0
C      1  0.5577000000000  0.5344470000000  0.4185080000000 1.0
C      1  0.5722720000000  0.4441730000000  0.5415860000000 1.0
C      1  0.5323590000000  0.4795950000000  0.5948830000000 1.0
C      1  0.5245370000000  0.4911920000000  0.5684580000000 1.0
C      1  0.4114500000000  0.5253110000000  0.5550510000000 1.0
C      1  0.5927370000000  0.5070460000000  0.4482220000000 1.0
C      1  0.4816390000000  0.4646740000000  0.4666190000000 1.0
C      1  0.4923770000000  0.5230870000000  0.4076210000000 1.0
C      1  0.5186950000000  0.4451600000000  0.5173120000000 1.0
C      1  0.3975770000000  0.4631450000000  0.5032720000000 1.0
C      1  0.5687120000000  0.4746630000000  0.5740650000000 1.0
C      1  0.5969390000000  0.4718390000000  0.5056500000000 1.0
C      1  0.4820620000000  0.5205840000000  0.4469680000000 1.0
C      1  0.5230940000000  0.4387150000000  0.5694180000000 1.0
C      1  0.5005740000000  0.4959870000000  0.4012220000000 1.0
C      1  0.4602470000000  0.4812430000000  0.4757380000000 1.0
C      1  0.5246530000000  0.4127390000000  0.5227410000000 1.0
C      1  0.6034340000000  0.5155480000000  0.4748180000000 1.0
C      1  0.4421870000000  0.4790290000000  0.5879520000000 1.0
C      1  0.5481470000000  0.5140210000000  0.4021230000000 1.0
C      1  0.4029480000000  0.5020970000000  0.4920420000000 1.0
C      1  0.4568220000000  0.5062050000000  0.4535990000000 1.0
C      1  0.5724380000000  0.4321990000000  0.5168640000000 1.0
C      1  0.4257640000000  0.4612060000000  0.5081910000000 1.0
C      1  0.4645210000000  0.5953970000000  0.5033800000000 1.0
C      1  0.4521530000000  0.5035960000000  0.6028400000000 1.0
C      1  0.4504910000000  0.4458210000000  0.4191950000000 1.0
C      1  0.5031770000000  0.4783360000000  0.5996450000000 1.0
C      1  0.4753600000000  0.4080330000000  0.5146590000000 1.0
C      1  0.4420580000000  0.4604240000000  0.4856440000000 1.0
C      1  0.5223530000000  0.5991590000000  0.4866010000000 1.0
C      1  0.5425200000000  0.4861900000000  0.4976920000000 1.0
C      1  0.5959800000000  0.5112610000000  0.5512850000000 1.0
C      1  0.5636410000000  0.5019700000000  0.4874490000000 1.0
C      1  0.5011740000000  0.4524790000000  0.5848560000000 1.0
C      1  0.5120480000000  0.4200300000000  0.5515950000000 1.0
C      1  0.5194100000000  0.3983950000000  0.4955870000000 1.0
C      1  0.5286630000000  0.4710260000000  0.4505730000000 1.0
C      1  0.5062740000000  0.5044230000000  0.4492730000000 1.0
C      1  0.5576760000000  0.5248220000000  0.5042310000000 1.0
C      1  0.5297430000000  0.4930460000000  0.4009720000000 1.0
C      1  0.4379920000000  0.5394610000000  0.5644630000000 1.0
C      1  0.5374550000000  0.5321820000000  0.5945820000000 1.0
C      1  0.4361370000000  0.4207720000000  0.5339770000000 1.0
C      1  0.5174830000000  0.5570780000000  0.5137650000000 1.0
C      1  0.5367600000000  0.5668000000000  0.5712880000000 1.0
C      1  0.5902510000000  0.5594150000000  0.5034530000000 1.0
C      1  0.4792320000000  0.4386890000000  0.4758330000000 1.0
C      1  0.4374260000000  0.5269210000000  0.4733420000000 1.0
C      1  0.3957050000000  0.4893510000000  0.5167850000000 1.0
C      1  0.4527650000000  0.4919700000000  0.5641880000000 1.0
C      1  0.5621280000000  0.5223050000000  0.5825210000000 1.0
C      1  0.5163540000000  0.5175770000000  0.5779890000000 1.0
C      1  0.5891930000000  0.4845650000000  0.5567520000000 1.0
C      1  0.5221970000000  0.4515470000000  0.4901020000000 1.0
C      1  0.4602580000000  0.4715980000000  0.4163910000000 1.0
C      1  0.3973350000000  0.4604990000000  0.4738300000000 1.0
C      1  0.5546460000000  0.5157040000000  0.5339640000000 1.0
C      1  0.4142880000000  0.4421720000000  0.4585700000000 1.0
C      1  0.4489630000000  0.5314330000000  0.5911420000000 1.0
C      1  0.5553340000000  0.5728610000000  0.5321230000000 1.0
C      1  0.5137330000000  0.5904270000000  0.5137300000000 1.0
C      1  0.5079760000000  0.5169300000000  0.5309580000000 1.0
C      1  0.5004720000000  0.3993640000000  0.4735690000000 1.0
C      1  0.5409230000000  0.4839770000000  0.4281740000000 1.0
C      1  0.4612390000000  0.4208800000000  0.4622190000000 1.0
C      1  0.6048840000000  0.5160470000000  0.5237140000000 1.0
C      1  0.4830750000000  0.5942750000000  0.5245940000000 1.0
C      1  0.5667880000000  0.5789380000000  0.5067550000000 1.0
C      1  0.5239040000000  0.5597880000000  0.4545150000000 1.0
C      1  0.5096520000000  0.5436210000000  0.4159740000000 1.0
C      1  0.5307490000000  0.5402110000000  0.4345360000000 1.0
C      1  0.5101140000000  0.4123360000000  0.4490390000000 1.0
C      1  0.5828060000000  0.4696680000000  0.5327720000000 1.0
C      1  0.4147380000000  0.4991510000000  0.4423190000000 1.0
C      1  0.5581520000000  0.4944740000000  0.5915120000000 1.0
C      1  0.4432140000000  0.4965060000000  0.4275990000000 1.0
C      1  0.4865560000000  0.4755990000000  0.5332870000000 1.0
C      1  0.4884900000000  0.4716080000000  0.4098860000000 1.0
C      1  0.5528200000000  0.4842280000000  0.5254630000000 1.0
C      1  0.5494710000000  0.5878480000000  0.4840520000000 1.0
C      1  0.5355480000000  0.4430370000000  0.4226290000000 1.0
C      1  0.5094200000000  0.5826810000000  0.4428650000000 1.0
C      1  0.4942880000000  0.5375100000000  0.4678610000000 1.0
C      1  0.5946640000000  0.5435330000000  0.4784940000000 1.0
C      1  0.4921730000000  0.4554680000000  0.5152050000000 1.0
C      1  0.5749660000000  0.5508180000000  0.4586090000000 1.0
C      1  0.4966720000000  0.5686630000000  0.4205280000000 1.0
C      1  0.5369130000000  0.4218350000000  0.4430910000000 1.0
C      1  0.4688050000000  0.5621150000000  0.4150760000000 1.0
C      1  0.4557840000000  0.5428710000000  0.4893670000000 1.0
C      1  0.5331120000000  0.5534070000000  0.5414880000000 1.0
C      1  0.5848620000000  0.4480150000000  0.4957820000000 1.0
C      1  0.5533210000000  0.4120830000000  0.5145710000000 1.0
C      1  0.4473630000000  0.4516760000000  0.5770710000000 1.0
C      1  0.4092590000000  0.5428210000000  0.5349090000000 1.0
C      1  0.4794530000000  0.5561870000000  0.4816550000000 1.0
C      1  0.5249320000000  0.5898150000000  0.5590960000000 1.0
C      1  0.4951980000000  0.5602520000000  0.5847600000000 1.0
C      1  0.4467410000000  0.5655640000000  0.4335550000000 1.0
C      1  0.5418790000000  0.4636850000000  0.4752610000000 1.0
C      1  0.4167220000000  0.5244610000000  0.4925890000000 1.0
C      1  0.5515990000000  0.4506520000000  0.5616070000000 1.0
C      1  0.5372790000000  0.5954650000000  0.5330550000000 1.0
C      1  0.5293700000000  0.5253480000000  0.5452250000000 1.0
C      1  0.4176240000000  0.5268430000000  0.4479320000000 1.0
C      1  0.4626580000000  0.4101550000000  0.5409220000000 1.0
C      1  0.4040560000000  0.4875230000000  0.4666690000000 1.0
C      1  0.5328130000000  0.5338550000000  0.4932330000000 1.0
C      1  0.4083380000000  0.5478340000000  0.5076830000000 1.0
C      1  0.4334390000000  0.4150470000000  0.5054350000000 1.0
C      1  0.4304690000000  0.4485840000000  0.4368680000000 1.0
C      1  0.5589780000000  0.4611390000000  0.4248500000000 1.0
C      1  0.4687700000000  0.4977800000000  0.5242210000000 1.0
C      1  0.4748720000000  0.5894750000000  0.4749790000000 1.0
C      1  0.5072160000000  0.4487500000000  0.4164220000000 1.0
C      1  0.5465840000000  0.4052620000000  0.4875060000000 1.0
C      1  0.4781930000000  0.4353720000000  0.5030240000000 1.0
C      1  0.5161130000000  0.5094430000000  0.5037870000000 1.0
C      1  0.4735930000000  0.5814770000000  0.5489010000000 1.0
C      1  0.4976350000000  0.5787930000000  0.5634690000000 1.0
C      1  0.5946250000000  0.5416840000000  0.5246080000000 1.0
C      1  0.4749360000000  0.4422710000000  0.5766810000000 1.0
C      1  0.5227660000000  0.5573860000000  0.5946660000000 1.0
C      1  0.5102310000000  0.4773120000000  0.5484750000000 1.0
C      1  0.4232390000000  0.5729160000000  0.4974010000000 1.0
C      1  0.4539200000000  0.5645040000000  0.5647360000000 1.0
C      1  0.4499600000000  0.5848140000000  0.4555170000000 1.0
C      1  0.5798700000000  0.5318760000000  0.4371570000000 1.0
C      1  0.4308020000000  0.5752900000000  0.4707920000000 1.0
C      1  0.4926770000000  0.5152230000000  0.4870380000000 1.0
C      1  0.4751070000000  0.5080490000000  0.5660000000000 1.0
C      1  0.5031530000000  0.4778790000000  0.4571000000000 1.0
C      1  0.5019310000000  0.5985120000000  0.4659550000000 1.0
C      1  0.4713830000000  0.3963390000000  0.4750550000000 1.0
C      1  0.5706760000000  0.4930230000000  0.4603650000000 1.0
C      1  0.4938880000000  0.4273280000000  0.4301070000000 1.0
C      1  0.4805340000000  0.5207220000000  0.5392210000000 1.0
END
