TITL C-2441162-9305-1304 0.0440197465859437 125000 -21027.7539119616 0 0 151 (C1) n - 1
REM
REM in /home/bkarasulu/work/CARBON/AIRSS/Generating-Clusters/ReaxFF-fromJPCA2015/Units_Real/with-SteepDescent/Higher-Symm
REM
REM
REM
REM
REM
REM ./C.cell (1df0a924f5614ab8850e4351716899ee)
REM
REM compiler GCC version 9.2.1 20190827 (Red Hat 9.2.1-1)
REM options -cpp -mtune=generic -march=x86-64 -g -O0 -fpre-include=/usr/include/finclude/math-vector-fortran.h
REM seed 1046267820 -2100973421 -750737908 -2136894612 1935055257 1833871073 -1725372910 1694185503 -1767267173 -1459539296 -146158324 118024776 -3608401 1770819985 1983149315 -372955282 1246076327 1508569935 -1453278298 -205217498 -631854248 614021487 2116894870 -1225543375 -484061854 801716717 -1944738365 -1039041669 -1483711059 147472521 390670402 -430336040 1186371575
REM
CELL 1.54180   50.00000   50.00000   50.00000   90.00000   90.00000   90.00000
LATT -1
SFAC C  
C      1  0.5305850000000  0.4328890000000  0.4227170000000 1.0
C      1  0.5250180000000  0.5712810000000  0.5655510000000 1.0
C      1  0.5254350000000  0.5705980000000  0.4263060000000 1.0
C      1  0.5228810000000  0.4270480000000  0.5760210000000 1.0
C      1  0.4641820000000  0.4542880000000  0.4309930000000 1.0
C      1  0.4744220000000  0.5500740000000  0.5834090000000 1.0
C      1  0.4597450000000  0.5512230000000  0.4263500000000 1.0
C      1  0.4655060000000  0.4541440000000  0.5658070000000 1.0
C      1  0.4333990000000  0.4873120000000  0.4326970000000 1.0
C      1  0.4397250000000  0.5175870000000  0.5619250000000 1.0
C      1  0.4335690000000  0.5153220000000  0.4318230000000 1.0
C      1  0.4359590000000  0.4857780000000  0.5651520000000 1.0
C      1  0.5411860000000  0.4753640000000  0.5241210000000 1.0
C      1  0.5162150000000  0.5236780000000  0.4914330000000 1.0
C      1  0.5057930000000  0.5029570000000  0.5253520000000 1.0
C      1  0.5183530000000  0.4699270000000  0.4835420000000 1.0
C      1  0.4386370000000  0.4362840000000  0.5551290000000 1.0
C      1  0.4414910000000  0.5661550000000  0.4432770000000 1.0
C      1  0.4421880000000  0.5648090000000  0.5492500000000 1.0
C      1  0.4428420000000  0.4405320000000  0.4484500000000 1.0
C      1  0.5873030000000  0.4656000000000  0.5204170000000 1.0
C      1  0.5941230000000  0.5338630000000  0.4803930000000 1.0
C      1  0.5900700000000  0.5307530000000  0.5223130000000 1.0
C      1  0.5879390000000  0.4663040000000  0.4784450000000 1.0
C      1  0.4249510000000  0.5533070000000  0.5310590000000 1.0
C      1  0.4327340000000  0.4536350000000  0.4730520000000 1.0
C      1  0.4275660000000  0.4472790000000  0.5307680000000 1.0
C      1  0.4278610000000  0.5526590000000  0.4647450000000 1.0
C      1  0.4808670000000  0.4631730000000  0.5402270000000 1.0
C      1  0.4739600000000  0.5392750000000  0.4719300000000 1.0
C      1  0.4693330000000  0.5408910000000  0.5226070000000 1.0
C      1  0.4812970000000  0.4658640000000  0.4554420000000 1.0
C      1  0.4791490000000  0.5663990000000  0.4732650000000 1.0
C      1  0.4863000000000  0.4367860000000  0.5288530000000 1.0
C      1  0.4812300000000  0.4395770000000  0.4720420000000 1.0
C      1  0.4779810000000  0.5664890000000  0.5245470000000 1.0
C      1  0.5048760000000  0.5484800000000  0.5824580000000 1.0
C      1  0.5104940000000  0.4524270000000  0.4133860000000 1.0
C      1  0.5120310000000  0.4545610000000  0.5813530000000 1.0
C      1  0.5132800000000  0.5458480000000  0.4174120000000 1.0
C      1  0.5385490000000  0.4640540000000  0.5895010000000 1.0
C      1  0.5399970000000  0.5344890000000  0.4094950000000 1.0
C      1  0.5292020000000  0.5388090000000  0.5978500000000 1.0
C      1  0.5312710000000  0.4675360000000  0.3991300000000 1.0
C      1  0.5261890000000  0.5580690000000  0.5164320000000 1.0
C      1  0.5311150000000  0.4222010000000  0.4501930000000 1.0
C      1  0.5152580000000  0.4353140000000  0.5218650000000 1.0
C      1  0.5218800000000  0.5642580000000  0.4717460000000 1.0
C      1  0.5757750000000  0.5229940000000  0.5471880000000 1.0
C      1  0.5761150000000  0.4775150000000  0.4535800000000 1.0
C      1  0.5762440000000  0.4711000000000  0.5475240000000 1.0
C      1  0.5805630000000  0.5285620000000  0.4547690000000 1.0
C      1  0.4835990000000  0.4151360000000  0.4568550000000 1.0
C      1  0.4832950000000  0.5836160000000  0.5475610000000 1.0
C      1  0.4844680000000  0.5838830000000  0.4515660000000 1.0
C      1  0.4844770000000  0.4143760000000  0.5501080000000 1.0
C      1  0.5512970000000  0.4530330000000  0.4161730000000 1.0
C      1  0.5463490000000  0.5553970000000  0.5802840000000 1.0
C      1  0.5520590000000  0.5595920000000  0.4213310000000 1.0
C      1  0.5505750000000  0.4393530000000  0.5786550000000 1.0
C      1  0.5082900000000  0.5271580000000  0.4413500000000 1.0
C      1  0.5072500000000  0.4700820000000  0.5564140000000 1.0
C      1  0.5059860000000  0.4692580000000  0.4381370000000 1.0
C      1  0.5091190000000  0.5264900000000  0.5594930000000 1.0
C      1  0.5300730000000  0.5470100000000  0.5426980000000 1.0
C      1  0.5267920000000  0.4634270000000  0.4561740000000 1.0
C      1  0.5309660000000  0.4549560000000  0.5396410000000 1.0
C      1  0.5326040000000  0.5436310000000  0.4563070000000 1.0
C      1  0.4631370000000  0.5721110000000  0.5667200000000 1.0
C      1  0.4626020000000  0.4226230000000  0.4383510000000 1.0
C      1  0.4617170000000  0.4230960000000  0.5655410000000 1.0
C      1  0.4656310000000  0.5775280000000  0.4326600000000 1.0
C      1  0.5174580000000  0.6041140000000  0.5214180000000 1.0
C      1  0.5206990000000  0.3937560000000  0.4860930000000 1.0
C      1  0.5206690000000  0.4039220000000  0.5264830000000 1.0
C      1  0.5185200000000  0.6052460000000  0.4792340000000 1.0
C      1  0.4606180000000  0.5255350000000  0.5843600000000 1.0
C      1  0.4547080000000  0.4780710000000  0.4172200000000 1.0
C      1  0.4568890000000  0.4772810000000  0.5823730000000 1.0
C      1  0.4552440000000  0.5250280000000  0.4165330000000 1.0
C      1  0.5137560000000  0.5874250000000  0.4529650000000 1.0
C      1  0.5119930000000  0.4086310000000  0.5562800000000 1.0
C      1  0.5115370000000  0.4037270000000  0.4594860000000 1.0
C      1  0.5115030000000  0.5915670000000  0.5476060000000 1.0
C      1  0.5528960000000  0.4618370000000  0.4443690000000 1.0
C      1  0.5574590000000  0.5450280000000  0.5553180000000 1.0
C      1  0.5600890000000  0.5490080000000  0.4479990000000 1.0
C      1  0.5573340000000  0.4493860000000  0.5525450000000 1.0
C      1  0.4208160000000  0.5269090000000  0.5419860000000 1.0
C      1  0.4218620000000  0.4765910000000  0.4567910000000 1.0
C      1  0.4250830000000  0.4742760000000  0.5418480000000 1.0
C      1  0.4229400000000  0.5268960000000  0.4552310000000 1.0
C      1  0.4301800000000  0.5595510000000  0.4988500000000 1.0
C      1  0.4305560000000  0.4365130000000  0.5024680000000 1.0
C      1  0.5494560000000  0.5084240000000  0.4204160000000 1.0
C      1  0.5473270000000  0.4922240000000  0.5811720000000 1.0
C      1  0.4684250000000  0.6048530000000  0.4984850000000 1.0
C      1  0.4725790000000  0.3999650000000  0.4994190000000 1.0
C      1  0.5018310000000  0.5024090000000  0.6006070000000 1.0
C      1  0.4984310000000  0.4999920000000  0.4016410000000 1.0
C      1  0.4884650000000  0.5124940000000  0.5446750000000 1.0
C      1  0.4823230000000  0.5184700000000  0.4547960000000 1.0
C      1  0.4704600000000  0.5010620000000  0.4074190000000 1.0
C      1  0.4732330000000  0.5006760000000  0.5925810000000 1.0
C      1  0.4985620000000  0.6089960000000  0.4992780000000 1.0
C      1  0.5002010000000  0.3921600000000  0.5060530000000 1.0
C      1  0.5617330000000  0.4226610000000  0.4960090000000 1.0
C      1  0.5676190000000  0.5718750000000  0.5012990000000 1.0
C      1  0.5258220000000  0.4964400000000  0.3983790000000 1.0
C      1  0.5295300000000  0.5099630000000  0.6011720000000 1.0
C      1  0.4139440000000  0.5020530000000  0.5270800000000 1.0
C      1  0.4154100000000  0.5020380000000  0.4710390000000 1.0
C      1  0.5189500000000  0.4424850000000  0.4937810000000 1.0
C      1  0.5086670000000  0.5508000000000  0.4948710000000 1.0
C      1  0.5439900000000  0.5738930000000  0.5008870000000 1.0
C      1  0.5409890000000  0.4327830000000  0.4777860000000 1.0
C      1  0.5428000000000  0.4017440000000  0.5049660000000 1.0
C      1  0.5388190000000  0.6003420000000  0.5002120000000 1.0
C      1  0.4659460000000  0.5276650000000  0.4971730000000 1.0
C      1  0.4670960000000  0.4754460000000  0.5134600000000 1.0
C      1  0.5229410000000  0.4988580000000  0.5614730000000 1.0
C      1  0.5239660000000  0.4997250000000  0.4394640000000 1.0
C      1  0.4385700000000  0.5309610000000  0.4968030000000 1.0
C      1  0.4437710000000  0.4748020000000  0.4975200000000 1.0
C      1  0.4448190000000  0.5856580000000  0.4984730000000 1.0
C      1  0.4459220000000  0.4122010000000  0.5023590000000 1.0
C      1  0.5365830000000  0.5035980000000  0.4633890000000 1.0
C      1  0.5323760000000  0.5000930000000  0.5340720000000 1.0
C      1  0.5432910000000  0.4758420000000  0.4978300000000 1.0
C      1  0.5441790000000  0.5195550000000  0.4851150000000 1.0
C      1  0.3865600000000  0.4969950000000  0.5226330000000 1.0
C      1  0.3912720000000  0.4935590000000  0.4750460000000 1.0
C      1  0.5870270000000  0.5521290000000  0.5024050000000 1.0
C      1  0.5810830000000  0.4465590000000  0.4994400000000 1.0
C      1  0.5722890000000  0.5040720000000  0.4410950000000 1.0
C      1  0.5704780000000  0.4970870000000  0.5598900000000 1.0
C      1  0.4615320000000  0.5205430000000  0.5410910000000 1.0
C      1  0.4758020000000  0.4927490000000  0.4653200000000 1.0
C      1  0.4724050000000  0.4303520000000  0.4991560000000 1.0
C      1  0.4712700000000  0.5784010000000  0.4981310000000 1.0
C      1  0.5590720000000  0.4974110000000  0.4957440000000 1.0
C      1  0.6552010000000  0.4967400000000  0.5011330000000 1.0
C      1  0.4759560000000  0.4977830000000  0.4934910000000 1.0
C      1  0.4290420000000  0.5031030000000  0.4993050000000 1.0
C      1  0.3679720000000  0.5100900000000  0.5040790000000 1.0
C      1  0.3409430000000  0.5046790000000  0.5016260000000 1.0
C      1  0.3801500000000  0.4844360000000  0.4987660000000 1.0
C      1  0.6032140000000  0.5144920000000  0.5010110000000 1.0
C      1  0.6327960000000  0.5047970000000  0.5011550000000 1.0
C      1  0.5864620000000  0.4883700000000  0.4994240000000 1.0
C      1  0.5032100000000  0.4997830000000  0.4982750000000 1.0
END
