TITL C-2441161-5029-663 0.0109055771978942 125000 -6484.59718384382 0 0 48 (C1) n - 1
REM
REM in /home/bkarasulu/work/CARBON/AIRSS/Generating-Clusters/ReaxFF-fromJPCA2015/Units_Real/with-SteepDescent/Higher-Symm
REM
REM
REM
REM
REM
REM ./C.cell (1df0a924f5614ab8850e4351716899ee)
REM
REM compiler GCC version 9.2.1 20190827 (Red Hat 9.2.1-1)
REM options -cpp -mtune=generic -march=x86-64 -g -O0 -fpre-include=/usr/include/finclude/math-vector-fortran.h
REM seed -918450583 624204416 -118478771 -760413116 -107059414 336148167 -820664541 -948682457 1256486543 1564459996 -817762136 454807411 1142861702 -1921682058 -1708889791 1712558879 -385089289 1366885615 -1478755427 1736083485 -6212815 -759158408 4035330 775099694 -379597996 -1921251123 1676705973 1628891389 -658335929 -1930549221 679077230 -54868038 -1699375730
REM
CELL 1.54180   50.00000   50.00000   50.00000   90.00000   90.00000   90.00000
LATT -1
SFAC C  
C      1  0.5448380000000  0.5170550000000  0.5202850000000 1.0
C      1  0.4658180000000  0.5571010000000  0.5211860000000 1.0
C      1  0.4915480000000  0.4499620000000  0.5145460000000 1.0
C      1  0.4866740000000  0.5492310000000  0.5397460000000 1.0
C      1  0.5656600000000  0.5026400000000  0.4796520000000 1.0
C      1  0.5320500000000  0.4954500000000  0.4351380000000 1.0
C      1  0.5000980000000  0.5517400000000  0.4814450000000 1.0
C      1  0.4443740000000  0.5122880000000  0.5399530000000 1.0
C      1  0.4852620000000  0.4827150000000  0.5433340000000 1.0
C      1  0.4719960000000  0.5573050000000  0.4919440000000 1.0
C      1  0.5415550000000  0.4673360000000  0.5092240000000 1.0
C      1  0.5283740000000  0.5179410000000  0.5435870000000 1.0
C      1  0.5119980000000  0.4412710000000  0.4763310000000 1.0
C      1  0.4651030000000  0.5188850000000  0.4569750000000 1.0
C      1  0.5342260000000  0.5258630000000  0.4633950000000 1.0
C      1  0.5059390000000  0.4691800000000  0.4715620000000 1.0
C      1  0.5497760000000  0.5454940000000  0.5060240000000 1.0
C      1  0.4561610000000  0.4925390000000  0.4608560000000 1.0
C      1  0.5048980000000  0.5275970000000  0.4983310000000 1.0
C      1  0.5103400000000  0.4711270000000  0.5526710000000 1.0
C      1  0.4904890000000  0.5098780000000  0.4447730000000 1.0
C      1  0.5169290000000  0.5207130000000  0.4394010000000 1.0
C      1  0.4558870000000  0.4810530000000  0.5052700000000 1.0
C      1  0.4904870000000  0.4245280000000  0.5114150000000 1.0
C      1  0.4874150000000  0.5439610000000  0.5715470000000 1.0
C      1  0.4663250000000  0.4995080000000  0.5555370000000 1.0
C      1  0.5064130000000  0.5320800000000  0.5282420000000 1.0
C      1  0.4566840000000  0.5351600000000  0.4809760000000 1.0
C      1  0.5160010000000  0.4366630000000  0.5046740000000 1.0
C      1  0.5677880000000  0.4785510000000  0.4970650000000 1.0
C      1  0.4635990000000  0.4667520000000  0.4585330000000 1.0
C      1  0.4370840000000  0.5262650000000  0.5009510000000 1.0
C      1  0.4550540000000  0.4587390000000  0.4856670000000 1.0
C      1  0.5415490000000  0.4976160000000  0.4632800000000 1.0
C      1  0.5171630000000  0.4704670000000  0.4324200000000 1.0
C      1  0.4432010000000  0.5390250000000  0.5268630000000 1.0
C      1  0.5034370000000  0.4971180000000  0.4959950000000 1.0
C      1  0.4672230000000  0.4383510000000  0.5030020000000 1.0
C      1  0.4824530000000  0.4883930000000  0.5154830000000 1.0
C      1  0.4356810000000  0.4995740000000  0.5149140000000 1.0
C      1  0.5575420000000  0.5320150000000  0.4794650000000 1.0
C      1  0.5351450000000  0.4658670000000  0.5384700000000 1.0
C      1  0.5248870000000  0.4536750000000  0.4543450000000 1.0
C      1  0.5309820000000  0.4952090000000  0.5055030000000 1.0
C      1  0.4917300000000  0.4788430000000  0.4467420000000 1.0
C      1  0.5446380000000  0.5707810000000  0.5127740000000 1.0
C      1  0.5316430000000  0.4903720000000  0.5542630000000 1.0
C      1  0.4858820000000  0.5161190000000  0.5662440000000 1.0
END
