TITL C-2441165-58-624 0.0476808000092946 125000 -15095.8945172973 0 0 112 (C1) n - 1
REM
REM in /home/bkarasulu/work/CARBON/AIRSS/Generating-Clusters/ReaxFF-fromJPCA2015/Units_Real/with-SteepDescent/Higher-Symm
REM
REM
REM
REM
REM
REM ./C.cell (1df0a924f5614ab8850e4351716899ee)
REM
REM compiler GCC version 9.2.1 20190827 (Red Hat 9.2.1-1)
REM options -cpp -mtune=generic -march=x86-64 -g -O0 -fpre-include=/usr/include/finclude/math-vector-fortran.h
REM seed -673885970 374785550 977644481 -818132205 1203487339 -1624945786 2079640140 -457120111 36081430 2029572053 1816813696 -2058550785 1079306803 1963864193 1376137829 -1382736293 480942225 -475527201 -846212678 -2011625725 1005550612 1889516337 1851349720 1453565595 -1767556460 299589810 -2070242352 -1291200195 583050473 -1719883793 794589461 -192798750 -1397097603
REM
CELL 1.54180   50.00000   50.00000   50.00000   90.00000   90.00000   90.00000
LATT -1
SFAC C  
C      1  0.5551530000000  0.4466240000000  0.5112920000000 1.0
C      1  0.5121560000000  0.4423980000000  0.4426020000000 1.0
C      1  0.4454210000000  0.4480490000000  0.4883840000000 1.0
C      1  0.4870610000000  0.4479110000000  0.5571860000000 1.0
C      1  0.5565680000000  0.5470400000000  0.4853510000000 1.0
C      1  0.5130260000000  0.5534560000000  0.5571160000000 1.0
C      1  0.4462760000000  0.5520410000000  0.5104280000000 1.0
C      1  0.4857910000000  0.5530230000000  0.4444080000000 1.0
C      1  0.4165250000000  0.5095500000000  0.4695630000000 1.0
C      1  0.4722420000000  0.5055290000000  0.5842800000000 1.0
C      1  0.5839240000000  0.5080830000000  0.5340830000000 1.0
C      1  0.5321330000000  0.5092470000000  0.4182080000000 1.0
C      1  0.4150190000000  0.4917780000000  0.5300920000000 1.0
C      1  0.4716260000000  0.4917360000000  0.4181940000000 1.0
C      1  0.5915240000000  0.4910440000000  0.4706020000000 1.0
C      1  0.5314800000000  0.4922260000000  0.5837520000000 1.0
C      1  0.5135000000000  0.4768230000000  0.4816280000000 1.0
C      1  0.4848880000000  0.4754960000000  0.4803820000000 1.0
C      1  0.4856500000000  0.4734290000000  0.5139820000000 1.0
C      1  0.5160320000000  0.4775220000000  0.5166260000000 1.0
C      1  0.5148670000000  0.5248620000000  0.5134490000000 1.0
C      1  0.4857200000000  0.5234310000000  0.5201380000000 1.0
C      1  0.4838510000000  0.5247990000000  0.4886310000000 1.0
C      1  0.5128100000000  0.5228250000000  0.4806580000000 1.0
C      1  0.4447030000000  0.4413920000000  0.5364790000000 1.0
C      1  0.5359680000000  0.4445870000000  0.5506350000000 1.0
C      1  0.5508250000000  0.4482590000000  0.4637730000000 1.0
C      1  0.4631870000000  0.4415900000000  0.4478800000000 1.0
C      1  0.4498220000000  0.5567720000000  0.4641690000000 1.0
C      1  0.5342960000000  0.5559780000000  0.4462930000000 1.0
C      1  0.5494400000000  0.5555010000000  0.5365060000000 1.0
C      1  0.4632890000000  0.5551140000000  0.5512780000000 1.0
C      1  0.5583130000000  0.5151130000000  0.4308650000000 1.0
C      1  0.4339920000000  0.5140100000000  0.4452030000000 1.0
C      1  0.4517540000000  0.5065370000000  0.5623770000000 1.0
C      1  0.5662280000000  0.5134430000000  0.5572660000000 1.0
C      1  0.5506540000000  0.4880730000000  0.5589960000000 1.0
C      1  0.4314910000000  0.4861940000000  0.5551770000000 1.0
C      1  0.4478010000000  0.4879850000000  0.4402410000000 1.0
C      1  0.5696390000000  0.4930640000000  0.4489940000000 1.0
C      1  0.5293160000000  0.5476870000000  0.4749990000000 1.0
C      1  0.4780250000000  0.5509030000000  0.4725480000000 1.0
C      1  0.4706200000000  0.5483850000000  0.5236210000000 1.0
C      1  0.5212090000000  0.5504380000000  0.5278950000000 1.0
C      1  0.5291070000000  0.4511380000000  0.5221760000000 1.0
C      1  0.4793050000000  0.4476040000000  0.5294600000000 1.0
C      1  0.4716320000000  0.4498770000000  0.4776020000000 1.0
C      1  0.5224160000000  0.4517800000000  0.4702800000000 1.0
C      1  0.5436180000000  0.4178110000000  0.4703480000000 1.0
C      1  0.4715150000000  0.4150860000000  0.4574760000000 1.0
C      1  0.4556200000000  0.4148960000000  0.5298810000000 1.0
C      1  0.5297790000000  0.4167170000000  0.5428850000000 1.0
C      1  0.5445040000000  0.5827630000000  0.5299450000000 1.0
C      1  0.4703120000000  0.5828770000000  0.5434370000000 1.0
C      1  0.4553420000000  0.5836860000000  0.4710390000000 1.0
C      1  0.5283260000000  0.5859490000000  0.4586970000000 1.0
C      1  0.4278230000000  0.5379310000000  0.5447950000000 1.0
C      1  0.5481660000000  0.5334520000000  0.5698120000000 1.0
C      1  0.5612390000000  0.5423750000000  0.4397430000000 1.0
C      1  0.4526990000000  0.5323580000000  0.4305310000000 1.0
C      1  0.4259260000000  0.4670820000000  0.4540450000000 1.0
C      1  0.5471130000000  0.4640880000000  0.4346140000000 1.0
C      1  0.5716630000000  0.4645040000000  0.5452980000000 1.0
C      1  0.4417310000000  0.4598370000000  0.5606930000000 1.0
C      1  0.4135020000000  0.4812380000000  0.4768270000000 1.0
C      1  0.4813670000000  0.4788040000000  0.5898850000000 1.0
C      1  0.5847140000000  0.4806700000000  0.5241370000000 1.0
C      1  0.5233040000000  0.4852260000000  0.4319580000000 1.0
C      1  0.4153040000000  0.5189960000000  0.5221930000000 1.0
C      1  0.4778430000000  0.5188190000000  0.4165580000000 1.0
C      1  0.5761710000000  0.5119510000000  0.4835090000000 1.0
C      1  0.5239840000000  0.5194020000000  0.5831180000000 1.0
C      1  0.5334080000000  0.4419290000000  0.4243800000000 1.0
C      1  0.4279200000000  0.4430540000000  0.4672470000000 1.0
C      1  0.4669920000000  0.4580130000000  0.5750160000000 1.0
C      1  0.5736640000000  0.4370440000000  0.5330190000000 1.0
C      1  0.5347170000000  0.5612830000000  0.5753830000000 1.0
C      1  0.4258550000000  0.5636650000000  0.5282420000000 1.0
C      1  0.4642980000000  0.5601780000000  0.4248160000000 1.0
C      1  0.5765680000000  0.5518730000000  0.4646350000000 1.0
C      1  0.4955520000000  0.4763060000000  0.4212450000000 1.0
C      1  0.4137490000000  0.4755900000000  0.5060630000000 1.0
C      1  0.5102770000000  0.4731700000000  0.5872490000000 1.0
C      1  0.5862320000000  0.4745990000000  0.4945550000000 1.0
C      1  0.4942620000000  0.5247210000000  0.5831600000000 1.0
C      1  0.4132880000000  0.5249020000000  0.4936560000000 1.0
C      1  0.5071610000000  0.5249940000000  0.4149300000000 1.0
C      1  0.5834710000000  0.5226610000000  0.5091310000000 1.0
C      1  0.5235400000000  0.4988760000000  0.4661500000000 1.0
C      1  0.4587680000000  0.5139160000000  0.4812540000000 1.0
C      1  0.4674200000000  0.5050330000000  0.5373700000000 1.0
C      1  0.5402420000000  0.5135250000000  0.5181270000000 1.0
C      1  0.5323450000000  0.4937610000000  0.5348190000000 1.0
C      1  0.4600530000000  0.4865830000000  0.5178090000000 1.0
C      1  0.4660980000000  0.4937450000000  0.4641320000000 1.0
C      1  0.5520490000000  0.5021670000000  0.4700800000000 1.0
C      1  0.5184170000000  0.4227730000000  0.4860390000000 1.0
C      1  0.4873020000000  0.4221770000000  0.4833090000000 1.0
C      1  0.4835770000000  0.4226930000000  0.5143540000000 1.0
C      1  0.5138610000000  0.4221670000000  0.5168280000000 1.0
C      1  0.5167640000000  0.5776120000000  0.5138500000000 1.0
C      1  0.4867420000000  0.5783680000000  0.5173910000000 1.0
C      1  0.4829760000000  0.5781570000000  0.4874420000000 1.0
C      1  0.5139930000000  0.5770130000000  0.4826730000000 1.0
C      1  0.4867010000000  0.4512260000000  0.4317310000000 1.0
C      1  0.4388750000000  0.4636820000000  0.5112550000000 1.0
C      1  0.5130770000000  0.4527260000000  0.5668830000000 1.0
C      1  0.5649420000000  0.4581700000000  0.4876400000000 1.0
C      1  0.4867940000000  0.5460000000000  0.5662590000000 1.0
C      1  0.4398000000000  0.5374440000000  0.4866320000000 1.0
C      1  0.5104950000000  0.5446670000000  0.4344320000000 1.0
C      1  0.5599160000000  0.5366740000000  0.5136440000000 1.0
END
