TITL C-2441158-471-1330 0.0271165299738619 125000 -7951.28104059184 0 0 61 (C1) n - 1
REM
REM in /home/bkarasulu/work/CARBON/AIRSS/Generating-Clusters/ReaxFF-fromJPCA2015/Units_Real/with-SteepDescent/Higher-Symm
REM
REM
REM
REM
REM
REM ./C.cell (1df0a924f5614ab8850e4351716899ee)
REM
REM compiler GCC version 9.2.1 20190827 (Red Hat 9.2.1-1)
REM options -cpp -mtune=generic -march=x86-64 -g -O0 -fpre-include=/usr/include/finclude/math-vector-fortran.h
REM seed -493756663 701867864 1175958961 115040267 1375466924 1198810058 -1057170697 -721226671 1043260894 -660658726 695210434 152939086 -1078144054 -1852972896 1173790024 2061052210 1096036338 -1197488810 138057424 -915079836 952409035 1810876227 -224220794 -1291378630 -1611583252 1008918033 -1283308960 -490411215 284639114 -1773485033 -1765194892 1142657379 -1985816959
REM
CELL 1.54180   50.00000   50.00000   50.00000   90.00000   90.00000   90.00000
LATT -1
SFAC C  
C      1  0.5359600000000  0.5102660000000  0.5509980000000 1.0
C      1  0.5557310000000  0.5123460000000  0.4803300000000 1.0
C      1  0.4902780000000  0.5208090000000  0.4475860000000 1.0
C      1  0.4368060000000  0.5074600000000  0.4791730000000 1.0
C      1  0.4636180000000  0.5113330000000  0.5512720000000 1.0
C      1  0.5152730000000  0.5286900000000  0.4362450000000 1.0
C      1  0.4432560000000  0.5290320000000  0.4629320000000 1.0
C      1  0.4452370000000  0.5321130000000  0.5451660000000 1.0
C      1  0.5257530000000  0.5328680000000  0.5649360000000 1.0
C      1  0.5681200000000  0.5335130000000  0.4965720000000 1.0
C      1  0.4438960000000  0.4842900000000  0.5211060000000 1.0
C      1  0.4989020000000  0.4850210000000  0.5656520000000 1.0
C      1  0.5566160000000  0.4859810000000  0.5182200000000 1.0
C      1  0.5313510000000  0.4857640000000  0.4496140000000 1.0
C      1  0.4588440000000  0.4834800000000  0.4443320000000 1.0
C      1  0.5287710000000  0.5075050000000  0.4407630000000 1.0
C      1  0.4615200000000  0.5125680000000  0.4455450000000 1.0
C      1  0.4423970000000  0.5090730000000  0.5317610000000 1.0
C      1  0.5106980000000  0.5095580000000  0.5630210000000 1.0
C      1  0.5683050000000  0.5067030000000  0.5052070000000 1.0
C      1  0.5505170000000  0.4851320000000  0.5462790000000 1.0
C      1  0.5539060000000  0.4859460000000  0.4656440000000 1.0
C      1  0.4793200000000  0.4735690000000  0.4249640000000 1.0
C      1  0.4309410000000  0.4850240000000  0.4949380000000 1.0
C      1  0.4707660000000  0.4848810000000  0.5618670000000 1.0
C      1  0.4736300000000  0.4597780000000  0.5472900000000 1.0
C      1  0.5362680000000  0.4595320000000  0.5434990000000 1.0
C      1  0.5467470000000  0.4616650000000  0.4815180000000 1.0
C      1  0.4941860000000  0.4553300000000  0.4442010000000 1.0
C      1  0.4434210000000  0.4575920000000  0.4898260000000 1.0
C      1  0.4654060000000  0.4453500000000  0.5041620000000 1.0
C      1  0.4981450000000  0.4471570000000  0.5378010000000 1.0
C      1  0.5261640000000  0.4472200000000  0.5190100000000 1.0
C      1  0.5221450000000  0.4472820000000  0.4778340000000 1.0
C      1  0.4790420000000  0.4422480000000  0.4654070000000 1.0
C      1  0.4705060000000  0.4703520000000  0.5191420000000 1.0
C      1  0.5103080000000  0.4732460000000  0.5434520000000 1.0
C      1  0.5362240000000  0.4717050000000  0.5056990000000 1.0
C      1  0.5108220000000  0.4693870000000  0.4635630000000 1.0
C      1  0.4599300000000  0.4632810000000  0.4672200000000 1.0
C      1  0.5330630000000  0.5500290000000  0.5288850000000 1.0
C      1  0.5306260000000  0.5410450000000  0.4802220000000 1.0
C      1  0.4902930000000  0.5458600000000  0.4634370000000 1.0
C      1  0.4560050000000  0.5523470000000  0.4985050000000 1.0
C      1  0.4833920000000  0.5458880000000  0.5413180000000 1.0
C      1  0.5183520000000  0.5503400000000  0.4544790000000 1.0
C      1  0.4609960000000  0.5523670000000  0.4719970000000 1.0
C      1  0.4588870000000  0.5532270000000  0.5274580000000 1.0
C      1  0.5116320000000  0.5526690000000  0.5470690000000 1.0
C      1  0.5460710000000  0.5520870000000  0.5043820000000 1.0
C      1  0.4947520000000  0.5629950000000  0.5063370000000 1.0
C      1  0.4986920000000  0.3817010000000  0.5002630000000 1.0
C      1  0.4966360000000  0.5884390000000  0.5034970000000 1.0
C      1  0.4937390000000  0.4342350000000  0.4914380000000 1.0
C      1  0.5010430000000  0.5062400000000  0.5015400000000 1.0
C      1  0.4984780000000  0.6141580000000  0.5007040000000 1.0
C      1  0.4994850000000  0.3571070000000  0.5021560000000 1.0
C      1  0.4965600000000  0.4065400000000  0.4962710000000 1.0
C      1  0.4997600000000  0.6385400000000  0.4991160000000 1.0
C      1  0.5000800000000  0.4841290000000  0.5077040000000 1.0
C      1  0.5027120000000  0.5366900000000  0.4931300000000 1.0
END
