TITL C-2441161-5029-1025 -7.46261458923518e-08 125000 -5184.36900650003 0 0 42 (Oh) n - 1
REM
REM in /home/bkarasulu/work/CARBON/AIRSS/Generating-Clusters/ReaxFF-fromJPCA2015/Units_Real/with-SteepDescent/Higher-Symm
REM
REM
REM
REM
REM
REM ./C.cell (1df0a924f5614ab8850e4351716899ee)
REM
REM compiler GCC version 9.2.1 20190827 (Red Hat 9.2.1-1)
REM options -cpp -mtune=generic -march=x86-64 -g -O0 -fpre-include=/usr/include/finclude/math-vector-fortran.h
REM seed 1980848199 -610238341 -627869182 -541239292 -1454478918 -1023753306 -655051470 -1578614771 -724306353 1492770063 1114309228 1985053456 -1514386011 -997411159 -847626242 1550384488 817483990 1232447084 -1248097593 1022655493 -1404307543 -2081830982 -757555220 -194046371 930897573 1223265236 742201722 -1589844018 619999891 -1120610782 1517682022 1133464560 -645694633
REM
CELL 1.54180   50.00000   50.00000   50.00000   90.00000   90.00000   90.00000
LATT -1
SFAC C  
C      1  0.5196730000000  0.5502890000000  0.4801600000000 1.0
C      1  0.5504610000000  0.4792250000000  0.5204360000000 1.0
C      1  0.4793970000000  0.5195010000000  0.5512240000000 1.0
C      1  0.4793970000000  0.5502890000000  0.5204360000000 1.0
C      1  0.4793970000000  0.4484370000000  0.4801600000000 1.0
C      1  0.5196730000000  0.4484370000000  0.5204360000000 1.0
C      1  0.4486090000000  0.4792250000000  0.4801600000000 1.0
C      1  0.4486090000000  0.5195010000000  0.5204360000000 1.0
C      1  0.5504610000000  0.5195010000000  0.4801600000000 1.0
C      1  0.5196730000000  0.5195010000000  0.4493720000000 1.0
C      1  0.5196730000000  0.4792250000000  0.5512240000000 1.0
C      1  0.4793970000000  0.4792250000000  0.4493720000000 1.0
C      1  0.5196730000000  0.4484370000000  0.4801600000000 1.0
C      1  0.5504610000000  0.5195010000000  0.5204360000000 1.0
C      1  0.4793970000000  0.4792250000000  0.5512240000000 1.0
C      1  0.4793970000000  0.4484370000000  0.5204360000000 1.0
C      1  0.4793970000000  0.5502890000000  0.4801600000000 1.0
C      1  0.5196730000000  0.5502890000000  0.5204360000000 1.0
C      1  0.4486090000000  0.5195010000000  0.4801600000000 1.0
C      1  0.4486090000000  0.4792250000000  0.5204360000000 1.0
C      1  0.5504610000000  0.4792250000000  0.4801600000000 1.0
C      1  0.5196730000000  0.4792250000000  0.4493720000000 1.0
C      1  0.5196730000000  0.5195010000000  0.5512240000000 1.0
C      1  0.4793970000000  0.5195010000000  0.4493720000000 1.0
C      1  0.4995350000000  0.4601150000000  0.4610500000000 1.0
C      1  0.4602870000000  0.4601150000000  0.5002980000000 1.0
C      1  0.5387830000000  0.4993630000000  0.5395460000000 1.0
C      1  0.5387830000000  0.4993630000000  0.4610500000000 1.0
C      1  0.4602870000000  0.4993630000000  0.5395460000000 1.0
C      1  0.4995350000000  0.4601150000000  0.5395460000000 1.0
C      1  0.4995350000000  0.5386110000000  0.4610500000000 1.0
C      1  0.4995350000000  0.5386110000000  0.5395460000000 1.0
C      1  0.5387830000000  0.4601150000000  0.5002980000000 1.0
C      1  0.5387830000000  0.5386110000000  0.5002980000000 1.0
C      1  0.4602870000000  0.5386110000000  0.5002980000000 1.0
C      1  0.4602870000000  0.4993630000000  0.4610500000000 1.0
C      1  0.4995350000000  0.4993630000000  0.4388610000000 1.0
C      1  0.4995350000000  0.4379260000000  0.5002980000000 1.0
C      1  0.4995350000000  0.4993630000000  0.5617350000000 1.0
C      1  0.4995350000000  0.5608000000000  0.5002980000000 1.0
C      1  0.4380980000000  0.4993630000000  0.5002980000000 1.0
C      1  0.5609720000000  0.4993630000000  0.5002980000000 1.0
END
