TITL C-2441166-8118-1379 0.033286455286695 125000 -22351.0032647016 0 0 153 (C1) n - 1
REM
REM in /home/bkarasulu/work/CARBON/AIRSS/Generating-Clusters/ReaxFF-fromJPCA2015/Units_Real/with-SteepDescent/Higher-Symm
REM
REM
REM
REM
REM
REM ./C.cell (1df0a924f5614ab8850e4351716899ee)
REM
REM compiler GCC version 9.2.1 20190827 (Red Hat 9.2.1-1)
REM options -cpp -mtune=generic -march=x86-64 -g -O0 -fpre-include=/usr/include/finclude/math-vector-fortran.h
REM seed -1281212931 1251782702 -1849513227 -831013787 -1056239503 -586442251 -1694849463 -580661360 -291630525 -37419635 1111836864 27161071 237722394 -1525504187 -1350678513 -1287524884 1547689785 821809594 -1512068387 1837302070 2031003934 2060521661 168170438 -281937418 675088128 1797807510 687102963 -2018336852 1723790085 -961245478 741090531 782606177 1713991188
REM
CELL 1.54180   50.00000   50.00000   50.00000   90.00000   90.00000   90.00000
LATT -1
SFAC C  
C      1  0.4267030000000  0.5009420000000  0.4364170000000 1.0
C      1  0.4350780000000  0.4482770000000  0.4827560000000 1.0
C      1  0.4271330000000  0.4624570000000  0.5491970000000 1.0
C      1  0.4230810000000  0.5373280000000  0.5513650000000 1.0
C      1  0.4222740000000  0.5626150000000  0.4781580000000 1.0
C      1  0.4893130000000  0.5612280000000  0.5764370000000 1.0
C      1  0.4895250000000  0.5929060000000  0.4652250000000 1.0
C      1  0.4897550000000  0.4979880000000  0.4041570000000 1.0
C      1  0.4900850000000  0.4046010000000  0.4757150000000 1.0
C      1  0.4899790000000  0.4459700000000  0.5794580000000 1.0
C      1  0.4734220000000  0.4459580000000  0.4110750000000 1.0
C      1  0.4704090000000  0.3972150000000  0.5241360000000 1.0
C      1  0.4700440000000  0.4926920000000  0.6010690000000 1.0
C      1  0.4693530000000  0.5934470000000  0.5368270000000 1.0
C      1  0.4704790000000  0.5679290000000  0.4198890000000 1.0
C      1  0.5738720000000  0.5137960000000  0.5349340000000 1.0
C      1  0.5732900000000  0.5369560000000  0.4952380000000 1.0
C      1  0.5998890000000  0.5090440000000  0.4750010000000 1.0
C      1  0.5715670000000  0.4694360000000  0.4777040000000 1.0
C      1  0.5728850000000  0.4696890000000  0.5205340000000 1.0
C      1  0.4482410000000  0.5149840000000  0.4955680000000 1.0
C      1  0.4627330000000  0.4951650000000  0.4786320000000 1.0
C      1  0.4614620000000  0.4677030000000  0.4874510000000 1.0
C      1  0.4656970000000  0.5039070000000  0.5317210000000 1.0
C      1  0.4633930000000  0.5403090000000  0.5026260000000 1.0
C      1  0.5369200000000  0.4958760000000  0.4060110000000 1.0
C      1  0.5369160000000  0.4010800000000  0.4778500000000 1.0
C      1  0.5375740000000  0.4493750000000  0.5782620000000 1.0
C      1  0.5368920000000  0.5630370000000  0.5728300000000 1.0
C      1  0.5374070000000  0.5901650000000  0.4654270000000 1.0
C      1  0.4479930000000  0.4190460000000  0.4799220000000 1.0
C      1  0.4461870000000  0.4546090000000  0.5686330000000 1.0
C      1  0.4449970000000  0.5525820000000  0.5625200000000 1.0
C      1  0.4442280000000  0.5782480000000  0.4669310000000 1.0
C      1  0.4459640000000  0.4939240000000  0.4159730000000 1.0
C      1  0.5918820000000  0.5396180000000  0.4731920000000 1.0
C      1  0.5870740000000  0.4854680000000  0.4591540000000 1.0
C      1  0.5844310000000  0.4537830000000  0.4986040000000 1.0
C      1  0.5880930000000  0.4871230000000  0.5385780000000 1.0
C      1  0.5881620000000  0.5359200000000  0.5217340000000 1.0
C      1  0.5078380000000  0.4191290000000  0.4330220000000 1.0
C      1  0.5064920000000  0.4089750000000  0.5523490000000 1.0
C      1  0.5062760000000  0.5234580000000  0.6007510000000 1.0
C      1  0.5066800000000  0.6028530000000  0.5093090000000 1.0
C      1  0.5045240000000  0.5432150000000  0.3988740000000 1.0
C      1  0.5583800000000  0.5450120000000  0.4397410000000 1.0
C      1  0.5604050000000  0.4567360000000  0.4369000000000 1.0
C      1  0.5536050000000  0.4285970000000  0.5186450000000 1.0
C      1  0.5651340000000  0.4983380000000  0.5747150000000 1.0
C      1  0.5614420000000  0.5745420000000  0.5267370000000 1.0
C      1  0.5101460000000  0.5289510000000  0.4948560000000 1.0
C      1  0.5122490000000  0.5068850000000  0.4598210000000 1.0
C      1  0.5145650000000  0.4539880000000  0.4861170000000 1.0
C      1  0.5069560000000  0.4787410000000  0.5261620000000 1.0
C      1  0.5042190000000  0.5193760000000  0.5354590000000 1.0
C      1  0.5503070000000  0.5089330000000  0.5184080000000 1.0
C      1  0.5482010000000  0.5211550000000  0.4914910000000 1.0
C      1  0.5380000000000  0.5004890000000  0.4710030000000 1.0
C      1  0.5438360000000  0.4765850000000  0.4853870000000 1.0
C      1  0.5462640000000  0.4803430000000  0.5144300000000 1.0
C      1  0.5144850000000  0.4065020000000  0.4610310000000 1.0
C      1  0.5140220000000  0.4376080000000  0.5631280000000 1.0
C      1  0.5141560000000  0.5462500000000  0.5815160000000 1.0
C      1  0.5147410000000  0.5977390000000  0.4803820000000 1.0
C      1  0.5140830000000  0.5145620000000  0.4102440000000 1.0
C      1  0.4481740000000  0.5737430000000  0.5420280000000 1.0
C      1  0.4487790000000  0.5671660000000  0.4398530000000 1.0
C      1  0.4503820000000  0.4643430000000  0.4161010000000 1.0
C      1  0.4488440000000  0.4097770000000  0.5073290000000 1.0
C      1  0.4473720000000  0.4770620000000  0.5895000000000 1.0
C      1  0.3971110000000  0.4910810000000  0.4753090000000 1.0
C      1  0.3962370000000  0.4752860000000  0.4998860000000 1.0
C      1  0.3950820000000  0.4935080000000  0.5217800000000 1.0
C      1  0.3953310000000  0.5201780000000  0.5114080000000 1.0
C      1  0.3967640000000  0.5188060000000  0.4825610000000 1.0
C      1  0.5789180000000  0.4796280000000  0.4324170000000 1.0
C      1  0.5749520000000  0.4263180000000  0.4978300000000 1.0
C      1  0.5812260000000  0.4763300000000  0.5647960000000 1.0
C      1  0.5789880000000  0.5546820000000  0.5424690000000 1.0
C      1  0.5783650000000  0.5585070000000  0.4567490000000 1.0
C      1  0.4913750000000  0.5739750000000  0.4417640000000 1.0
C      1  0.4924770000000  0.4697430000000  0.4132390000000 1.0
C      1  0.4911670000000  0.4071380000000  0.5056340000000 1.0
C      1  0.4903410000000  0.4738900000000  0.5897500000000 1.0
C      1  0.4891030000000  0.5766710000000  0.5512390000000 1.0
C      1  0.4673260000000  0.4339790000000  0.5668640000000 1.0
C      1  0.4662810000000  0.5443220000000  0.5817320000000 1.0
C      1  0.4663480000000  0.5924520000000  0.4817200000000 1.0
C      1  0.4661340000000  0.5134460000000  0.4064360000000 1.0
C      1  0.4678830000000  0.4152470000000  0.4594730000000 1.0
C      1  0.5591160000000  0.4371510000000  0.5447810000000 1.0
C      1  0.5718710000000  0.5263690000000  0.5832700000000 1.0
C      1  0.5608990000000  0.5805540000000  0.4988570000000 1.0
C      1  0.5627150000000  0.5221790000000  0.4266170000000 1.0
C      1  0.5638860000000  0.4350270000000  0.4537230000000 1.0
C      1  0.4278810000000  0.4475540000000  0.5264470000000 1.0
C      1  0.4189320000000  0.5108760000000  0.5632850000000 1.0
C      1  0.4200400000000  0.5620510000000  0.5073240000000 1.0
C      1  0.4307050000000  0.5255700000000  0.4490620000000 1.0
C      1  0.4274570000000  0.4594480000000  0.4574160000000 1.0
C      1  0.4104610000000  0.5406980000000  0.5249510000000 1.0
C      1  0.4127380000000  0.5371830000000  0.4672350000000 1.0
C      1  0.4127920000000  0.4825340000000  0.4533640000000 1.0
C      1  0.4144460000000  0.4535380000000  0.5030150000000 1.0
C      1  0.4172790000000  0.4896110000000  0.5396950000000 1.0
C      1  0.4479990000000  0.5654160000000  0.5141870000000 1.0
C      1  0.4546380000000  0.5390300000000  0.4447510000000 1.0
C      1  0.4525920000000  0.4571790000000  0.4439640000000 1.0
C      1  0.4516420000000  0.4336140000000  0.5233350000000 1.0
C      1  0.4358890000000  0.5001550000000  0.5814000000000 1.0
C      1  0.5107270000000  0.5286210000000  0.4425120000000 1.0
C      1  0.5115500000000  0.4576530000000  0.4568660000000 1.0
C      1  0.5093190000000  0.4489700000000  0.5301420000000 1.0
C      1  0.5136900000000  0.5104450000000  0.5614120000000 1.0
C      1  0.5128510000000  0.5526620000000  0.5128450000000 1.0
C      1  0.5247490000000  0.4678520000000  0.4122810000000 1.0
C      1  0.5298200000000  0.3947420000000  0.5049320000000 1.0
C      1  0.5324910000000  0.4756080000000  0.5918640000000 1.0
C      1  0.5309690000000  0.5863860000000  0.5566650000000 1.0
C      1  0.5237220000000  0.5755510000000  0.4375350000000 1.0
C      1  0.4807900000000  0.4360970000000  0.5159310000000 1.0
C      1  0.4926940000000  0.4907610000000  0.5663640000000 1.0
C      1  0.4910600000000  0.5566500000000  0.5308520000000 1.0
C      1  0.4835390000000  0.5421670000000  0.4541220000000 1.0
C      1  0.4854530000000  0.4682490000000  0.4465470000000 1.0
C      1  0.5192940000000  0.4979120000000  0.6046220000000 1.0
C      1  0.5210420000000  0.5977260000000  0.5340580000000 1.0
C      1  0.5182240000000  0.5645290000000  0.4111210000000 1.0
C      1  0.5244150000000  0.4368050000000  0.4175720000000 1.0
C      1  0.5209890000000  0.3973020000000  0.5303640000000 1.0
C      1  0.4779770000000  0.5989460000000  0.5087610000000 1.0
C      1  0.4757950000000  0.5425790000000  0.4054460000000 1.0
C      1  0.4785350000000  0.4253860000000  0.4321820000000 1.0
C      1  0.4779090000000  0.4103870000000  0.5501700000000 1.0
C      1  0.4770650000000  0.5211080000000  0.5967530000000 1.0
C      1  0.4855500000000  0.4564130000000  0.4959350000000 1.0
C      1  0.4821940000000  0.4825460000000  0.5412880000000 1.0
C      1  0.4770510000000  0.5313830000000  0.5346290000000 1.0
C      1  0.4861280000000  0.5410350000000  0.4832150000000 1.0
C      1  0.4859030000000  0.4942080000000  0.4601470000000 1.0
C      1  0.5649060000000  0.5820680000000  0.4711480000000 1.0
C      1  0.5651910000000  0.4991360000000  0.4135300000000 1.0
C      1  0.5642240000000  0.4151360000000  0.4727610000000 1.0
C      1  0.5656100000000  0.4499440000000  0.5680920000000 1.0
C      1  0.5642860000000  0.5503330000000  0.5677960000000 1.0
C      1  0.5360930000000  0.5600200000000  0.5268990000000 1.0
C      1  0.5301850000000  0.5481280000000  0.4461530000000 1.0
C      1  0.5331810000000  0.4700320000000  0.4425310000000 1.0
C      1  0.5273950000000  0.4400870000000  0.5095730000000 1.0
C      1  0.5366530000000  0.4926210000000  0.5677110000000 1.0
C      1  0.6015460000000  0.5033220000000  0.5019330000000 1.0
C      1  0.4405090000000  0.5004770000000  0.5189930000000 1.0
C      1  0.5052990000000  0.5039830000000  0.5111330000000 1.0
END
