TITL C-2441154-10-1152 0.000150067163567536 125000 -3216.82727415365 0 0 23 (C1) n - 1
REM
REM in /home/bkarasulu/work/CARBON/AIRSS/Generating-Clusters/ReaxFF-fromJPCA2015/Units_Real/with-SteepDescent/Higher-Symm
REM
REM
REM
REM
REM
REM ./C.cell (1df0a924f5614ab8850e4351716899ee)
REM
REM compiler GCC version 9.2.1 20190827 (Red Hat 9.2.1-1)
REM options -cpp -mtune=generic -march=x86-64 -g -O0 -fpre-include=/usr/include/finclude/math-vector-fortran.h
REM seed -160572715 -13761560 1608873475 1751868185 252598519 829579115 -876005884 958046218 -1622569768 958964170 876835499 -1261505509 1674251032 -1059837749 -1056234739 -1980061053 1810372676 373414996 422845716 -834031739 -948608580 1410549481 471897942 -538963620 -1470702125 -1212255564 2032659143 -656836922 2056207582 589917891 1253794684 2030955844 1263247290
REM
CELL 1.54180   50.00000   50.00000   50.00000   90.00000   90.00000   90.00000
LATT -1
SFAC C  
C      1  0.5381680000000  0.4893530000000  0.5064310000000 1.0
C      1  0.4663780000000  0.4810980000000  0.5214880000000 1.0
C      1  0.4935810000000  0.4584420000000  0.4575410000000 1.0
C      1  0.5625280000000  0.5222590000000  0.4725140000000 1.0
C      1  0.4546180000000  0.5310450000000  0.5323270000000 1.0
C      1  0.4576680000000  0.4850930000000  0.4286590000000 1.0
C      1  0.4735960000000  0.4615020000000  0.5009610000000 1.0
C      1  0.5158030000000  0.4595410000000  0.4765220000000 1.0
C      1  0.5139430000000  0.4805920000000  0.5202280000000 1.0
C      1  0.4832880000000  0.4736280000000  0.4366330000000 1.0
C      1  0.5503940000000  0.5125100000000  0.4971750000000 1.0
C      1  0.4512720000000  0.5045890000000  0.5236340000000 1.0
C      1  0.4469320000000  0.4754380000000  0.4561790000000 1.0
C      1  0.5523490000000  0.4959990000000  0.4593410000000 1.0
C      1  0.4861330000000  0.5232210000000  0.5363260000000 1.0
C      1  0.5359430000000  0.5415770000000  0.5490580000000 1.0
C      1  0.5066220000000  0.5732790000000  0.5434310000000 1.0
C      1  0.5362910000000  0.5720150000000  0.5503650000000 1.0
C      1  0.4910290000000  0.4949270000000  0.5315290000000 1.0
C      1  0.4671840000000  0.4599630000000  0.4723170000000 1.0
C      1  0.5393190000000  0.4770030000000  0.4787940000000 1.0
C      1  0.5026320000000  0.4604390000000  0.5025000000000 1.0
C      1  0.5060800000000  0.5426260000000  0.5419090000000 1.0
END
