TITL C-2441156-4686-430 0.00890894256502152 125000 -11240.3402015791 0 0 78 (C1) n - 1
REM
REM in /home/bkarasulu/work/CARBON/AIRSS/Generating-Clusters/ReaxFF-fromJPCA2015/Units_Real/with-SteepDescent/Higher-Symm
REM
REM
REM
REM
REM
REM ./C.cell (1df0a924f5614ab8850e4351716899ee)
REM
REM compiler GCC version 9.2.1 20190827 (Red Hat 9.2.1-1)
REM options -cpp -mtune=generic -march=x86-64 -g -O0 -fpre-include=/usr/include/finclude/math-vector-fortran.h
REM seed -1016425760 493207146 -841707051 1724025469 1123027198 -402347254 -191802591 -1702194439 672924526 1838571316 1265306120 -202280427 1784963117 1108095573 947187970 -1686485264 -191975637 1584666073 -314407994 -1738459016 -547409763 -952907370 1727752820 1086145151 -1645775439 -1524249912 925997886 1799914268 1925550418 121208462 -732124848 -2089265029 -2121969854
REM
CELL 1.54180   50.00000   50.00000   50.00000   90.00000   90.00000   90.00000
LATT -1
SFAC C  
C      1  0.4793410000000  0.4296670000000  0.4560030000000 1.0
C      1  0.4814930000000  0.5694300000000  0.4587090000000 1.0
C      1  0.4501890000000  0.5657460000000  0.5269520000000 1.0
C      1  0.4493280000000  0.4330090000000  0.5263570000000 1.0
C      1  0.5446880000000  0.4896370000000  0.5712530000000 1.0
C      1  0.5469920000000  0.5178680000000  0.5691800000000 1.0
C      1  0.5229620000000  0.4517140000000  0.5471730000000 1.0
C      1  0.5223600000000  0.5490590000000  0.5483260000000 1.0
C      1  0.5695740000000  0.5150590000000  0.4561110000000 1.0
C      1  0.5697250000000  0.4840070000000  0.4577080000000 1.0
C      1  0.5063500000000  0.4356010000000  0.4494720000000 1.0
C      1  0.5068780000000  0.5647010000000  0.4473520000000 1.0
C      1  0.5310730000000  0.4489350000000  0.4433090000000 1.0
C      1  0.5299580000000  0.5509790000000  0.4381150000000 1.0
C      1  0.4358320000000  0.4832350000000  0.5266380000000 1.0
C      1  0.4386850000000  0.5153420000000  0.5279540000000 1.0
C      1  0.4816680000000  0.4257310000000  0.4850900000000 1.0
C      1  0.4868600000000  0.5686320000000  0.4878830000000 1.0
C      1  0.5292440000000  0.4385190000000  0.4923230000000 1.0
C      1  0.5378380000000  0.5648390000000  0.4973530000000 1.0
C      1  0.5850430000000  0.4865710000000  0.4827040000000 1.0
C      1  0.5822910000000  0.5164840000000  0.4821960000000 1.0
C      1  0.5127470000000  0.5230590000000  0.5550730000000 1.0
C      1  0.5201980000000  0.4710090000000  0.5679270000000 1.0
C      1  0.5559290000000  0.4578430000000  0.4580220000000 1.0
C      1  0.5569110000000  0.5421090000000  0.4513500000000 1.0
C      1  0.4550960000000  0.4276870000000  0.4979550000000 1.0
C      1  0.4591100000000  0.5698220000000  0.4991240000000 1.0
C      1  0.4427570000000  0.5407770000000  0.5418920000000 1.0
C      1  0.4410830000000  0.4581750000000  0.5402710000000 1.0
C      1  0.4535600000000  0.5559470000000  0.4557590000000 1.0
C      1  0.4520590000000  0.4446550000000  0.4555280000000 1.0
C      1  0.4728180000000  0.4306890000000  0.5445810000000 1.0
C      1  0.4741010000000  0.5700410000000  0.5441420000000 1.0
C      1  0.4615430000000  0.5567510000000  0.5659840000000 1.0
C      1  0.4588670000000  0.4449800000000  0.5653660000000 1.0
C      1  0.5000220000000  0.5544830000000  0.5308470000000 1.0
C      1  0.4973470000000  0.4473890000000  0.5305370000000 1.0
C      1  0.4442770000000  0.5255240000000  0.4997740000000 1.0
C      1  0.4407040000000  0.4737920000000  0.4984600000000 1.0
C      1  0.4396910000000  0.4456050000000  0.4815300000000 1.0
C      1  0.4417240000000  0.5548170000000  0.4818650000000 1.0
C      1  0.4666520000000  0.5146070000000  0.4345150000000 1.0
C      1  0.4671260000000  0.4854710000000  0.4344290000000 1.0
C      1  0.4868920000000  0.5124400000000  0.4790650000000 1.0
C      1  0.4870260000000  0.4847500000000  0.4787360000000 1.0
C      1  0.4449420000000  0.4717470000000  0.4482150000000 1.0
C      1  0.4450700000000  0.5290310000000  0.4486970000000 1.0
C      1  0.4929370000000  0.5138330000000  0.5753460000000 1.0
C      1  0.4947380000000  0.4845950000000  0.5749280000000 1.0
C      1  0.4882000000000  0.5249480000000  0.5335760000000 1.0
C      1  0.4840210000000  0.4728430000000  0.5283610000000 1.0
C      1  0.5714180000000  0.5298020000000  0.5064570000000 1.0
C      1  0.5759610000000  0.4739110000000  0.5076590000000 1.0
C      1  0.5187130000000  0.4753660000000  0.4472170000000 1.0
C      1  0.5171260000000  0.5250930000000  0.4450410000000 1.0
C      1  0.4885260000000  0.5241510000000  0.4517980000000 1.0
C      1  0.4892310000000  0.4747600000000  0.4511630000000 1.0
C      1  0.5549750000000  0.4413160000000  0.4835960000000 1.0
C      1  0.5513250000000  0.5566670000000  0.4742370000000 1.0
C      1  0.5295400000000  0.5165000000000  0.4711350000000 1.0
C      1  0.5297910000000  0.4885510000000  0.4725730000000 1.0
C      1  0.4732030000000  0.4839630000000  0.5045660000000 1.0
C      1  0.4747420000000  0.5149390000000  0.5056290000000 1.0
C      1  0.4333140000000  0.4863200000000  0.4722160000000 1.0
C      1  0.4344730000000  0.5146460000000  0.4733290000000 1.0
C      1  0.5605880000000  0.5558820000000  0.5145550000000 1.0
C      1  0.5657480000000  0.4467290000000  0.5112620000000 1.0
C      1  0.4702510000000  0.5132530000000  0.5557300000000 1.0
C      1  0.4745990000000  0.4834640000000  0.5536200000000 1.0
C      1  0.5481300000000  0.5176420000000  0.5209000000000 1.0
C      1  0.5501200000000  0.4841680000000  0.5203760000000 1.0
C      1  0.5092960000000  0.5567800000000  0.5020400000000 1.0
C      1  0.5043110000000  0.4360720000000  0.5013300000000 1.0
C      1  0.5268710000000  0.4889990000000  0.5011850000000 1.0
C      1  0.5246440000000  0.5181720000000  0.5003180000000 1.0
C      1  0.5485730000000  0.5422700000000  0.5385640000000 1.0
C      1  0.5480110000000  0.4564020000000  0.5334870000000 1.0
END
