TITL C-2441167-4473-1232 0.0724151215972149 125000 -22392.6004336712 0 0 159 (C1) n - 1
REM
REM in /home/bkarasulu/work/CARBON/AIRSS/Generating-Clusters/ReaxFF-fromJPCA2015/Units_Real/with-SteepDescent/Higher-Symm
REM
REM
REM
REM
REM
REM ./C.cell (1df0a924f5614ab8850e4351716899ee)
REM
REM compiler GCC version 9.2.1 20190827 (Red Hat 9.2.1-1)
REM options -cpp -mtune=generic -march=x86-64 -g -O0 -fpre-include=/usr/include/finclude/math-vector-fortran.h
REM seed 1605392733 -397816774 1959008816 405867876 1726119489 1370666642 -1160999283 -1085178749 -1588302236 -792801331 -69274995 366881937 1957892465 1589757484 -1833171306 859340142 1486223401 1740111782 837051450 1241716112 1753924437 -257390415 -707694989 -406918806 1176429051 -1860859959 65994568 1957427908 -1035003938 1223619787 -185742634 -1779383033 -1591455752
REM
CELL 1.54180   50.00000   50.00000   50.00000   90.00000   90.00000   90.00000
LATT -1
SFAC C  
C      1  0.4202820000000  0.4836940000000  0.5412310000000 1.0
C      1  0.5262280000000  0.5784730000000  0.5426870000000 1.0
C      1  0.5595300000000  0.4366950000000  0.5424940000000 1.0
C      1  0.5688210000000  0.5256970000000  0.5701360000000 1.0
C      1  0.4890950000000  0.4263750000000  0.5691190000000 1.0
C      1  0.4386560000000  0.5494020000000  0.5700050000000 1.0
C      1  0.5368050000000  0.5612690000000  0.5620870000000 1.0
C      1  0.5360550000000  0.4423560000000  0.5578650000000 1.0
C      1  0.4261360000000  0.5015410000000  0.5619750000000 1.0
C      1  0.5404230000000  0.4634480000000  0.4852730000000 1.0
C      1  0.4437500000000  0.4790210000000  0.4816030000000 1.0
C      1  0.5128250000000  0.5514140000000  0.4948800000000 1.0
C      1  0.5640660000000  0.5535160000000  0.5608710000000 1.0
C      1  0.5167590000000  0.4208360000000  0.5598560000000 1.0
C      1  0.4189440000000  0.5298330000000  0.5598380000000 1.0
C      1  0.4945930000000  0.4587010000000  0.5330130000000 1.0
C      1  0.4623430000000  0.5227570000000  0.5288870000000 1.0
C      1  0.5391730000000  0.5217340000000  0.5326140000000 1.0
C      1  0.5452490000000  0.5820350000000  0.4484030000000 1.0
C      1  0.5475690000000  0.4227950000000  0.4480100000000 1.0
C      1  0.4095580000000  0.4936570000000  0.4466020000000 1.0
C      1  0.5487710000000  0.4298040000000  0.4939730000000 1.0
C      1  0.4155930000000  0.4922720000000  0.4901560000000 1.0
C      1  0.5343970000000  0.5744680000000  0.4938750000000 1.0
C      1  0.4520790000000  0.5705640000000  0.5554880000000 1.0
C      1  0.5838140000000  0.5052910000000  0.5549560000000 1.0
C      1  0.4632830000000  0.4265550000000  0.5549290000000 1.0
C      1  0.4536690000000  0.5387400000000  0.5930210000000 1.0
C      1  0.5512290000000  0.5175950000000  0.5930050000000 1.0
C      1  0.4905580000000  0.4429000000000  0.5943750000000 1.0
C      1  0.5488870000000  0.4898760000000  0.6016280000000 1.0
C      1  0.4749590000000  0.4662210000000  0.5990020000000 1.0
C      1  0.4815340000000  0.5438560000000  0.6014310000000 1.0
C      1  0.4548050000000  0.5107740000000  0.5978070000000 1.0
C      1  0.5256130000000  0.5292390000000  0.6001840000000 1.0
C      1  0.5171990000000  0.4478380000000  0.6093040000000 1.0
C      1  0.4986540000000  0.5855030000000  0.5418640000000 1.0
C      1  0.5798120000000  0.4574850000000  0.5429320000000 1.0
C      1  0.4274070000000  0.4562240000000  0.5426610000000 1.0
C      1  0.4176300000000  0.4420130000000  0.4960420000000 1.0
C      1  0.4881180000000  0.5982400000000  0.4952450000000 1.0
C      1  0.5899670000000  0.4593230000000  0.4946670000000 1.0
C      1  0.4577020000000  0.5874020000000  0.4475320000000 1.0
C      1  0.5821150000000  0.4671020000000  0.4495850000000 1.0
C      1  0.4262220000000  0.4425190000000  0.4462360000000 1.0
C      1  0.5927440000000  0.4990100000000  0.5274770000000 1.0
C      1  0.4519730000000  0.4195600000000  0.5285290000000 1.0
C      1  0.4526310000000  0.5842060000000  0.5301190000000 1.0
C      1  0.5291460000000  0.5133190000000  0.4627850000000 1.0
C      1  0.4933600000000  0.4759360000000  0.4593760000000 1.0
C      1  0.4804510000000  0.5250920000000  0.4647410000000 1.0
C      1  0.4286100000000  0.5006560000000  0.4252310000000 1.0
C      1  0.5460730000000  0.5636600000000  0.4253120000000 1.0
C      1  0.5280930000000  0.4232910000000  0.4277200000000 1.0
C      1  0.4653750000000  0.5418020000000  0.4826720000000 1.0
C      1  0.5522210000000  0.5098130000000  0.4808480000000 1.0
C      1  0.4890070000000  0.4559940000000  0.4813640000000 1.0
C      1  0.4887950000000  0.4242020000000  0.4214790000000 1.0
C      1  0.4465940000000  0.5496520000000  0.4194210000000 1.0
C      1  0.5666870000000  0.5148080000000  0.4234330000000 1.0
C      1  0.4107660000000  0.5131660000000  0.4683070000000 1.0
C      1  0.5562030000000  0.5705080000000  0.4725300000000 1.0
C      1  0.5326270000000  0.4172050000000  0.4732820000000 1.0
C      1  0.4350820000000  0.5764410000000  0.4615880000000 1.0
C      1  0.6004770000000  0.5241280000000  0.4565560000000 1.0
C      1  0.4692200000000  0.4101210000000  0.4590200000000 1.0
C      1  0.4076050000000  0.4654340000000  0.4549040000000 1.0
C      1  0.5174170000000  0.5860630000000  0.4570610000000 1.0
C      1  0.5717420000000  0.4402200000000  0.4549540000000 1.0
C      1  0.5569190000000  0.4877310000000  0.4140480000000 1.0
C      1  0.4712280000000  0.4459920000000  0.4163630000000 1.0
C      1  0.4678790000000  0.5585130000000  0.4038080000000 1.0
C      1  0.5976450000000  0.5142060000000  0.5034820000000 1.0
C      1  0.4612990000000  0.4043900000000  0.5057610000000 1.0
C      1  0.4366610000000  0.5795740000000  0.5067600000000 1.0
C      1  0.5276140000000  0.4053600000000  0.5365250000000 1.0
C      1  0.4013850000000  0.5284910000000  0.5366750000000 1.0
C      1  0.5733140000000  0.5701420000000  0.5381700000000 1.0
C      1  0.5140010000000  0.5951170000000  0.4847230000000 1.0
C      1  0.5754820000000  0.4371430000000  0.4829660000000 1.0
C      1  0.4039520000000  0.4651610000000  0.4841020000000 1.0
C      1  0.5984070000000  0.5419610000000  0.4986110000000 1.0
C      1  0.4867130000000  0.3932550000000  0.4982680000000 1.0
C      1  0.4147220000000  0.5637830000000  0.4979160000000 1.0
C      1  0.4178120000000  0.5540840000000  0.4698120000000 1.0
C      1  0.5905650000000  0.5478810000000  0.4708990000000 1.0
C      1  0.4945300000000  0.4027020000000  0.4716870000000 1.0
C      1  0.5161280000000  0.4768490000000  0.5242820000000 1.0
C      1  0.4755850000000  0.4990680000000  0.5176090000000 1.0
C      1  0.5105560000000  0.5265690000000  0.5332640000000 1.0
C      1  0.4963730000000  0.5013570000000  0.4974420000000 1.0
C      1  0.5142610000000  0.5232140000000  0.5007210000000 1.0
C      1  0.5099130000000  0.4742040000000  0.4962970000000 1.0
C      1  0.4832440000000  0.5434440000000  0.5304550000000 1.0
C      1  0.5407750000000  0.4911560000000  0.5291450000000 1.0
C      1  0.4691530000000  0.4709540000000  0.5228120000000 1.0
C      1  0.4885410000000  0.4840270000000  0.3918490000000 1.0
C      1  0.4876830000000  0.5398200000000  0.3974010000000 1.0
C      1  0.5165100000000  0.4919510000000  0.3942700000000 1.0
C      1  0.5583540000000  0.5392160000000  0.4362520000000 1.0
C      1  0.5075150000000  0.4298570000000  0.4399650000000 1.0
C      1  0.4373730000000  0.5271610000000  0.4345870000000 1.0
C      1  0.4148160000000  0.5037120000000  0.5212090000000 1.0
C      1  0.5467380000000  0.5733080000000  0.5227670000000 1.0
C      1  0.5488620000000  0.4192420000000  0.5224250000000 1.0
C      1  0.5797840000000  0.4776600000000  0.5634200000000 1.0
C      1  0.4449600000000  0.4471930000000  0.5630520000000 1.0
C      1  0.4816880000000  0.5673630000000  0.5573270000000 1.0
C      1  0.4626390000000  0.4250960000000  0.4353080000000 1.0
C      1  0.4657190000000  0.5679710000000  0.4290750000000 1.0
C      1  0.5806310000000  0.4895860000000  0.4301760000000 1.0
C      1  0.4299840000000  0.4371530000000  0.5219380000000 1.0
C      1  0.4796910000000  0.5934990000000  0.5223240000000 1.0
C      1  0.5904190000000  0.4708360000000  0.5209440000000 1.0
C      1  0.4669660000000  0.4967830000000  0.4082620000000 1.0
C      1  0.5171920000000  0.5420130000000  0.4027460000000 1.0
C      1  0.5224020000000  0.4660650000000  0.4068190000000 1.0
C      1  0.4813470000000  0.4989170000000  0.5999320000000 1.0
C      1  0.4992950000000  0.5222700000000  0.6090370000000 1.0
C      1  0.5222360000000  0.4762060000000  0.6035150000000 1.0
C      1  0.4912620000000  0.4983550000000  0.5713520000000 1.0
C      1  0.5075000000000  0.5173990000000  0.5594380000000 1.0
C      1  0.5123380000000  0.4798410000000  0.5748500000000 1.0
C      1  0.5817110000000  0.5479040000000  0.5213700000000 1.0
C      1  0.5021480000000  0.4044570000000  0.5207710000000 1.0
C      1  0.4172790000000  0.5457010000000  0.5199330000000 1.0
C      1  0.5492630000000  0.4878010000000  0.4995120000000 1.0
C      1  0.4628580000000  0.4627780000000  0.4958910000000 1.0
C      1  0.4844340000000  0.5524670000000  0.5016500000000 1.0
C      1  0.4296120000000  0.4291550000000  0.4734060000000 1.0
C      1  0.4749180000000  0.5916060000000  0.4713030000000 1.0
C      1  0.5919070000000  0.4777030000000  0.4737430000000 1.0
C      1  0.4513180000000  0.4117210000000  0.4799550000000 1.0
C      1  0.4539080000000  0.5734660000000  0.4842360000000 1.0
C      1  0.5863780000000  0.5053320000000  0.4778350000000 1.0
C      1  0.5075210000000  0.5320870000000  0.4578330000000 1.0
C      1  0.5188450000000  0.4877190000000  0.4551370000000 1.0
C      1  0.4754660000000  0.4972970000000  0.4588340000000 1.0
C      1  0.4531790000000  0.4795960000000  0.4543120000000 1.0
C      1  0.5065290000000  0.5597820000000  0.4487780000000 1.0
C      1  0.5399260000000  0.4682610000000  0.4561830000000 1.0
C      1  0.4412180000000  0.4926530000000  0.5827490000000 1.0
C      1  0.5174540000000  0.5434340000000  0.5757510000000 1.0
C      1  0.5348510000000  0.4707950000000  0.5603010000000 1.0
C      1  0.4935310000000  0.4622210000000  0.4088320000000 1.0
C      1  0.4863370000000  0.5176270000000  0.4165770000000 1.0
C      1  0.5157820000000  0.5139880000000  0.4134250000000 1.0
C      1  0.4363950000000  0.5235320000000  0.5164960000000 1.0
C      1  0.5531230000000  0.5417260000000  0.5174770000000 1.0
C      1  0.4987330000000  0.4323070000000  0.5232140000000 1.0
C      1  0.4322310000000  0.5302690000000  0.4627540000000 1.0
C      1  0.5628250000000  0.5445400000000  0.4645520000000 1.0
C      1  0.5069800000000  0.4280070000000  0.4701500000000 1.0
C      1  0.5168310000000  0.5643550000000  0.4216530000000 1.0
C      1  0.5430400000000  0.4659500000000  0.4275110000000 1.0
C      1  0.4493840000000  0.4795570000000  0.4244530000000 1.0
C      1  0.5566410000000  0.4737770000000  0.5792270000000 1.0
C      1  0.4512580000000  0.4659840000000  0.5840500000000 1.0
C      1  0.4938490000000  0.5582970000000  0.5812450000000 1.0
END
