TITL C-2441162-9305-814 0.0660227214816835 125000 -14784.5418267968 0 0 112 (C1) n - 1
REM
REM in /home/bkarasulu/work/CARBON/AIRSS/Generating-Clusters/ReaxFF-fromJPCA2015/Units_Real/with-SteepDescent/Higher-Symm
REM
REM
REM
REM
REM
REM ./C.cell (1df0a924f5614ab8850e4351716899ee)
REM
REM compiler GCC version 9.2.1 20190827 (Red Hat 9.2.1-1)
REM options -cpp -mtune=generic -march=x86-64 -g -O0 -fpre-include=/usr/include/finclude/math-vector-fortran.h
REM seed -361979758 -1686548399 -1839916121 1984118708 -537880505 -1400416448 -475844692 1440340296 -1317739482 -2045444421 1725013384 1991824349 -1665339243 1628175980 1436700560 -1957621473 -239401470 966582433 1265591228 -888610819 1975266489 -684448129 1282987061 1966958374 1048860432 1224779364 1625169807 92935115 -1037952428 -14742248 1351605978 1816685443 -293331099
REM
CELL 1.54180   50.00000   50.00000   50.00000   90.00000   90.00000   90.00000
LATT -1
SFAC C  
C      1  0.5927020000000  0.5190050000000  0.5256040000000 1.0
C      1  0.5770660000000  0.4568320000000  0.4953960000000 1.0
C      1  0.4886520000000  0.4272990000000  0.5424320000000 1.0
C      1  0.4159140000000  0.5241000000000  0.5242100000000 1.0
C      1  0.5963580000000  0.4923320000000  0.5151810000000 1.0
C      1  0.5774720000000  0.5253180000000  0.5013310000000 1.0
C      1  0.5135550000000  0.4351190000000  0.5528540000000 1.0
C      1  0.5771020000000  0.4643150000000  0.5376290000000 1.0
C      1  0.5217070000000  0.5868750000000  0.4814550000000 1.0
C      1  0.5453380000000  0.5307200000000  0.4373060000000 1.0
C      1  0.4707220000000  0.5308850000000  0.4175640000000 1.0
C      1  0.4999490000000  0.5434420000000  0.4860600000000 1.0
C      1  0.4451780000000  0.4763590000000  0.5236640000000 1.0
C      1  0.5605160000000  0.4482390000000  0.4742470000000 1.0
C      1  0.5151780000000  0.4696450000000  0.4630530000000 1.0
C      1  0.5714540000000  0.4797500000000  0.5128120000000 1.0
C      1  0.4496780000000  0.5403820000000  0.5576880000000 1.0
C      1  0.4312310000000  0.5581070000000  0.5075030000000 1.0
C      1  0.5186920000000  0.4570480000000  0.4883330000000 1.0
C      1  0.5056620000000  0.5020480000000  0.4293550000000 1.0
C      1  0.4157860000000  0.5367820000000  0.4980730000000 1.0
C      1  0.5278450000000  0.4590760000000  0.4370540000000 1.0
C      1  0.4437940000000  0.5130680000000  0.4755490000000 1.0
C      1  0.4909890000000  0.4680180000000  0.5746740000000 1.0
C      1  0.5461600000000  0.4953180000000  0.5141080000000 1.0
C      1  0.5737320000000  0.5462910000000  0.4814620000000 1.0
C      1  0.4742070000000  0.4026180000000  0.5034820000000 1.0
C      1  0.4729240000000  0.5212780000000  0.5146160000000 1.0
C      1  0.4761780000000  0.5053260000000  0.5865410000000 1.0
C      1  0.5384930000000  0.4683160000000  0.5760980000000 1.0
C      1  0.4510690000000  0.5307630000000  0.4390410000000 1.0
C      1  0.5523100000000  0.4271400000000  0.5156940000000 1.0
C      1  0.5047380000000  0.5748810000000  0.5458130000000 1.0
C      1  0.5316230000000  0.4964060000000  0.5835540000000 1.0
C      1  0.5284840000000  0.4831900000000  0.4154510000000 1.0
C      1  0.5183110000000  0.4235850000000  0.4795700000000 1.0
C      1  0.5250760000000  0.5869460000000  0.4543090000000 1.0
C      1  0.4591800000000  0.5733130000000  0.4608150000000 1.0
C      1  0.5056040000000  0.4653080000000  0.5130730000000 1.0
C      1  0.4482990000000  0.5605550000000  0.5372290000000 1.0
C      1  0.5434000000000  0.5049890000000  0.4681410000000 1.0
C      1  0.4735840000000  0.5885550000000  0.4817130000000 1.0
C      1  0.5679120000000  0.4905070000000  0.4638510000000 1.0
C      1  0.5369730000000  0.5608410000000  0.5153320000000 1.0
C      1  0.4379230000000  0.4906740000000  0.5606700000000 1.0
C      1  0.5679060000000  0.5313360000000  0.5279450000000 1.0
C      1  0.5531860000000  0.5531650000000  0.5392700000000 1.0
C      1  0.4111130000000  0.4957280000000  0.5189660000000 1.0
C      1  0.5755890000000  0.4994720000000  0.4150990000000 1.0
C      1  0.5017200000000  0.4050180000000  0.4953390000000 1.0
C      1  0.4811440000000  0.5035910000000  0.4107230000000 1.0
C      1  0.5359440000000  0.4976520000000  0.5406490000000 1.0
C      1  0.5650570000000  0.5340820000000  0.4571840000000 1.0
C      1  0.4556830000000  0.4210990000000  0.4916240000000 1.0
C      1  0.4842830000000  0.5753050000000  0.5047810000000 1.0
C      1  0.4769540000000  0.4947810000000  0.4969760000000 1.0
C      1  0.4798190000000  0.4664260000000  0.5003910000000 1.0
C      1  0.4992280000000  0.4886150000000  0.4536770000000 1.0
C      1  0.5517970000000  0.5058810000000  0.4189990000000 1.0
C      1  0.4620850000000  0.4384550000000  0.5502290000000 1.0
C      1  0.5457280000000  0.5126770000000  0.5639770000000 1.0
C      1  0.4738680000000  0.4411330000000  0.4785830000000 1.0
C      1  0.5383260000000  0.4374910000000  0.5392230000000 1.0
C      1  0.4447470000000  0.4368350000000  0.5279120000000 1.0
C      1  0.5461180000000  0.5778470000000  0.4706030000000 1.0
C      1  0.4304600000000  0.4634960000000  0.4835250000000 1.0
C      1  0.4741250000000  0.4771240000000  0.4151610000000 1.0
C      1  0.4483450000000  0.5028350000000  0.4478960000000 1.0
C      1  0.5177520000000  0.5337510000000  0.5075530000000 1.0
C      1  0.5443830000000  0.5422060000000  0.5644230000000 1.0
C      1  0.4723280000000  0.5444430000000  0.4938620000000 1.0
C      1  0.4528320000000  0.4550160000000  0.4661000000000 1.0
C      1  0.5555120000000  0.4666290000000  0.4529810000000 1.0
C      1  0.5461810000000  0.4265580000000  0.4871940000000 1.0
C      1  0.5186680000000  0.5551940000000  0.5627390000000 1.0
C      1  0.4528850000000  0.5452440000000  0.4657810000000 1.0
C      1  0.4149040000000  0.5128950000000  0.4743810000000 1.0
C      1  0.4981570000000  0.5268620000000  0.5287220000000 1.0
C      1  0.5325430000000  0.5088110000000  0.4941640000000 1.0
C      1  0.4340310000000  0.4367800000000  0.5025300000000 1.0
C      1  0.4879160000000  0.5032990000000  0.4722950000000 1.0
C      1  0.4971550000000  0.5824740000000  0.4661880000000 1.0
C      1  0.4451690000000  0.5296710000000  0.5334080000000 1.0
C      1  0.4312960000000  0.4794920000000  0.4416200000000 1.0
C      1  0.5771880000000  0.4418320000000  0.5185990000000 1.0
C      1  0.4341900000000  0.4877480000000  0.5009190000000 1.0
C      1  0.5018430000000  0.4410100000000  0.4370170000000 1.0
C      1  0.4885680000000  0.4859110000000  0.5515290000000 1.0
C      1  0.5532030000000  0.4576850000000  0.5533410000000 1.0
C      1  0.4487570000000  0.4553420000000  0.4379440000000 1.0
C      1  0.5135230000000  0.5779920000000  0.5193940000000 1.0
C      1  0.5108550000000  0.4864240000000  0.5337490000000 1.0
C      1  0.4910050000000  0.5500990000000  0.4256490000000 1.0
C      1  0.4722830000000  0.5286940000000  0.5696600000000 1.0
C      1  0.4748050000000  0.5792210000000  0.5436130000000 1.0
C      1  0.4808990000000  0.5714230000000  0.4413620000000 1.0
C      1  0.4208400000000  0.4784130000000  0.5403640000000 1.0
C      1  0.5004480000000  0.5310380000000  0.5581320000000 1.0
C      1  0.4541070000000  0.4830420000000  0.5836060000000 1.0
C      1  0.4614990000000  0.4889720000000  0.5429740000000 1.0
C      1  0.4639900000000  0.4571610000000  0.5741920000000 1.0
C      1  0.4767270000000  0.4513160000000  0.4249930000000 1.0
C      1  0.5556960000000  0.5650450000000  0.4929440000000 1.0
C      1  0.4961910000000  0.4285160000000  0.4616560000000 1.0
C      1  0.4930690000000  0.4085610000000  0.5222640000000 1.0
C      1  0.4145150000000  0.4849990000000  0.4654330000000 1.0
C      1  0.5149540000000  0.4522000000000  0.5749800000000 1.0
C      1  0.4675370000000  0.5929380000000  0.5204490000000 1.0
C      1  0.5927980000000  0.4965530000000  0.4846780000000 1.0
C      1  0.5127520000000  0.5317990000000  0.4386360000000 1.0
C      1  0.4993810000000  0.5272830000000  0.4644920000000 1.0
C      1  0.5047280000000  0.5078520000000  0.5851690000000 1.0
END
