TITL C-2441161-5029-1204 0.00112845603984856 125000 -8171.66784041235 0 0 58 (C1) n - 1
REM
REM in /home/bkarasulu/work/CARBON/AIRSS/Generating-Clusters/ReaxFF-fromJPCA2015/Units_Real/with-SteepDescent/Higher-Symm
REM
REM
REM
REM
REM
REM ./C.cell (1df0a924f5614ab8850e4351716899ee)
REM
REM compiler GCC version 9.2.1 20190827 (Red Hat 9.2.1-1)
REM options -cpp -mtune=generic -march=x86-64 -g -O0 -fpre-include=/usr/include/finclude/math-vector-fortran.h
REM seed 1593100988 -1446963937 401185584 -1281004053 -1243908540 333475088 738380302 643742428 709489201 715203309 1108571741 -1777815043 -563265728 2006160117 -1155457577 -377505392 77277908 894813976 -1643196095 1988224749 595831058 146551245 1152921120 -1543180212 343711852 -654818995 1492885965 1664195174 1277707269 -827277472 722416705 1028817037 -712341520
REM
CELL 1.54180   50.00000   50.00000   50.00000   90.00000   90.00000   90.00000
LATT -1
SFAC C  
C      1  0.4882640000000  0.4649670000000  0.5627350000000 1.0
C      1  0.4521690000000  0.4659740000000  0.4651200000000 1.0
C      1  0.5566320000000  0.4639770000000  0.4803820000000 1.0
C      1  0.4877120000000  0.5341500000000  0.5626110000000 1.0
C      1  0.4519020000000  0.5337370000000  0.4666960000000 1.0
C      1  0.5562360000000  0.5367710000000  0.4778190000000 1.0
C      1  0.4982010000000  0.5597000000000  0.4595480000000 1.0
C      1  0.5300800000000  0.5601410000000  0.5175510000000 1.0
C      1  0.4651750000000  0.5486140000000  0.5224700000000 1.0
C      1  0.4953760000000  0.4379500000000  0.4585870000000 1.0
C      1  0.5348750000000  0.4290740000000  0.5142460000000 1.0
C      1  0.4635980000000  0.4492920000000  0.5211380000000 1.0
C      1  0.4860120000000  0.5569350000000  0.5432190000000 1.0
C      1  0.4693270000000  0.5573750000000  0.4694330000000 1.0
C      1  0.5418470000000  0.5609160000000  0.4882370000000 1.0
C      1  0.4848560000000  0.4448750000000  0.5417900000000 1.0
C      1  0.4680520000000  0.4410700000000  0.4697320000000 1.0
C      1  0.5431520000000  0.4378180000000  0.4864390000000 1.0
C      1  0.4730510000000  0.5200020000000  0.4520880000000 1.0
C      1  0.5510270000000  0.5213980000000  0.5021360000000 1.0
C      1  0.4605710000000  0.5278490000000  0.5605390000000 1.0
C      1  0.4744560000000  0.4777880000000  0.4503070000000 1.0
C      1  0.5520320000000  0.4793840000000  0.5049930000000 1.0
C      1  0.4688470000000  0.4827960000000  0.5506030000000 1.0
C      1  0.5098490000000  0.5142700000000  0.5657020000000 1.0
C      1  0.4449140000000  0.5146940000000  0.4881910000000 1.0
C      1  0.5518150000000  0.5154040000000  0.4580330000000 1.0
C      1  0.5106770000000  0.4844640000000  0.5662610000000 1.0
C      1  0.4433190000000  0.4846340000000  0.4861340000000 1.0
C      1  0.5531190000000  0.4841130000000  0.4587960000000 1.0
C      1  0.4455050000000  0.4905430000000  0.5645190000000 1.0
C      1  0.4716740000000  0.4874420000000  0.4205260000000 1.0
C      1  0.5792210000000  0.4887880000000  0.5190000000000 1.0
C      1  0.4390700000000  0.5128310000000  0.5680330000000 1.0
C      1  0.4711590000000  0.5096970000000  0.4229260000000 1.0
C      1  0.5778410000000  0.5107050000000  0.5176840000000 1.0
C      1  0.4772160000000  0.5575630000000  0.4976030000000 1.0
C      1  0.5214170000000  0.5708530000000  0.4711450000000 1.0
C      1  0.5098170000000  0.5705000000000  0.5335910000000 1.0
C      1  0.4773180000000  0.4437100000000  0.4968950000000 1.0
C      1  0.5214820000000  0.4315850000000  0.4679400000000 1.0
C      1  0.5136250000000  0.4373100000000  0.5335790000000 1.0
C      1  0.4995700000000  0.4659830000000  0.4972930000000 1.0
C      1  0.5112850000000  0.4595280000000  0.4682350000000 1.0
C      1  0.5157530000000  0.4641100000000  0.5220950000000 1.0
C      1  0.4974210000000  0.5359160000000  0.4968570000000 1.0
C      1  0.5077240000000  0.5333970000000  0.4699850000000 1.0
C      1  0.5155810000000  0.5338420000000  0.5196750000000 1.0
C      1  0.5254150000000  0.4839240000000  0.4523770000000 1.0
C      1  0.5241810000000  0.4849240000000  0.5403490000000 1.0
C      1  0.4532050000000  0.4756240000000  0.5116480000000 1.0
C      1  0.5233330000000  0.5130110000000  0.4546840000000 1.0
C      1  0.5239470000000  0.5143110000000  0.5405060000000 1.0
C      1  0.4565690000000  0.5215420000000  0.5139900000000 1.0
C      1  0.4856320000000  0.4985350000000  0.4681950000000 1.0
C      1  0.4721120000000  0.4965670000000  0.5202430000000 1.0
C      1  0.5307930000000  0.4996770000000  0.5013050000000 1.0
C      1  0.4976580000000  0.4948600000000  0.4956860000000 1.0
END
