TITL C-2441167-4473-1407 0.0301320490674202 125000 -10097.2380606116 0 0 75 (C1) n - 1
REM
REM in /home/bkarasulu/work/CARBON/AIRSS/Generating-Clusters/ReaxFF-fromJPCA2015/Units_Real/with-SteepDescent/Higher-Symm
REM
REM
REM
REM
REM
REM ./C.cell (1df0a924f5614ab8850e4351716899ee)
REM
REM compiler GCC version 9.2.1 20190827 (Red Hat 9.2.1-1)
REM options -cpp -mtune=generic -march=x86-64 -g -O0 -fpre-include=/usr/include/finclude/math-vector-fortran.h
REM seed -662231779 -103580136 -1038676234 -546305846 -1664139486 170650567 1921308377 1340405656 503242311 -1141170527 -1487814207 -868946873 11514360 147959302 -521903893 -1902370869 -1125443407 -432320604 -162469123 -1771558365 1087897657 1240260966 1111946033 805211465 -1830080249 1725976796 -589793874 1583432853 -1482157049 -2008749584 1099204490 -609682570 876493750
REM
CELL 1.54180   50.00000   50.00000   50.00000   90.00000   90.00000   90.00000
LATT -1
SFAC C  
C      1  0.5257540000000  0.5404930000000  0.5650980000000 1.0
C      1  0.5460910000000  0.5104140000000  0.4342120000000 1.0
C      1  0.5414890000000  0.4721470000000  0.5670710000000 1.0
C      1  0.5095590000000  0.4511640000000  0.4322680000000 1.0
C      1  0.4722700000000  0.4610590000000  0.5670190000000 1.0
C      1  0.4527010000000  0.4912790000000  0.4329080000000 1.0
C      1  0.4616400000000  0.5276260000000  0.5664160000000 1.0
C      1  0.4911640000000  0.5451370000000  0.4329150000000 1.0
C      1  0.5311740000000  0.5135170000000  0.4762840000000 1.0
C      1  0.5265390000000  0.4934100000000  0.5284420000000 1.0
C      1  0.5103060000000  0.4757710000000  0.4714360000000 1.0
C      1  0.4851120000000  0.4704590000000  0.5214100000000 1.0
C      1  0.4712860000000  0.4853390000000  0.4755090000000 1.0
C      1  0.4724450000000  0.5085800000000  0.5275710000000 1.0
C      1  0.4906220000000  0.5240730000000  0.4797610000000 1.0
C      1  0.5140620000000  0.5310700000000  0.5239080000000 1.0
C      1  0.5600190000000  0.5354950000000  0.4942840000000 1.0
C      1  0.5653890000000  0.4827140000000  0.5069100000000 1.0
C      1  0.5342370000000  0.4416090000000  0.4934150000000 1.0
C      1  0.4826240000000  0.4332150000000  0.5047070000000 1.0
C      1  0.4410800000000  0.4652250000000  0.4938800000000 1.0
C      1  0.4344560000000  0.5175460000000  0.5061650000000 1.0
C      1  0.4649390000000  0.5596410000000  0.4931470000000 1.0
C      1  0.5172650000000  0.5678660000000  0.5052390000000 1.0
C      1  0.5123790000000  0.4366750000000  0.5126140000000 1.0
C      1  0.4631210000000  0.4465910000000  0.4869960000000 1.0
C      1  0.4358730000000  0.4877570000000  0.5115830000000 1.0
C      1  0.4454660000000  0.5373130000000  0.4874520000000 1.0
C      1  0.4871480000000  0.5658050000000  0.5115800000000 1.0
C      1  0.5366790000000  0.5554190000000  0.4873500000000 1.0
C      1  0.5648150000000  0.5127450000000  0.5132530000000 1.0
C      1  0.5544060000000  0.4635870000000  0.4871900000000 1.0
C      1  0.4769760000000  0.4881000000000  0.5753770000000 1.0
C      1  0.4746140000000  0.5085510000000  0.4232990000000 1.0
C      1  0.4866760000000  0.5159750000000  0.5768760000000 1.0
C      1  0.5026950000000  0.5191530000000  0.4218690000000 1.0
C      1  0.5191770000000  0.5147480000000  0.5755060000000 1.0
C      1  0.5229970000000  0.4969890000000  0.4232350000000 1.0
C      1  0.5149580000000  0.4761170000000  0.5755340000000 1.0
C      1  0.4932540000000  0.4721490000000  0.4232850000000 1.0
C      1  0.4847380000000  0.5520910000000  0.4731770000000 1.0
C      1  0.5304500000000  0.5548010000000  0.5273960000000 1.0
C      1  0.5596220000000  0.5160550000000  0.4731220000000 1.0
C      1  0.5466640000000  0.4726700000000  0.5263570000000 1.0
C      1  0.5141940000000  0.4463360000000  0.4730200000000 1.0
C      1  0.4710390000000  0.4470110000000  0.5278880000000 1.0
C      1  0.4451670000000  0.4837490000000  0.4721650000000 1.0
C      1  0.4519060000000  0.5282740000000  0.5266580000000 1.0
C      1  0.4688850000000  0.5298590000000  0.4421000000000 1.0
C      1  0.4997830000000  0.5376850000000  0.5478930000000 1.0
C      1  0.5275350000000  0.5270390000000  0.4506060000000 1.0
C      1  0.5391810000000  0.5013700000000  0.5548180000000 1.0
C      1  0.5272590000000  0.4737760000000  0.4457230000000 1.0
C      1  0.5004200000000  0.4569790000000  0.5604930000000 1.0
C      1  0.4691780000000  0.4683070000000  0.4378940000000 1.0
C      1  0.4589620000000  0.4995290000000  0.5534250000000 1.0
C      1  0.5495240000000  0.5456920000000  0.5480510000000 1.0
C      1  0.5662330000000  0.4973760000000  0.4512150000000 1.0
C      1  0.5445890000000  0.4514120000000  0.5468690000000 1.0
C      1  0.4968230000000  0.4342780000000  0.4524670000000 1.0
C      1  0.4505960000000  0.4553940000000  0.5482910000000 1.0
C      1  0.4342080000000  0.5027940000000  0.4517120000000 1.0
C      1  0.4551930000000  0.5487640000000  0.5481000000000 1.0
C      1  0.5015470000000  0.5646160000000  0.4521220000000 1.0
C      1  0.4398190000000  0.4803030000000  0.5388880000000 1.0
C      1  0.4447920000000  0.5288050000000  0.4593840000000 1.0
C      1  0.4812690000000  0.5590620000000  0.5393720000000 1.0
C      1  0.5281060000000  0.5556470000000  0.4595370000000 1.0
C      1  0.5599790000000  0.5199090000000  0.5405600000000 1.0
C      1  0.5547940000000  0.4721490000000  0.4595410000000 1.0
C      1  0.5178770000000  0.4417620000000  0.5406330000000 1.0
C      1  0.4716930000000  0.4471380000000  0.4595490000000 1.0
C      1  0.4969490000000  0.4936110000000  0.5312690000000 1.0
C      1  0.4916490000000  0.4980630000000  0.4661170000000 1.0
C      1  0.5112130000000  0.5164840000000  0.4981820000000 1.0
END
