TITL C-2441160-1326-491 0.0858932749640748 125000 -16053.3159466247 0 0 121 (C1) n - 1
REM
REM in /home/bkarasulu/work/CARBON/AIRSS/Generating-Clusters/ReaxFF-fromJPCA2015/Units_Real/with-SteepDescent/Higher-Symm
REM
REM
REM
REM
REM
REM ./C.cell (1df0a924f5614ab8850e4351716899ee)
REM
REM compiler GCC version 9.2.1 20190827 (Red Hat 9.2.1-1)
REM options -cpp -mtune=generic -march=x86-64 -g -O0 -fpre-include=/usr/include/finclude/math-vector-fortran.h
REM seed 141546142 -1932624418 507055601 -937755308 -1475848142 -1202825821 1929628817 -1432756825 1462450655 -1054507138 -2145001696 -1148300894 501407639 -2019858363 1313763919 67083639 1220173270 1671691535 1735601672 -230996487 1497404212 661244000 -971597545 223320319 480193737 -376715270 828903306 1039861486 -993463483 457181641 -1784803386 -2058849356 1597196195
REM
CELL 1.54180   50.00000   50.00000   50.00000   90.00000   90.00000   90.00000
LATT -1
SFAC C  
C      1  0.5850740000000  0.5161760000000  0.5266520000000 1.0
C      1  0.5016670000000  0.5174810000000  0.5910820000000 1.0
C      1  0.4184180000000  0.5158010000000  0.5289060000000 1.0
C      1  0.4462690000000  0.5178200000000  0.4306940000000 1.0
C      1  0.5508560000000  0.5167270000000  0.4275080000000 1.0
C      1  0.5595980000000  0.5032720000000  0.5695570000000 1.0
C      1  0.4521270000000  0.5036470000000  0.5790380000000 1.0
C      1  0.4109440000000  0.5029490000000  0.4776710000000 1.0
C      1  0.4931030000000  0.5032780000000  0.4090370000000 1.0
C      1  0.5840630000000  0.5019630000000  0.4677820000000 1.0
C      1  0.5417620000000  0.4523200000000  0.5077020000000 1.0
C      1  0.5065150000000  0.4520050000000  0.5399900000000 1.0
C      1  0.4583930000000  0.4554060000000  0.5172670000000 1.0
C      1  0.4704990000000  0.4655430000000  0.4697960000000 1.0
C      1  0.5192840000000  0.4527830000000  0.4674220000000 1.0
C      1  0.4922470000000  0.5640240000000  0.4755490000000 1.0
C      1  0.5201610000000  0.5637210000000  0.4858600000000 1.0
C      1  0.5181490000000  0.5656080000000  0.5152420000000 1.0
C      1  0.4916680000000  0.5741150000000  0.5210330000000 1.0
C      1  0.4742770000000  0.5657910000000  0.4998710000000 1.0
C      1  0.5761360000000  0.4429090000000  0.4643310000000 1.0
C      1  0.5410370000000  0.4408620000000  0.5657120000000 1.0
C      1  0.4527720000000  0.4353940000000  0.5599350000000 1.0
C      1  0.4298800000000  0.4472560000000  0.4834540000000 1.0
C      1  0.5044580000000  0.4367650000000  0.4279010000000 1.0
C      1  0.5385030000000  0.4133480000000  0.4777280000000 1.0
C      1  0.5346990000000  0.4133660000000  0.5306940000000 1.0
C      1  0.4855420000000  0.4129670000000  0.5372830000000 1.0
C      1  0.4487960000000  0.4112900000000  0.4972620000000 1.0
C      1  0.4887390000000  0.4145460000000  0.4593690000000 1.0
C      1  0.5715290000000  0.4766680000000  0.4581690000000 1.0
C      1  0.5632400000000  0.4791800000000  0.5551550000000 1.0
C      1  0.4680280000000  0.4808010000000  0.5773560000000 1.0
C      1  0.4149080000000  0.4762850000000  0.4914380000000 1.0
C      1  0.4795250000000  0.4806590000000  0.4174180000000 1.0
C      1  0.4296390000000  0.5384590000000  0.5091970000000 1.0
C      1  0.4679140000000  0.5394850000000  0.4365470000000 1.0
C      1  0.5505580000000  0.5393910000000  0.4498350000000 1.0
C      1  0.5630100000000  0.5383680000000  0.5337360000000 1.0
C      1  0.4873380000000  0.5385300000000  0.5710610000000 1.0
C      1  0.4679510000000  0.4945560000000  0.4819010000000 1.0
C      1  0.4954030000000  0.4949000000000  0.4728310000000 1.0
C      1  0.5343580000000  0.4945020000000  0.4861040000000 1.0
C      1  0.5152260000000  0.4925700000000  0.5233490000000 1.0
C      1  0.4753650000000  0.4952020000000  0.5303320000000 1.0
C      1  0.4140230000000  0.5305020000000  0.4857480000000 1.0
C      1  0.4906160000000  0.5290360000000  0.4208500000000 1.0
C      1  0.5752530000000  0.5293890000000  0.4646910000000 1.0
C      1  0.5602740000000  0.5306240000000  0.5614500000000 1.0
C      1  0.4596650000000  0.5308090000000  0.5778820000000 1.0
C      1  0.5399870000000  0.4667630000000  0.4819150000000 1.0
C      1  0.5261320000000  0.4668480000000  0.5278560000000 1.0
C      1  0.4791040000000  0.4696280000000  0.5324110000000 1.0
C      1  0.4570690000000  0.4530990000000  0.4905670000000 1.0
C      1  0.4978940000000  0.4684900000000  0.4632040000000 1.0
C      1  0.4944890000000  0.5299850000000  0.5443450000000 1.0
C      1  0.4600290000000  0.5360080000000  0.5051170000000 1.0
C      1  0.4825190000000  0.5354670000000  0.4643310000000 1.0
C      1  0.5275620000000  0.5337250000000  0.4715270000000 1.0
C      1  0.5358260000000  0.5328670000000  0.5184580000000 1.0
C      1  0.5901210000000  0.5295240000000  0.5035650000000 1.0
C      1  0.5247350000000  0.5302370000000  0.5878850000000 1.0
C      1  0.4295810000000  0.5266870000000  0.5511820000000 1.0
C      1  0.4281850000000  0.5282930000000  0.4480280000000 1.0
C      1  0.5307750000000  0.5301700000000  0.4141330000000 1.0
C      1  0.5091430000000  0.4243550000000  0.5360340000000 1.0
C      1  0.4736040000000  0.4135810000000  0.5117040000000 1.0
C      1  0.4741170000000  0.4164720000000  0.4839120000000 1.0
C      1  0.5136020000000  0.4250930000000  0.4694120000000 1.0
C      1  0.5359020000000  0.4237400000000  0.5042530000000 1.0
C      1  0.4280290000000  0.4291640000000  0.5055370000000 1.0
C      1  0.4770680000000  0.4316270000000  0.4382170000000 1.0
C      1  0.5533370000000  0.4296010000000  0.4573670000000 1.0
C      1  0.5560610000000  0.4307430000000  0.5424640000000 1.0
C      1  0.4791730000000  0.4285840000000  0.5610500000000 1.0
C      1  0.5529100000000  0.4890500000000  0.4363740000000 1.0
C      1  0.5779750000000  0.4880510000000  0.5325790000000 1.0
C      1  0.4941640000000  0.4895280000000  0.5847540000000 1.0
C      1  0.4191470000000  0.4876450000000  0.5199800000000 1.0
C      1  0.4548560000000  0.4895540000000  0.4284210000000 1.0
C      1  0.5339120000000  0.4719550000000  0.4256450000000 1.0
C      1  0.5821100000000  0.4692700000000  0.5120250000000 1.0
C      1  0.5160020000000  0.4721500000000  0.5816240000000 1.0
C      1  0.4274570000000  0.4717140000000  0.5409530000000 1.0
C      1  0.4392810000000  0.4708070000000  0.4432460000000 1.0
C      1  0.5328730000000  0.4431040000000  0.4340910000000 1.0
C      1  0.5673310000000  0.4461180000000  0.5198780000000 1.0
C      1  0.5118480000000  0.4454730000000  0.5706150000000 1.0
C      1  0.4357690000000  0.4436890000000  0.5331370000000 1.0
C      1  0.4547510000000  0.4476790000000  0.4505960000000 1.0
C      1  0.5082210000000  0.4823590000000  0.4166210000000 1.0
C      1  0.5796340000000  0.4828070000000  0.4867760000000 1.0
C      1  0.5390830000000  0.4839680000000  0.5697960000000 1.0
C      1  0.4445570000000  0.4840470000000  0.5608490000000 1.0
C      1  0.4272080000000  0.4847920000000  0.4653990000000 1.0
C      1  0.5110650000000  0.5497320000000  0.4136570000000 1.0
C      1  0.5858180000000  0.5485630000000  0.4839490000000 1.0
C      1  0.5430500000000  0.5479710000000  0.5767400000000 1.0
C      1  0.4416840000000  0.5480670000000  0.5634050000000 1.0
C      1  0.4206590000000  0.5484540000000  0.4645420000000 1.0
C      1  0.4799300000000  0.5773760000000  0.5466690000000 1.0
C      1  0.4470130000000  0.5783270000000  0.4953020000000 1.0
C      1  0.4882090000000  0.5782070000000  0.4493660000000 1.0
C      1  0.5441750000000  0.5775090000000  0.4741380000000 1.0
C      1  0.5385110000000  0.5767360000000  0.5340230000000 1.0
C      1  0.5186310000000  0.5180010000000  0.5365440000000 1.0
C      1  0.4718610000000  0.5213010000000  0.5284090000000 1.0
C      1  0.4651460000000  0.5219590000000  0.4819480000000 1.0
C      1  0.5047480000000  0.5197030000000  0.4578320000000 1.0
C      1  0.5432590000000  0.5207900000000  0.4928510000000 1.0
C      1  0.5130150000000  0.5714980000000  0.4345610000000 1.0
C      1  0.5659860000000  0.5700860000000  0.4926800000000 1.0
C      1  0.5277420000000  0.5695120000000  0.5606340000000 1.0
C      1  0.4509120000000  0.5695440000000  0.5445120000000 1.0
C      1  0.4413030000000  0.5704450000000  0.4676230000000 1.0
C      1  0.4612550000000  0.5682950000000  0.4465050000000 1.0
C      1  0.5391160000000  0.5686640000000  0.4471530000000 1.0
C      1  0.5624850000000  0.5673320000000  0.5212270000000 1.0
C      1  0.4996540000000  0.5675540000000  0.5655690000000 1.0
C      1  0.4361170000000  0.5677410000000  0.5199020000000 1.0
C      1  0.5092330000000  0.4983070000000  0.4973130000000 1.0
END
