TITL C-2441159-1093-624 0.0884565780339317 125000 -11410.1881845829 0 0 98 (C1) n - 1
REM
REM in /home/bkarasulu/work/CARBON/AIRSS/Generating-Clusters/ReaxFF-fromJPCA2015/Units_Real/with-SteepDescent/Higher-Symm
REM
REM
REM
REM
REM
REM ./C.cell (1df0a924f5614ab8850e4351716899ee)
REM
REM compiler GCC version 9.2.1 20190827 (Red Hat 9.2.1-1)
REM options -cpp -mtune=generic -march=x86-64 -g -O0 -fpre-include=/usr/include/finclude/math-vector-fortran.h
REM seed -1254529240 839099566 -773138241 332691668 -312628077 1147068233 902435564 819203533 94563846 -1905844331 -97020481 202982089 -1327603116 -397964524 -186163596 -95530499 1936386099 665888010 -1798571748 2146556373 -1117554206 1780465402 -382316383 148280652 421092839 -1752002689 2132906618 1280361477 2121436499 -1387012766 1338263500 89989599 342130405
REM
CELL 1.54180   50.00000   50.00000   50.00000   90.00000   90.00000   90.00000
LATT -1
SFAC C  
C      1  0.5003830000000  0.5657670000000  0.5351770000000 1.0
C      1  0.4556320000000  0.5524620000000  0.4724310000000 1.0
C      1  0.4354330000000  0.5002840000000  0.5352460000000 1.0
C      1  0.4438830000000  0.4555070000000  0.4746890000000 1.0
C      1  0.4995590000000  0.4345760000000  0.5355690000000 1.0
C      1  0.5463680000000  0.4534470000000  0.4638610000000 1.0
C      1  0.5642060000000  0.5002040000000  0.5369670000000 1.0
C      1  0.5446750000000  0.5457540000000  0.4639500000000 1.0
C      1  0.4964580000000  0.5449480000000  0.4850510000000 1.0
C      1  0.4650750000000  0.5277710000000  0.5144720000000 1.0
C      1  0.4542230000000  0.4970320000000  0.4846410000000 1.0
C      1  0.4711760000000  0.4676720000000  0.5127630000000 1.0
C      1  0.5071330000000  0.4540290000000  0.4868550000000 1.0
C      1  0.5355410000000  0.4721430000000  0.5143560000000 1.0
C      1  0.5445290000000  0.5049230000000  0.4852700000000 1.0
C      1  0.5292100000000  0.5357210000000  0.5145880000000 1.0
C      1  0.5585040000000  0.4534920000000  0.5284620000000 1.0
C      1  0.5727690000000  0.5087210000000  0.4713340000000 1.0
C      1  0.5472060000000  0.5571780000000  0.5255840000000 1.0
C      1  0.4928300000000  0.5739130000000  0.4765660000000 1.0
C      1  0.4431650000000  0.5451200000000  0.5270300000000 1.0
C      1  0.4254800000000  0.4935040000000  0.4753780000000 1.0
C      1  0.4547010000000  0.4437910000000  0.5265440000000 1.0
C      1  0.5082850000000  0.4261090000000  0.4758870000000 1.0
C      1  0.5829710000000  0.5061500000000  0.4996200000000 1.0
C      1  0.5549360000000  0.5632380000000  0.4982880000000 1.0
C      1  0.4942510000000  0.5840000000000  0.5037240000000 1.0
C      1  0.4363580000000  0.5546730000000  0.4952450000000 1.0
C      1  0.4166890000000  0.4943300000000  0.5035820000000 1.0
C      1  0.4462830000000  0.4346520000000  0.4960010000000 1.0
C      1  0.5074060000000  0.4171960000000  0.5045690000000 1.0
C      1  0.5644200000000  0.4473570000000  0.4995970000000 1.0
C      1  0.5009770000000  0.5177300000000  0.5400800000000 1.0
C      1  0.4867650000000  0.5136550000000  0.4516390000000 1.0
C      1  0.4805450000000  0.5023960000000  0.5480430000000 1.0
C      1  0.4839400000000  0.4852020000000  0.4550710000000 1.0
C      1  0.4972980000000  0.4791720000000  0.5475910000000 1.0
C      1  0.5136830000000  0.4824140000000  0.4526270000000 1.0
C      1  0.5192460000000  0.4972780000000  0.5487420000000 1.0
C      1  0.5154850000000  0.5124640000000  0.4546030000000 1.0
C      1  0.4304010000000  0.4588150000000  0.5345050000000 1.0
C      1  0.4797860000000  0.4248970000000  0.4641990000000 1.0
C      1  0.5415240000000  0.4297250000000  0.5355770000000 1.0
C      1  0.5786130000000  0.4803170000000  0.4646250000000 1.0
C      1  0.5704770000000  0.5420550000000  0.5358130000000 1.0
C      1  0.5195000000000  0.5791860000000  0.4643880000000 1.0
C      1  0.4588020000000  0.5694660000000  0.5352750000000 1.0
C      1  0.4241310000000  0.5208620000000  0.4631700000000 1.0
C      1  0.5577550000000  0.4745650000000  0.4457630000000 1.0
C      1  0.5583920000000  0.5234150000000  0.5539680000000 1.0
C      1  0.5233030000000  0.5573330000000  0.4461560000000 1.0
C      1  0.4776520000000  0.5587890000000  0.5544240000000 1.0
C      1  0.4464330000000  0.5237940000000  0.4434960000000 1.0
C      1  0.4411550000000  0.4772210000000  0.5533110000000 1.0
C      1  0.4737920000000  0.4453790000000  0.4439310000000 1.0
C      1  0.5227720000000  0.4409780000000  0.5539370000000 1.0
C      1  0.5277430000000  0.4457580000000  0.4443050000000 1.0
C      1  0.5593800000000  0.4748080000000  0.5511860000000 1.0
C      1  0.5580080000000  0.5254390000000  0.4479300000000 1.0
C      1  0.5196050000000  0.5579320000000  0.5550510000000 1.0
C      1  0.4658110000000  0.5470080000000  0.4455160000000 1.0
C      1  0.4404790000000  0.5253490000000  0.5498280000000 1.0
C      1  0.4519750000000  0.4639180000000  0.4471860000000 1.0
C      1  0.4740580000000  0.4398020000000  0.5489620000000 1.0
C      1  0.4713830000000  0.5313280000000  0.4871160000000 1.0
C      1  0.4577810000000  0.5006570000000  0.5135160000000 1.0
C      1  0.4678500000000  0.4718550000000  0.4832940000000 1.0
C      1  0.4989950000000  0.4586860000000  0.5140100000000 1.0
C      1  0.5302570000000  0.4681550000000  0.4867450000000 1.0
C      1  0.5434940000000  0.4985990000000  0.5127460000000 1.0
C      1  0.5321770000000  0.5297570000000  0.4867450000000 1.0
C      1  0.5023650000000  0.5430440000000  0.5134470000000 1.0
C      1  0.5023940000000  0.4502080000000  0.4320540000000 1.0
C      1  0.5361010000000  0.4652950000000  0.5650140000000 1.0
C      1  0.5483450000000  0.5020370000000  0.4346420000000 1.0
C      1  0.5323720000000  0.5354040000000  0.5668530000000 1.0
C      1  0.4960270000000  0.5498070000000  0.4364070000000 1.0
C      1  0.4642740000000  0.5338360000000  0.5644590000000 1.0
C      1  0.4515370000000  0.4950810000000  0.4355570000000 1.0
C      1  0.4653160000000  0.4631140000000  0.5651140000000 1.0
C      1  0.5123770000000  0.5184830000000  0.5815050000000 1.0
C      1  0.4936830000000  0.5246100000000  0.4236040000000 1.0
C      1  0.4820610000000  0.5118300000000  0.5767470000000 1.0
C      1  0.4757360000000  0.4872300000000  0.4226650000000 1.0
C      1  0.4878680000000  0.4767310000000  0.5777870000000 1.0
C      1  0.5057360000000  0.4792790000000  0.4210660000000 1.0
C      1  0.5205630000000  0.4897080000000  0.5786840000000 1.0
C      1  0.5212280000000  0.5074440000000  0.4220090000000 1.0
C      1  0.4246000000000  0.4677390000000  0.5077140000000 1.0
C      1  0.4707650000000  0.4223410000000  0.4906370000000 1.0
C      1  0.5339730000000  0.4250110000000  0.5086850000000 1.0
C      1  0.5770160000000  0.4707750000000  0.4914220000000 1.0
C      1  0.5755470000000  0.5307820000000  0.5100870000000 1.0
C      1  0.5316450000000  0.5760720000000  0.4898540000000 1.0
C      1  0.4684510000000  0.5759650000000  0.5094860000000 1.0
C      1  0.4224780000000  0.5310280000000  0.4896170000000 1.0
C      1  0.5019580000000  0.5014450000000  0.4854580000000 1.0
C      1  0.5004830000000  0.5032140000000  0.5110590000000 1.0
END
