TITL C-2441166-8118-1437 0.00873267244177805 125000 -12131.4889493321 0 0 85 (C1) n - 1
REM
REM in /home/bkarasulu/work/CARBON/AIRSS/Generating-Clusters/ReaxFF-fromJPCA2015/Units_Real/with-SteepDescent/Higher-Symm
REM
REM
REM
REM
REM
REM ./C.cell (1df0a924f5614ab8850e4351716899ee)
REM
REM compiler GCC version 9.2.1 20190827 (Red Hat 9.2.1-1)
REM options -cpp -mtune=generic -march=x86-64 -g -O0 -fpre-include=/usr/include/finclude/math-vector-fortran.h
REM seed 1591657525 -310736501 1893497376 -743359211 -301869996 1606508427 -72975984 -558126709 1953818439 351352457 1842685209 -1398947083 996877912 227679664 1228776904 -169823627 198651859 -672345809 -1000334186 1778133736 -1489785908 -1949389543 482909129 -1518037179 -763904882 -1489443622 1354285046 1157895755 -1841307733 647320005 1967163484 -104369435 2048891344
REM
CELL 1.54180   50.00000   50.00000   50.00000   90.00000   90.00000   90.00000
LATT -1
SFAC C  
C      1  0.4827040000000  0.5685260000000  0.5427020000000 1.0
C      1  0.4831960000000  0.5582250000000  0.4479810000000 1.0
C      1  0.4792130000000  0.4682160000000  0.4237750000000 1.0
C      1  0.4848160000000  0.4207410000000  0.5055640000000 1.0
C      1  0.4792890000000  0.4810060000000  0.5799740000000 1.0
C      1  0.4783090000000  0.4513880000000  0.5692950000000 1.0
C      1  0.4849510000000  0.5449890000000  0.5622810000000 1.0
C      1  0.4853120000000  0.5728980000000  0.4757090000000 1.0
C      1  0.4768270000000  0.4981730000000  0.4144380000000 1.0
C      1  0.4862680000000  0.4267050000000  0.4760170000000 1.0
C      1  0.5077560000000  0.5426130000000  0.4446340000000 1.0
C      1  0.5019520000000  0.4619500000000  0.4409290000000 1.0
C      1  0.5041470000000  0.4352900000000  0.5213960000000 1.0
C      1  0.5035710000000  0.4943410000000  0.5706710000000 1.0
C      1  0.5056450000000  0.5644090000000  0.5254060000000 1.0
C      1  0.5150090000000  0.4295670000000  0.4657620000000 1.0
C      1  0.5044780000000  0.4413230000000  0.5677520000000 1.0
C      1  0.5141560000000  0.5369060000000  0.5691920000000 1.0
C      1  0.5138980000000  0.5783740000000  0.4833480000000 1.0
C      1  0.5025900000000  0.5087350000000  0.4111610000000 1.0
C      1  0.4624420000000  0.5278000000000  0.5631190000000 1.0
C      1  0.4630080000000  0.5684510000000  0.4935890000000 1.0
C      1  0.4586290000000  0.5141900000000  0.4315070000000 1.0
C      1  0.4632320000000  0.4400530000000  0.4655890000000 1.0
C      1  0.4608450000000  0.4487140000000  0.5459100000000 1.0
C      1  0.5314320000000  0.4748430000000  0.5075360000000 1.0
C      1  0.5299060000000  0.4989540000000  0.5256570000000 1.0
C      1  0.5310060000000  0.5253640000000  0.5096930000000 1.0
C      1  0.5319360000000  0.5164600000000  0.4794910000000 1.0
C      1  0.5295510000000  0.4864670000000  0.4774690000000 1.0
C      1  0.5328170000000  0.5597540000000  0.4722440000000 1.0
C      1  0.5207260000000  0.5013560000000  0.4295580000000 1.0
C      1  0.5337550000000  0.4394770000000  0.4853190000000 1.0
C      1  0.5225140000000  0.4582460000000  0.5565310000000 1.0
C      1  0.5340450000000  0.5414840000000  0.5489460000000 1.0
C      1  0.4625020000000  0.4326110000000  0.5199050000000 1.0
C      1  0.4588500000000  0.4981160000000  0.5705300000000 1.0
C      1  0.4606650000000  0.5667400000000  0.5238000000000 1.0
C      1  0.4598790000000  0.5419170000000  0.4433180000000 1.0
C      1  0.4593470000000  0.4597800000000  0.4419540000000 1.0
C      1  0.4289510000000  0.4916000000000  0.4772140000000 1.0
C      1  0.4298910000000  0.4742990000000  0.5008310000000 1.0
C      1  0.4292270000000  0.4931150000000  0.5232740000000 1.0
C      1  0.4297030000000  0.5209400000000  0.5140950000000 1.0
C      1  0.4291430000000  0.5200890000000  0.4847120000000 1.0
C      1  0.5591880000000  0.4537040000000  0.4803420000000 1.0
C      1  0.5618020000000  0.4755000000000  0.5423080000000 1.0
C      1  0.5592070000000  0.5264070000000  0.5451850000000 1.0
C      1  0.5587280000000  0.5519910000000  0.4857570000000 1.0
C      1  0.5631710000000  0.4955700000000  0.4524610000000 1.0
C      1  0.5261830000000  0.5110890000000  0.5759290000000 1.0
C      1  0.5267720000000  0.5765930000000  0.5098830000000 1.0
C      1  0.5301270000000  0.5291110000000  0.4314360000000 1.0
C      1  0.5261620000000  0.4473200000000  0.4454640000000 1.0
C      1  0.5293400000000  0.4362830000000  0.5377390000000 1.0
C      1  0.4849920000000  0.4746640000000  0.4983140000000 1.0
C      1  0.4835640000000  0.4906800000000  0.5239920000000 1.0
C      1  0.4848760000000  0.5206870000000  0.5162960000000 1.0
C      1  0.4846170000000  0.5223390000000  0.4857160000000 1.0
C      1  0.4831520000000  0.4942560000000  0.4748320000000 1.0
C      1  0.5767680000000  0.4870890000000  0.5205310000000 1.0
C      1  0.5740680000000  0.5172500000000  0.5209920000000 1.0
C      1  0.5729490000000  0.5266820000000  0.4937420000000 1.0
C      1  0.5769160000000  0.5004040000000  0.4774460000000 1.0
C      1  0.5748830000000  0.4756570000000  0.4930960000000 1.0
C      1  0.4469250000000  0.4877330000000  0.4407060000000 1.0
C      1  0.4498100000000  0.4395020000000  0.4924760000000 1.0
C      1  0.4475630000000  0.4745380000000  0.5546660000000 1.0
C      1  0.4485650000000  0.5448250000000  0.5419140000000 1.0
C      1  0.4476060000000  0.5540840000000  0.4699050000000 1.0
C      1  0.4556850000000  0.4882480000000  0.5322870000000 1.0
C      1  0.4563990000000  0.5271590000000  0.5216050000000 1.0
C      1  0.4562560000000  0.5293460000000  0.4811860000000 1.0
C      1  0.4552850000000  0.4906470000000  0.4667170000000 1.0
C      1  0.4569220000000  0.4656730000000  0.4984770000000 1.0
C      1  0.5115450000000  0.4554850000000  0.5024630000000 1.0
C      1  0.5085530000000  0.4857930000000  0.5426110000000 1.0
C      1  0.5100850000000  0.5368700000000  0.5240740000000 1.0
C      1  0.5124490000000  0.5362920000000  0.4711700000000 1.0
C      1  0.5077950000000  0.4864880000000  0.4567550000000 1.0
C      1  0.5484910000000  0.5008790000000  0.5551730000000 1.0
C      1  0.5469130000000  0.5541700000000  0.5116840000000 1.0
C      1  0.5495440000000  0.5208440000000  0.4524000000000 1.0
C      1  0.5486920000000  0.4678190000000  0.4565600000000 1.0
C      1  0.5493630000000  0.4551360000000  0.5259350000000 1.0
END
