TITL C-2441161-5029-332 0.00168175822627221 125000 -3700.86314893285 0 0 28 (C1) n - 1
REM
REM in /home/bkarasulu/work/CARBON/AIRSS/Generating-Clusters/ReaxFF-fromJPCA2015/Units_Real/with-SteepDescent/Higher-Symm
REM
REM
REM
REM
REM
REM ./C.cell (1df0a924f5614ab8850e4351716899ee)
REM
REM compiler GCC version 9.2.1 20190827 (Red Hat 9.2.1-1)
REM options -cpp -mtune=generic -march=x86-64 -g -O0 -fpre-include=/usr/include/finclude/math-vector-fortran.h
REM seed -845436672 -2109170515 -1319703641 -911904287 -2146805663 2043020269 474068709 681985533 -969842482 1874322349 -1588350180 1777435806 853831423 1743077201 -1659384751 -565580255 726797099 1450786345 549161679 619850760 538139806 -431575564 1427494533 -232731723 504382097 -1044290013 816876078 -1260340595 625542244 460280863 -27445975 -1045282901 -331531953
REM
CELL 1.54180   50.00000   50.00000   50.00000   90.00000   90.00000   90.00000
LATT -1
SFAC C  
C      1  0.4647320000000  0.4444770000000  0.4782680000000 1.0
C      1  0.5419470000000  0.4548890000000  0.4764120000000 1.0
C      1  0.5478220000000  0.5275350000000  0.4798490000000 1.0
C      1  0.4990260000000  0.5491290000000  0.4778540000000 1.0
C      1  0.4408330000000  0.5015330000000  0.4824650000000 1.0
C      1  0.5566730000000  0.5492050000000  0.4852770000000 1.0
C      1  0.4818770000000  0.5542100000000  0.5018300000000 1.0
C      1  0.4406820000000  0.4969020000000  0.5068100000000 1.0
C      1  0.4878590000000  0.4360970000000  0.4824380000000 1.0
C      1  0.5599940000000  0.4702390000000  0.4839240000000 1.0
C      1  0.4831910000000  0.5272550000000  0.5491230000000 1.0
C      1  0.4695490000000  0.4997900000000  0.5504710000000 1.0
C      1  0.4910510000000  0.4795680000000  0.5531310000000 1.0
C      1  0.5166410000000  0.4939290000000  0.5549770000000 1.0
C      1  0.5126460000000  0.5232770000000  0.5556890000000 1.0
C      1  0.4731600000000  0.5381760000000  0.4767490000000 1.0
C      1  0.4676250000000  0.5094520000000  0.4781090000000 1.0
C      1  0.4855710000000  0.4612710000000  0.4708310000000 1.0
C      1  0.5410370000000  0.4812110000000  0.4656330000000 1.0
C      1  0.5220870000000  0.5302770000000  0.4706970000000 1.0
C      1  0.5270890000000  0.4961290000000  0.5272560000000 1.0
C      1  0.5313500000000  0.5262620000000  0.5318400000000 1.0
C      1  0.4822530000000  0.5411010000000  0.5258360000000 1.0
C      1  0.4524940000000  0.4969500000000  0.5293030000000 1.0
C      1  0.4935540000000  0.4617640000000  0.5285640000000 1.0
C      1  0.5057910000000  0.4824330000000  0.5108790000000 1.0
C      1  0.5187150000000  0.5008040000000  0.4697200000000 1.0
C      1  0.4940580000000  0.4896810000000  0.4825500000000 1.0
END
