TITL C-2441166-8118-397 0.198690875074417 125000 -24027.3690923257 0 0 195 (C1) n - 1
REM
REM in /home/bkarasulu/work/CARBON/AIRSS/Generating-Clusters/ReaxFF-fromJPCA2015/Units_Real/with-SteepDescent/Higher-Symm
REM
REM
REM
REM
REM
REM ./C.cell (1df0a924f5614ab8850e4351716899ee)
REM
REM compiler GCC version 9.2.1 20190827 (Red Hat 9.2.1-1)
REM options -cpp -mtune=generic -march=x86-64 -g -O0 -fpre-include=/usr/include/finclude/math-vector-fortran.h
REM seed 1453520274 -2018671295 -1913880815 -1846681754 1772397129 -1401766743 -402533183 1791266321 -777044721 -1703358791 -1473966976 -2087428241 2112174563 -160490800 705364637 -696881080 -217079617 -612292408 1165809640 1080499246 -613073409 -1301173989 -912275034 -770567911 -1669318602 847355094 -812417159 336869033 -945153484 -1229249078 -914995523 -1633012888 1619352520
REM
CELL 1.54180   50.00000   50.00000   50.00000   90.00000   90.00000   90.00000
LATT -1
SFAC C  
C      1  0.3917160000000  0.5190300000000  0.5350060000000 1.0
C      1  0.3899410000000  0.5387930000000  0.5199770000000 1.0
C      1  0.3967750000000  0.5538720000000  0.4972710000000 1.0
C      1  0.3967400000000  0.5407180000000  0.4703970000000 1.0
C      1  0.3930930000000  0.5115250000000  0.4704930000000 1.0
C      1  0.3973890000000  0.4900150000000  0.4515090000000 1.0
C      1  0.3960910000000  0.4630090000000  0.4618970000000 1.0
C      1  0.3932210000000  0.4520820000000  0.4875890000000 1.0
C      1  0.3984030000000  0.4552160000000  0.5148110000000 1.0
C      1  0.3997820000000  0.4677330000000  0.5401730000000 1.0
C      1  0.3974520000000  0.4957830000000  0.5503040000000 1.0
C      1  0.4801870000000  0.5528810000000  0.4028920000000 1.0
C      1  0.4695290000000  0.5012720000000  0.3912870000000 1.0
C      1  0.4713090000000  0.4463300000000  0.4074860000000 1.0
C      1  0.4730220000000  0.4007180000000  0.4542480000000 1.0
C      1  0.4795610000000  0.3918500000000  0.5198440000000 1.0
C      1  0.4765080000000  0.4212120000000  0.5672950000000 1.0
C      1  0.4703970000000  0.4680160000000  0.6048550000000 1.0
C      1  0.4837810000000  0.5379670000000  0.6003140000000 1.0
C      1  0.4715400000000  0.5814970000000  0.5707490000000 1.0
C      1  0.4686280000000  0.6079610000000  0.5150450000000 1.0
C      1  0.4739120000000  0.5963490000000  0.4539730000000 1.0
C      1  0.4963940000000  0.5468390000000  0.5004740000000 1.0
C      1  0.5086610000000  0.5477400000000  0.4746240000000 1.0
C      1  0.5032120000000  0.5291900000000  0.4556890000000 1.0
C      1  0.5023040000000  0.4878700000000  0.4485990000000 1.0
C      1  0.5064230000000  0.4651450000000  0.4614750000000 1.0
C      1  0.4957370000000  0.4560430000000  0.4859920000000 1.0
C      1  0.5068660000000  0.4497840000000  0.5111220000000 1.0
C      1  0.4957700000000  0.4683510000000  0.5307390000000 1.0
C      1  0.5072820000000  0.4896000000000  0.5445660000000 1.0
C      1  0.5016040000000  0.5195600000000  0.5419650000000 1.0
C      1  0.5069400000000  0.5403550000000  0.5251900000000 1.0
C      1  0.5301300000000  0.4589320000000  0.4504140000000 1.0
C      1  0.5344200000000  0.4364750000000  0.4680280000000 1.0
C      1  0.5265890000000  0.4291790000000  0.5113860000000 1.0
C      1  0.5270390000000  0.4547390000000  0.5539840000000 1.0
C      1  0.5271920000000  0.4816130000000  0.5639000000000 1.0
C      1  0.5199390000000  0.5220070000000  0.5649920000000 1.0
C      1  0.5262820000000  0.5582060000000  0.5361970000000 1.0
C      1  0.5327520000000  0.5693830000000  0.5097490000000 1.0
C      1  0.5300190000000  0.5638340000000  0.4683750000000 1.0
C      1  0.5255380000000  0.5254710000000  0.4383120000000 1.0
C      1  0.5247520000000  0.4972640000000  0.4296940000000 1.0
C      1  0.5109320000000  0.4199970000000  0.4198360000000 1.0
C      1  0.5088220000000  0.3944300000000  0.4790240000000 1.0
C      1  0.5049810000000  0.3877770000000  0.5356700000000 1.0
C      1  0.5134890000000  0.4339850000000  0.5928450000000 1.0
C      1  0.5079400000000  0.4953990000000  0.6097060000000 1.0
C      1  0.5071300000000  0.5563280000000  0.5995090000000 1.0
C      1  0.5096790000000  0.6012490000000  0.5522560000000 1.0
C      1  0.5064700000000  0.6131170000000  0.4915640000000 1.0
C      1  0.5116370000000  0.5795680000000  0.4282000000000 1.0
C      1  0.4953560000000  0.5321760000000  0.3885690000000 1.0
C      1  0.5091100000000  0.4779900000000  0.3920970000000 1.0
C      1  0.5646570000000  0.5742820000000  0.4424500000000 1.0
C      1  0.5643130000000  0.5310950000000  0.4140430000000 1.0
C      1  0.5624130000000  0.4801050000000  0.4087690000000 1.0
C      1  0.5636460000000  0.4335140000000  0.4348040000000 1.0
C      1  0.5645000000000  0.4097470000000  0.4819250000000 1.0
C      1  0.5590750000000  0.4119760000000  0.5353590000000 1.0
C      1  0.5651770000000  0.4454200000000  0.5788570000000 1.0
C      1  0.5637310000000  0.4956660000000  0.5925060000000 1.0
C      1  0.5610160000000  0.5458890000000  0.5802750000000 1.0
C      1  0.5624510000000  0.5843080000000  0.5432220000000 1.0
C      1  0.5628940000000  0.5934860000000  0.4922490000000 1.0
C      1  0.5461180000000  0.5367520000000  0.5324480000000 1.0
C      1  0.5554760000000  0.5444700000000  0.5059550000000 1.0
C      1  0.5484070000000  0.5454910000000  0.4770750000000 1.0
C      1  0.5451510000000  0.5247740000000  0.4593690000000 1.0
C      1  0.5597480000000  0.5008850000000  0.4609570000000 1.0
C      1  0.5467310000000  0.4769430000000  0.4639890000000 1.0
C      1  0.5553230000000  0.4568100000000  0.4820530000000 1.0
C      1  0.5465620000000  0.4489640000000  0.5086120000000 1.0
C      1  0.5431240000000  0.4623550000000  0.5318370000000 1.0
C      1  0.5542190000000  0.4885000000000  0.5426680000000 1.0
C      1  0.5435780000000  0.5156780000000  0.5489600000000 1.0
C      1  0.4587670000000  0.4685150000000  0.4220690000000 1.0
C      1  0.4506030000000  0.4151000000000  0.4440900000000 1.0
C      1  0.4410050000000  0.4127430000000  0.4902730000000 1.0
C      1  0.4594210000000  0.4233380000000  0.5449600000000 1.0
C      1  0.4549150000000  0.4569810000000  0.5836670000000 1.0
C      1  0.4624090000000  0.5078130000000  0.5822690000000 1.0
C      1  0.4578650000000  0.5578310000000  0.5730300000000 1.0
C      1  0.4555420000000  0.5865090000000  0.5291840000000 1.0
C      1  0.4539040000000  0.5931000000000  0.4743560000000 1.0
C      1  0.4674000000000  0.5550700000000  0.4444160000000 1.0
C      1  0.4519170000000  0.5194030000000  0.4038810000000 1.0
C      1  0.4991800000000  0.4717060000000  0.5975300000000 1.0
C      1  0.5031920000000  0.5172930000000  0.5896900000000 1.0
C      1  0.4993910000000  0.5763860000000  0.5608900000000 1.0
C      1  0.4974450000000  0.6026050000000  0.5144030000000 1.0
C      1  0.4991760000000  0.5992490000000  0.4669550000000 1.0
C      1  0.4909350000000  0.5589750000000  0.4288190000000 1.0
C      1  0.4957510000000  0.5023590000000  0.4011810000000 1.0
C      1  0.4993140000000  0.4457760000000  0.4158900000000 1.0
C      1  0.5001100000000  0.4111450000000  0.4564840000000 1.0
C      1  0.4872700000000  0.4043990000000  0.4956570000000 1.0
C      1  0.5048700000000  0.4320020000000  0.5650570000000 1.0
C      1  0.5752930000000  0.4260070000000  0.4600750000000 1.0
C      1  0.5731700000000  0.4188880000000  0.5086880000000 1.0
C      1  0.5631280000000  0.4287770000000  0.5564330000000 1.0
C      1  0.5751950000000  0.4736920000000  0.5772170000000 1.0
C      1  0.5748170000000  0.5199790000000  0.5798510000000 1.0
C      1  0.5671650000000  0.5623290000000  0.5592960000000 1.0
C      1  0.5741220000000  0.5822130000000  0.5160360000000 1.0
C      1  0.5745310000000  0.5776470000000  0.4696680000000 1.0
C      1  0.5761560000000  0.5482780000000  0.4352000000000 1.0
C      1  0.5734930000000  0.5044120000000  0.4183030000000 1.0
C      1  0.5741060000000  0.4602350000000  0.4285190000000 1.0
C      1  0.4613960000000  0.4715170000000  0.4644950000000 1.0
C      1  0.4687460000000  0.4596510000000  0.4888790000000 1.0
C      1  0.4556520000000  0.4607800000000  0.5145470000000 1.0
C      1  0.4688250000000  0.4723490000000  0.5372350000000 1.0
C      1  0.4664600000000  0.4968670000000  0.5545880000000 1.0
C      1  0.4733330000000  0.5215310000000  0.5414320000000 1.0
C      1  0.4598610000000  0.5382830000000  0.5233860000000 1.0
C      1  0.4693160000000  0.5466030000000  0.4977200000000 1.0
C      1  0.4630810000000  0.5402010000000  0.4693890000000 1.0
C      1  0.4780630000000  0.5183330000000  0.4578530000000 1.0
C      1  0.4741340000000  0.4916060000000  0.4487360000000 1.0
C      1  0.4485230000000  0.6061040000000  0.4950880000000 1.0
C      1  0.4554850000000  0.5793270000000  0.4367910000000 1.0
C      1  0.4522070000000  0.5477200000000  0.4045470000000 1.0
C      1  0.4505660000000  0.4798230000000  0.3958130000000 1.0
C      1  0.4495920000000  0.4300350000000  0.4190230000000 1.0
C      1  0.4626970000000  0.3956040000000  0.4820980000000 1.0
C      1  0.4539860000000  0.4028590000000  0.5296770000000 1.0
C      1  0.4531770000000  0.4298940000000  0.5838750000000 1.0
C      1  0.4524870000000  0.4912110000000  0.6043430000000 1.0
C      1  0.4556880000000  0.5448280000000  0.5962300000000 1.0
C      1  0.4485420000000  0.5922010000000  0.5564940000000 1.0
C      1  0.5404960000000  0.3953950000000  0.4758130000000 1.0
C      1  0.5336620000000  0.3950240000000  0.5399700000000 1.0
C      1  0.5416920000000  0.4384620000000  0.5958160000000 1.0
C      1  0.5405370000000  0.4934150000000  0.6100090000000 1.0
C      1  0.5357510000000  0.5492810000000  0.5988320000000 1.0
C      1  0.5372350000000  0.5986510000000  0.5527010000000 1.0
C      1  0.5358650000000  0.6063150000000  0.4904780000000 1.0
C      1  0.5412940000000  0.5846380000000  0.4276810000000 1.0
C      1  0.5396380000000  0.5410110000000  0.4013740000000 1.0
C      1  0.5381400000000  0.4774350000000  0.3925720000000 1.0
C      1  0.5394120000000  0.4228530000000  0.4215220000000 1.0
C      1  0.4356960000000  0.5663540000000  0.5581460000000 1.0
C      1  0.4332490000000  0.5880130000000  0.5103750000000 1.0
C      1  0.4352390000000  0.5773020000000  0.4577850000000 1.0
C      1  0.4291880000000  0.5469680000000  0.4236610000000 1.0
C      1  0.4326360000000  0.4984040000000  0.4106350000000 1.0
C      1  0.4358130000000  0.4526230000000  0.4295410000000 1.0
C      1  0.4339450000000  0.4211870000000  0.4670900000000 1.0
C      1  0.4333390000000  0.4166110000000  0.5154950000000 1.0
C      1  0.4346250000000  0.4311110000000  0.5608520000000 1.0
C      1  0.4345200000000  0.4776940000000  0.5859820000000 1.0
C      1  0.4388100000000  0.5247400000000  0.5841920000000 1.0
C      1  0.4236540000000  0.4977920000000  0.4391400000000 1.0
C      1  0.4353320000000  0.4670880000000  0.4550080000000 1.0
C      1  0.4197730000000  0.4493160000000  0.4734280000000 1.0
C      1  0.4306190000000  0.4461900000000  0.5190200000000 1.0
C      1  0.4250780000000  0.4544350000000  0.5459860000000 1.0
C      1  0.4250820000000  0.4944660000000  0.5616510000000 1.0
C      1  0.4298370000000  0.5219810000000  0.5571270000000 1.0
C      1  0.4338550000000  0.5462220000000  0.5340590000000 1.0
C      1  0.4227310000000  0.5605890000000  0.5090150000000 1.0
C      1  0.4237780000000  0.5507430000000  0.4651720000000 1.0
C      1  0.4299330000000  0.5281340000000  0.4465660000000 1.0
C      1  0.5899030000000  0.5351510000000  0.4565630000000 1.0
C      1  0.5862530000000  0.5015720000000  0.4471350000000 1.0
C      1  0.5893780000000  0.4712860000000  0.4500230000000 1.0
C      1  0.5872350000000  0.4504450000000  0.4720120000000 1.0
C      1  0.5889370000000  0.4428470000000  0.5043090000000 1.0
C      1  0.5948050000000  0.4667220000000  0.5217000000000 1.0
C      1  0.5832400000000  0.4848090000000  0.5513000000000 1.0
C      1  0.5897790000000  0.5161140000000  0.5545720000000 1.0
C      1  0.5898320000000  0.5368950000000  0.5354460000000 1.0
C      1  0.5863120000000  0.5551530000000  0.5109660000000 1.0
C      1  0.5893910000000  0.5538620000000  0.4773220000000 1.0
C      1  0.5238370000000  0.4064760000000  0.4408400000000 1.0
C      1  0.5271790000000  0.4029990000000  0.4995240000000 1.0
C      1  0.5129550000000  0.4028170000000  0.5589030000000 1.0
C      1  0.5223130000000  0.4580420000000  0.6054760000000 1.0
C      1  0.5267520000000  0.5191220000000  0.6107830000000 1.0
C      1  0.5200540000000  0.5731910000000  0.5808330000000 1.0
C      1  0.5220880000000  0.6077760000000  0.5283680000000 1.0
C      1  0.5275320000000  0.5915300000000  0.4656090000000 1.0
C      1  0.5288460000000  0.5687110000000  0.4074690000000 1.0
C      1  0.5212760000000  0.5223820000000  0.3909040000000 1.0
C      1  0.5227390000000  0.4539670000000  0.4010640000000 1.0
C      1  0.4633160000000  0.5012130000000  0.4997170000000 1.0
C      1  0.4099110000000  0.5026330000000  0.4947650000000 1.0
C      1  0.5406870000000  0.5007570000000  0.5004270000000 1.0
C      1  0.5932080000000  0.4949690000000  0.5038460000000 1.0
C      1  0.4892300000000  0.5008610000000  0.4992460000000 1.0
C      1  0.4380970000000  0.5015680000000  0.4989000000000 1.0
C      1  0.5150590000000  0.5007440000000  0.4993850000000 1.0
C      1  0.5663680000000  0.4995720000000  0.5014400000000 1.0
END
