TITL C-2441163-1170-970 0.000823577784327524 125000 -1027.72710094314 0 0 8 (D4h) n - 1
REM
REM in /home/bkarasulu/work/CARBON/AIRSS/Generating-Clusters/ReaxFF-fromJPCA2015/Units_Real/with-SteepDescent/Higher-Symm
REM
REM
REM
REM
REM
REM ./C.cell (1df0a924f5614ab8850e4351716899ee)
REM
REM compiler GCC version 9.2.1 20190827 (Red Hat 9.2.1-1)
REM options -cpp -mtune=generic -march=x86-64 -g -O0 -fpre-include=/usr/include/finclude/math-vector-fortran.h
REM seed 1685869216 -344346423 -986167641 -1862462416 1404807484 -1320555882 -427445915 1420705960 -1632213525 58384545 370764082 1629889511 1871606553 -840909222 -1737445922 1292932949 1833086586 931601881 676543296 1363289353 458828438 -1987326524 -287637132 441794801 -1426899103 -597568355 1960518620 -1083418658 -3169419 972351349 34615588 333311903 235403852
REM
CELL 1.54180   50.00000   50.00000   50.00000   90.00000   90.00000   90.00000
LATT -1
SFAC C  
C      1  0.5277360000000  0.5000000000000  0.5115080000000 1.0
C      1  0.4884920000000  0.5000000000000  0.5277700000000 1.0
C      1  0.4721920000000  0.5000000000000  0.4884750000000 1.0
C      1  0.5114800000000  0.5000000000000  0.4722350000000 1.0
C      1  0.5316030000000  0.5000000000000  0.4868820000000 1.0
C      1  0.4869070000000  0.5000000000000  0.4685240000000 1.0
C      1  0.4685280000000  0.5000000000000  0.5129920000000 1.0
C      1  0.5130630000000  0.5000000000000  0.5316130000000 1.0
END
