TITL C-2441156-4686-523 0.0551963811932536 125000 -23673.8507214536 0 0 170 (C1) n - 1
REM
REM in /home/bkarasulu/work/CARBON/AIRSS/Generating-Clusters/ReaxFF-fromJPCA2015/Units_Real/with-SteepDescent/Higher-Symm
REM
REM
REM
REM
REM
REM ./C.cell (1df0a924f5614ab8850e4351716899ee)
REM
REM compiler GCC version 9.2.1 20190827 (Red Hat 9.2.1-1)
REM options -cpp -mtune=generic -march=x86-64 -g -O0 -fpre-include=/usr/include/finclude/math-vector-fortran.h
REM seed 1948306892 -1825646035 2128808314 1143723961 824399416 -782573399 -729107990 -750852257 1457180064 1737636660 2096040768 -1041011610 1199980360 -1267400233 639090195 1161770676 1488791585 1935492230 -180937079 2025025693 704700295 -146389393 54023605 983625275 1704232870 1320563309 1269651599 -885617696 2120263773 779102540 -521946468 -627938651 -322338312
REM
CELL 1.54180   50.00000   50.00000   50.00000   90.00000   90.00000   90.00000
LATT -1
SFAC C  
C      1  0.5154690000000  0.4404750000000  0.4194900000000 1.0
C      1  0.5198660000000  0.5804640000000  0.4373630000000 1.0
C      1  0.5132500000000  0.5636970000000  0.5823600000000 1.0
C      1  0.5158210000000  0.4252270000000  0.5535710000000 1.0
C      1  0.4834080000000  0.4356330000000  0.4171210000000 1.0
C      1  0.4897890000000  0.5793150000000  0.4340220000000 1.0
C      1  0.4840430000000  0.5599440000000  0.5739450000000 1.0
C      1  0.4877400000000  0.4171730000000  0.5605410000000 1.0
C      1  0.4592140000000  0.4197450000000  0.4535660000000 1.0
C      1  0.4583750000000  0.5460390000000  0.4207900000000 1.0
C      1  0.4526690000000  0.5790760000000  0.5384840000000 1.0
C      1  0.4569550000000  0.4478840000000  0.5769560000000 1.0
C      1  0.5410750000000  0.4198640000000  0.4524300000000 1.0
C      1  0.5453230000000  0.5387610000000  0.4209440000000 1.0
C      1  0.5443250000000  0.5811110000000  0.5482130000000 1.0
C      1  0.5430650000000  0.4499410000000  0.5800110000000 1.0
C      1  0.5568090000000  0.5575230000000  0.5604700000000 1.0
C      1  0.5580930000000  0.4398270000000  0.5543860000000 1.0
C      1  0.5570710000000  0.4416490000000  0.4376490000000 1.0
C      1  0.5597830000000  0.5655850000000  0.4647190000000 1.0
C      1  0.4399950000000  0.5372560000000  0.5676550000000 1.0
C      1  0.4433230000000  0.4362840000000  0.5532250000000 1.0
C      1  0.4450890000000  0.4423590000000  0.4402190000000 1.0
C      1  0.4450120000000  0.5607850000000  0.4423950000000 1.0
C      1  0.6034420000000  0.4544600000000  0.4668690000000 1.0
C      1  0.6005430000000  0.5298470000000  0.4592770000000 1.0
C      1  0.6015370000000  0.5410820000000  0.5346330000000 1.0
C      1  0.6044300000000  0.4659960000000  0.5419200000000 1.0
C      1  0.3969780000000  0.4561610000000  0.4666170000000 1.0
C      1  0.4001040000000  0.5330150000000  0.4565360000000 1.0
C      1  0.3986540000000  0.5429220000000  0.5314520000000 1.0
C      1  0.3995500000000  0.4669480000000  0.5403140000000 1.0
C      1  0.5191320000000  0.5043770000000  0.6073630000000 1.0
C      1  0.5289590000000  0.3951620000000  0.4972730000000 1.0
C      1  0.5260290000000  0.5006150000000  0.3981620000000 1.0
C      1  0.5260520000000  0.6067120000000  0.5067790000000 1.0
C      1  0.4899910000000  0.5077930000000  0.6102020000000 1.0
C      1  0.4736740000000  0.3937930000000  0.4958990000000 1.0
C      1  0.4721200000000  0.5034150000000  0.3969620000000 1.0
C      1  0.4733630000000  0.6061350000000  0.5022620000000 1.0
C      1  0.5125330000000  0.5833580000000  0.5106460000000 1.0
C      1  0.5141060000000  0.4822540000000  0.5852280000000 1.0
C      1  0.5127420000000  0.4177320000000  0.4955600000000 1.0
C      1  0.5155560000000  0.5087530000000  0.4243650000000 1.0
C      1  0.4869120000000  0.5820980000000  0.5172370000000 1.0
C      1  0.4871530000000  0.4906150000000  0.5872350000000 1.0
C      1  0.4873710000000  0.4179490000000  0.4950650000000 1.0
C      1  0.4876630000000  0.5145650000000  0.4206990000000 1.0
C      1  0.5428730000000  0.4178340000000  0.5442010000000 1.0
C      1  0.5430870000000  0.4520460000000  0.4144930000000 1.0
C      1  0.5415610000000  0.5871870000000  0.4580990000000 1.0
C      1  0.5364350000000  0.5436430000000  0.5785530000000 1.0
C      1  0.4622810000000  0.4157630000000  0.5437130000000 1.0
C      1  0.4601600000000  0.4532740000000  0.4173470000000 1.0
C      1  0.4652150000000  0.5802020000000  0.4538480000000 1.0
C      1  0.4597030000000  0.5439970000000  0.5876290000000 1.0
C      1  0.5123820000000  0.4469020000000  0.5327780000000 1.0
C      1  0.5141100000000  0.4635190000000  0.4426740000000 1.0
C      1  0.5129800000000  0.5565110000000  0.4739310000000 1.0
C      1  0.5203960000000  0.5264830000000  0.5544240000000 1.0
C      1  0.4832190000000  0.4489640000000  0.5313270000000 1.0
C      1  0.4863590000000  0.4719050000000  0.4462800000000 1.0
C      1  0.4829520000000  0.5583170000000  0.4735730000000 1.0
C      1  0.4909360000000  0.5301250000000  0.5573650000000 1.0
C      1  0.4863360000000  0.4620640000000  0.4738900000000 1.0
C      1  0.4840270000000  0.5305270000000  0.4614980000000 1.0
C      1  0.4878460000000  0.5392520000000  0.5291450000000 1.0
C      1  0.4865280000000  0.4768780000000  0.5416450000000 1.0
C      1  0.5158020000000  0.4599670000000  0.4737380000000 1.0
C      1  0.5127740000000  0.5320130000000  0.4580500000000 1.0
C      1  0.5151040000000  0.5371640000000  0.5250410000000 1.0
C      1  0.5145290000000  0.4772240000000  0.5398520000000 1.0
C      1  0.4048470000000  0.4949830000000  0.5313870000000 1.0
C      1  0.4040410000000  0.4643180000000  0.4942710000000 1.0
C      1  0.4054700000000  0.5055000000000  0.4669480000000 1.0
C      1  0.4011180000000  0.5329050000000  0.5023070000000 1.0
C      1  0.5932670000000  0.4938780000000  0.5327450000000 1.0
C      1  0.5968100000000  0.4621800000000  0.4948860000000 1.0
C      1  0.5959350000000  0.5024600000000  0.4719830000000 1.0
C      1  0.5973130000000  0.5335170000000  0.5061770000000 1.0
C      1  0.4738570000000  0.4417880000000  0.5038020000000 1.0
C      1  0.4742010000000  0.4964490000000  0.4392860000000 1.0
C      1  0.4732560000000  0.5601510000000  0.5015100000000 1.0
C      1  0.4767930000000  0.5020640000000  0.5623010000000 1.0
C      1  0.5252870000000  0.4434240000000  0.5010300000000 1.0
C      1  0.5309960000000  0.4882240000000  0.4408580000000 1.0
C      1  0.5245150000000  0.5598460000000  0.5015570000000 1.0
C      1  0.5264130000000  0.4955580000000  0.5602350000000 1.0
C      1  0.4464930000000  0.5104710000000  0.4874120000000 1.0
C      1  0.4446980000000  0.5280830000000  0.5168750000000 1.0
C      1  0.4489810000000  0.4815350000000  0.5216470000000 1.0
C      1  0.4462610000000  0.4827070000000  0.4949250000000 1.0
C      1  0.5566460000000  0.5157550000000  0.4715520000000 1.0
C      1  0.5517910000000  0.5201930000000  0.5163720000000 1.0
C      1  0.5520030000000  0.4908030000000  0.5164410000000 1.0
C      1  0.5558960000000  0.4871160000000  0.4828840000000 1.0
C      1  0.4824530000000  0.4862830000000  0.4896020000000 1.0
C      1  0.4744780000000  0.5109530000000  0.4785760000000 1.0
C      1  0.4706900000000  0.5192050000000  0.5217770000000 1.0
C      1  0.4752600000000  0.4904710000000  0.5197250000000 1.0
C      1  0.5299470000000  0.4855880000000  0.4709380000000 1.0
C      1  0.5266890000000  0.5146860000000  0.4778220000000 1.0
C      1  0.5231150000000  0.5166360000000  0.5090410000000 1.0
C      1  0.5229110000000  0.4887910000000  0.5163900000000 1.0
C      1  0.4561020000000  0.3995380000000  0.5188050000000 1.0
C      1  0.4551540000000  0.4798050000000  0.4033730000000 1.0
C      1  0.4591400000000  0.6002330000000  0.4773580000000 1.0
C      1  0.4638250000000  0.5203580000000  0.6035160000000 1.0
C      1  0.5477330000000  0.4023720000000  0.5189780000000 1.0
C      1  0.5452670000000  0.4771870000000  0.3987490000000 1.0
C      1  0.5437630000000  0.6037260000000  0.4825740000000 1.0
C      1  0.5413340000000  0.5204360000000  0.5990260000000 1.0
C      1  0.5959810000000  0.5188760000000  0.5493670000000 1.0
C      1  0.6017910000000  0.4474700000000  0.5199050000000 1.0
C      1  0.5975450000000  0.4784560000000  0.4527500000000 1.0
C      1  0.6038610000000  0.5491240000000  0.4789210000000 1.0
C      1  0.3972910000000  0.5204110000000  0.5479250000000 1.0
C      1  0.4009920000000  0.4499820000000  0.5193780000000 1.0
C      1  0.4026120000000  0.4783740000000  0.4500150000000 1.0
C      1  0.4031220000000  0.5499780000000  0.4778000000000 1.0
C      1  0.4330170000000  0.5112990000000  0.4630990000000 1.0
C      1  0.4390190000000  0.5552810000000  0.5245000000000 1.0
C      1  0.4323050000000  0.4910770000000  0.5417010000000 1.0
C      1  0.4322710000000  0.4609850000000  0.4873750000000 1.0
C      1  0.5590360000000  0.5224380000000  0.4433310000000 1.0
C      1  0.5686870000000  0.5407070000000  0.5108110000000 1.0
C      1  0.5676500000000  0.4826770000000  0.5389450000000 1.0
C      1  0.5690340000000  0.4636760000000  0.4894260000000 1.0
C      1  0.4441990000000  0.5644070000000  0.4977360000000 1.0
C      1  0.4448530000000  0.5071450000000  0.5641960000000 1.0
C      1  0.4444430000000  0.4389070000000  0.5001370000000 1.0
C      1  0.4454670000000  0.4989770000000  0.4414360000000 1.0
C      1  0.5562810000000  0.5625600000000  0.4953020000000 1.0
C      1  0.5553960000000  0.4963560000000  0.5608410000000 1.0
C      1  0.5551410000000  0.4425360000000  0.4996010000000 1.0
C      1  0.5608030000000  0.4954120000000  0.4335730000000 1.0
C      1  0.4787290000000  0.5786600000000  0.5503510000000 1.0
C      1  0.4865210000000  0.4373200000000  0.5807300000000 1.0
C      1  0.4848230000000  0.4171930000000  0.4388750000000 1.0
C      1  0.4858690000000  0.5550220000000  0.4198960000000 1.0
C      1  0.5189420000000  0.5783550000000  0.5600450000000 1.0
C      1  0.5135210000000  0.4502330000000  0.5847270000000 1.0
C      1  0.5153410000000  0.4176390000000  0.4389890000000 1.0
C      1  0.5230950000000  0.5570150000000  0.4225700000000 1.0
C      1  0.5484720000000  0.4041300000000  0.4767300000000 1.0
C      1  0.5486450000000  0.5193660000000  0.3986100000000 1.0
C      1  0.5490380000000  0.5998200000000  0.5242460000000 1.0
C      1  0.5527830000000  0.4731100000000  0.5934410000000 1.0
C      1  0.4525540000000  0.4020260000000  0.4768110000000 1.0
C      1  0.4503110000000  0.5216420000000  0.4037610000000 1.0
C      1  0.4492640000000  0.6015440000000  0.5180240000000 1.0
C      1  0.4498040000000  0.4725530000000  0.5877700000000 1.0
C      1  0.4356200000000  0.5927350000000  0.4930630000000 1.0
C      1  0.4448940000000  0.4986750000000  0.5942730000000 1.0
C      1  0.4362620000000  0.4107000000000  0.5001050000000 1.0
C      1  0.4348140000000  0.4984810000000  0.4140520000000 1.0
C      1  0.5639620000000  0.5924030000000  0.5007590000000 1.0
C      1  0.5609060000000  0.5001380000000  0.5901550000000 1.0
C      1  0.5651870000000  0.4147540000000  0.4989060000000 1.0
C      1  0.5668830000000  0.4964710000000  0.4050630000000 1.0
C      1  0.5821570000000  0.5438990000000  0.5546960000000 1.0
C      1  0.5860810000000  0.4431940000000  0.5452730000000 1.0
C      1  0.5837010000000  0.4533850000000  0.4448560000000 1.0
C      1  0.5863430000000  0.5567770000000  0.4571490000000 1.0
C      1  0.4131220000000  0.5430450000000  0.5578060000000 1.0
C      1  0.4175750000000  0.4446590000000  0.5419630000000 1.0
C      1  0.4174810000000  0.4539510000000  0.4447580000000 1.0
C      1  0.4189500000000  0.5539200000000  0.4538370000000 1.0
C      1  0.5986630000000  0.5028070000000  0.5007650000000 1.0
C      1  0.4016090000000  0.5053050000000  0.4994270000000 1.0
END
