TITL C-2441157-2117-1300 0.025754487498278 125000 -15196.6569629346 0 0 109 (C1) n - 1
REM
REM in /home/bkarasulu/work/CARBON/AIRSS/Generating-Clusters/ReaxFF-fromJPCA2015/Units_Real/with-SteepDescent/Higher-Symm
REM
REM
REM
REM
REM
REM ./C.cell (1df0a924f5614ab8850e4351716899ee)
REM
REM compiler GCC version 9.2.1 20190827 (Red Hat 9.2.1-1)
REM options -cpp -mtune=generic -march=x86-64 -g -O0 -fpre-include=/usr/include/finclude/math-vector-fortran.h
REM seed 1090450326 1599966613 -159334621 -1918700187 -1331668426 376314576 1434345708 -709403844 -1833846689 738751978 -1899771360 607016586 774686135 -1027017125 872235918 1284433657 2009984923 903501562 802226035 1758426650 506823473 78714143 1821975069 1867976767 1796953186 1125716443 -1618417630 704192725 1887463468 -127668425 31730863 882553206 -642513725
REM
CELL 1.54180   50.00000   50.00000   50.00000   90.00000   90.00000   90.00000
LATT -1
SFAC C  
C      1  0.5127000000000  0.5851810000000  0.5276750000000 1.0
C      1  0.4886960000000  0.4168600000000  0.5276520000000 1.0
C      1  0.5326300000000  0.5694490000000  0.4552360000000 1.0
C      1  0.4671930000000  0.4315460000000  0.4540050000000 1.0
C      1  0.4770390000000  0.5103620000000  0.5197700000000 1.0
C      1  0.5298950000000  0.4893810000000  0.5283150000000 1.0
C      1  0.5543950000000  0.5650820000000  0.5320240000000 1.0
C      1  0.4446850000000  0.4343390000000  0.5301300000000 1.0
C      1  0.5662970000000  0.4545580000000  0.5142520000000 1.0
C      1  0.4289730000000  0.5385850000000  0.5121610000000 1.0
C      1  0.4328190000000  0.5074540000000  0.4431620000000 1.0
C      1  0.5664480000000  0.4926340000000  0.4447010000000 1.0
C      1  0.4691400000000  0.4610860000000  0.5804750000000 1.0
C      1  0.5287550000000  0.5345790000000  0.5788090000000 1.0
C      1  0.5172070000000  0.5543040000000  0.5616030000000 1.0
C      1  0.4830430000000  0.4434480000000  0.5611630000000 1.0
C      1  0.5481240000000  0.4415660000000  0.4441070000000 1.0
C      1  0.4507550000000  0.5580740000000  0.4458080000000 1.0
C      1  0.4265400000000  0.4510190000000  0.4953890000000 1.0
C      1  0.5745800000000  0.5524520000000  0.4933340000000 1.0
C      1  0.4732030000000  0.5206360000000  0.4469950000000 1.0
C      1  0.5259420000000  0.4770400000000  0.4482730000000 1.0
C      1  0.4304580000000  0.4741880000000  0.4778550000000 1.0
C      1  0.5717090000000  0.5311230000000  0.4765700000000 1.0
C      1  0.5019180000000  0.4569630000000  0.5414610000000 1.0
C      1  0.4997590000000  0.5406730000000  0.5405170000000 1.0
C      1  0.4382590000000  0.4798260000000  0.4310350000000 1.0
C      1  0.5627470000000  0.5198220000000  0.4301880000000 1.0
C      1  0.5809530000000  0.5217670000000  0.5288650000000 1.0
C      1  0.4143350000000  0.4783910000000  0.5299010000000 1.0
C      1  0.5526760000000  0.5230810000000  0.5615990000000 1.0
C      1  0.4437350000000  0.4675580000000  0.5645910000000 1.0
C      1  0.4659100000000  0.5781730000000  0.5313620000000 1.0
C      1  0.5426470000000  0.4324370000000  0.5245530000000 1.0
C      1  0.4927670000000  0.4638250000000  0.5149880000000 1.0
C      1  0.5059760000000  0.5380220000000  0.5109610000000 1.0
C      1  0.4138390000000  0.5048970000000  0.5417040000000 1.0
C      1  0.5783020000000  0.4933520000000  0.5390670000000 1.0
C      1  0.4955320000000  0.4140430000000  0.5024100000000 1.0
C      1  0.5065650000000  0.5882240000000  0.5024810000000 1.0
C      1  0.5599120000000  0.4375450000000  0.4703800000000 1.0
C      1  0.4391570000000  0.5615180000000  0.4720720000000 1.0
C      1  0.4470980000000  0.4526380000000  0.4468630000000 1.0
C      1  0.5529950000000  0.5497570000000  0.4463880000000 1.0
C      1  0.4388870000000  0.5150060000000  0.4712990000000 1.0
C      1  0.5602000000000  0.4850080000000  0.4721780000000 1.0
C      1  0.4924830000000  0.5112990000000  0.5444500000000 1.0
C      1  0.5099530000000  0.4859760000000  0.5496970000000 1.0
C      1  0.5203540000000  0.4870700000000  0.5791580000000 1.0
C      1  0.4811410000000  0.5141210000000  0.5783430000000 1.0
C      1  0.5507910000000  0.4694510000000  0.4342140000000 1.0
C      1  0.4484400000000  0.5307770000000  0.4338290000000 1.0
C      1  0.5318580000000  0.4307080000000  0.4812560000000 1.0
C      1  0.4667830000000  0.5691660000000  0.4833190000000 1.0
C      1  0.4558080000000  0.5312230000000  0.5732300000000 1.0
C      1  0.5477260000000  0.4750520000000  0.5762010000000 1.0
C      1  0.5688930000000  0.5426300000000  0.5434980000000 1.0
C      1  0.4277030000000  0.4549330000000  0.5435630000000 1.0
C      1  0.4771800000000  0.5872870000000  0.5072020000000 1.0
C      1  0.5247050000000  0.4175630000000  0.5071250000000 1.0
C      1  0.4243900000000  0.5383250000000  0.4833600000000 1.0
C      1  0.5704020000000  0.4609270000000  0.4840770000000 1.0
C      1  0.5556620000000  0.4803900000000  0.5242510000000 1.0
C      1  0.4554100000000  0.5297380000000  0.5258300000000 1.0
C      1  0.5465910000000  0.5287150000000  0.4644930000000 1.0
C      1  0.4566050000000  0.4713530000000  0.4663360000000 1.0
C      1  0.4831580000000  0.5409100000000  0.4889870000000 1.0
C      1  0.5117490000000  0.4593650000000  0.4932060000000 1.0
C      1  0.5032080000000  0.5656390000000  0.4494310000000 1.0
C      1  0.4955910000000  0.4365500000000  0.4497170000000 1.0
C      1  0.4686100000000  0.4236650000000  0.5457220000000 1.0
C      1  0.5308950000000  0.5762540000000  0.5470710000000 1.0
C      1  0.5532340000000  0.5695170000000  0.5025980000000 1.0
C      1  0.4472510000000  0.4317520000000  0.5013170000000 1.0
C      1  0.5208370000000  0.5040720000000  0.3995110000000 1.0
C      1  0.4791010000000  0.4980870000000  0.3999700000000 1.0
C      1  0.4572030000000  0.4888660000000  0.4146510000000 1.0
C      1  0.5427680000000  0.5120890000000  0.4144240000000 1.0
C      1  0.4687230000000  0.4815150000000  0.5180830000000 1.0
C      1  0.5322060000000  0.5274730000000  0.5097680000000 1.0
C      1  0.5232470000000  0.4275690000000  0.4524800000000 1.0
C      1  0.4753680000000  0.5729420000000  0.4540740000000 1.0
C      1  0.5020370000000  0.4805800000000  0.4074390000000 1.0
C      1  0.4979900000000  0.5212670000000  0.4081470000000 1.0
C      1  0.5271100000000  0.4821770000000  0.4789210000000 1.0
C      1  0.4679860000000  0.5182330000000  0.4755660000000 1.0
C      1  0.5445980000000  0.4529970000000  0.5591420000000 1.0
C      1  0.4588030000000  0.5565650000000  0.5626050000000 1.0
C      1  0.4435710000000  0.5135870000000  0.5515690000000 1.0
C      1  0.5646460000000  0.4957700000000  0.5653380000000 1.0
C      1  0.4804120000000  0.4863800000000  0.5866380000000 1.0
C      1  0.5119290000000  0.5132670000000  0.5885880000000 1.0
C      1  0.5359060000000  0.5156370000000  0.5352610000000 1.0
C      1  0.4559260000000  0.4861160000000  0.5461860000000 1.0
C      1  0.5279680000000  0.4416500000000  0.5438810000000 1.0
C      1  0.4687410000000  0.5558470000000  0.5403640000000 1.0
C      1  0.5154760000000  0.5221030000000  0.4624430000000 1.0
C      1  0.4847230000000  0.4814410000000  0.4637440000000 1.0
C      1  0.4715920000000  0.4274030000000  0.4835520000000 1.0
C      1  0.5298660000000  0.5740230000000  0.4850070000000 1.0
C      1  0.4119980000000  0.5178670000000  0.5175920000000 1.0
C      1  0.5932490000000  0.4644150000000  0.5262780000000 1.0
C      1  0.5665560000000  0.5258240000000  0.5039080000000 1.0
C      1  0.4342830000000  0.4783800000000  0.5071490000000 1.0
C      1  0.5017550000000  0.4775330000000  0.4361810000000 1.0
C      1  0.4986630000000  0.5244220000000  0.4366740000000 1.0
C      1  0.4924310000000  0.4547100000000  0.4736050000000 1.0
C      1  0.5050240000000  0.5467700000000  0.4720220000000 1.0
C      1  0.5039500000000  0.5001210000000  0.4780820000000 1.0
END
