TITL C-2441162-9305-291 -6.5442560309027e-08 125000 -3891.73618369456 0 0 30 (Oh) n - 1
REM
REM in /home/bkarasulu/work/CARBON/AIRSS/Generating-Clusters/ReaxFF-fromJPCA2015/Units_Real/with-SteepDescent/Higher-Symm
REM
REM
REM
REM
REM
REM ./C.cell (1df0a924f5614ab8850e4351716899ee)
REM
REM compiler GCC version 9.2.1 20190827 (Red Hat 9.2.1-1)
REM options -cpp -mtune=generic -march=x86-64 -g -O0 -fpre-include=/usr/include/finclude/math-vector-fortran.h
REM seed -1624317574 1531111845 1787814810 -1706998316 -413598424 1295555982 -203960120 681284559 -281089525 1222767424 -1524507345 -2065807099 -1807245451 1770206285 -1343845186 430194296 2100708211 707819973 837257633 -1582636037 -1466204067 -1823696590 -640514599 -1822619067 252819232 -475648900 -345090174 -946427308 -700213306 -1835098313 -249597512 -1001369089 189798827
REM
CELL 1.54180   50.00000   50.00000   50.00000   90.00000   90.00000   90.00000
LATT -1
SFAC C  
C      1  0.4603240000000  0.4794540000000  0.5214890000000 1.0
C      1  0.5216970000000  0.4596390000000  0.4799310000000 1.0
C      1  0.4801390000000  0.5210120000000  0.4601160000000 1.0
C      1  0.5415130000000  0.4794540000000  0.4799310000000 1.0
C      1  0.4603240000000  0.5210120000000  0.4799310000000 1.0
C      1  0.5415130000000  0.5210120000000  0.5214890000000 1.0
C      1  0.4801390000000  0.4596390000000  0.5214890000000 1.0
C      1  0.5216970000000  0.5408280000000  0.5214890000000 1.0
C      1  0.4801390000000  0.5408280000000  0.4799310000000 1.0
C      1  0.5216970000000  0.5210120000000  0.5413050000000 1.0
C      1  0.4801390000000  0.4794540000000  0.5413050000000 1.0
C      1  0.5216970000000  0.4794540000000  0.4601160000000 1.0
C      1  0.4603240000000  0.5210120000000  0.5214890000000 1.0
C      1  0.5216970000000  0.5408270000000  0.4799310000000 1.0
C      1  0.4801390000000  0.4794540000000  0.4601160000000 1.0
C      1  0.5415130000000  0.5210120000000  0.4799310000000 1.0
C      1  0.4603240000000  0.4794540000000  0.4799310000000 1.0
C      1  0.5415130000000  0.4794540000000  0.5214890000000 1.0
C      1  0.4801390000000  0.5408280000000  0.5214890000000 1.0
C      1  0.5216970000000  0.4596390000000  0.5214890000000 1.0
C      1  0.4801390000000  0.4596390000000  0.4799310000000 1.0
C      1  0.5216970000000  0.4794540000000  0.5413050000000 1.0
C      1  0.4801390000000  0.5210120000000  0.5413050000000 1.0
C      1  0.5216970000000  0.5210120000000  0.4601160000000 1.0
C      1  0.5009180000000  0.5506270000000  0.5007100000000 1.0
C      1  0.5009180000000  0.5002330000000  0.5511040000000 1.0
C      1  0.5513120000000  0.5002330000000  0.5007100000000 1.0
C      1  0.5009180000000  0.4498390000000  0.5007100000000 1.0
C      1  0.5009180000000  0.5002330000000  0.4503160000000 1.0
C      1  0.4505240000000  0.5002330000000  0.5007100000000 1.0
END
