TITL C-2441154-10-1399 0.167194530321309 125000 -21897.9362888459 0 0 168 (C1) n - 1
REM
REM in /home/bkarasulu/work/CARBON/AIRSS/Generating-Clusters/ReaxFF-fromJPCA2015/Units_Real/with-SteepDescent/Higher-Symm
REM
REM
REM
REM
REM
REM ./C.cell (1df0a924f5614ab8850e4351716899ee)
REM
REM compiler GCC version 9.2.1 20190827 (Red Hat 9.2.1-1)
REM options -cpp -mtune=generic -march=x86-64 -g -O0 -fpre-include=/usr/include/finclude/math-vector-fortran.h
REM seed -433566580 -388130250 -1895245151 -671565151 -196451994 1346143282 1730567253 -650714714 -180947640 316952410 1260736990 583377983 -666653031 -620625592 1155902424 -998487477 -2039443932 -1201905697 74631855 1636537372 1759086953 -406770055 964175766 -143456643 -1634956902 354228804 -1153471787 -2083750546 741667018 792557933 1359897512 84447069 -1871535925
REM
CELL 1.54180   50.00000   50.00000   50.00000   90.00000   90.00000   90.00000
LATT -1
SFAC C  
C      1  0.5492270000000  0.4894920000000  0.4523140000000 1.0
C      1  0.4500360000000  0.5150380000000  0.4571790000000 1.0
C      1  0.4477030000000  0.4839540000000  0.5507920000000 1.0
C      1  0.5481090000000  0.5163840000000  0.5567410000000 1.0
C      1  0.4958320000000  0.4904200000000  0.4605450000000 1.0
C      1  0.4513590000000  0.5018380000000  0.4886500000000 1.0
C      1  0.4959340000000  0.5034430000000  0.5482990000000 1.0
C      1  0.5501700000000  0.5022850000000  0.5024470000000 1.0
C      1  0.5096300000000  0.4671220000000  0.4663800000000 1.0
C      1  0.4689300000000  0.5447940000000  0.5021150000000 1.0
C      1  0.4999240000000  0.4638890000000  0.5319880000000 1.0
C      1  0.5273930000000  0.5329220000000  0.4894480000000 1.0
C      1  0.4652320000000  0.5049010000000  0.4183590000000 1.0
C      1  0.4111350000000  0.4976900000000  0.5301900000000 1.0
C      1  0.5347150000000  0.5017340000000  0.5773130000000 1.0
C      1  0.5894150000000  0.4953700000000  0.4719170000000 1.0
C      1  0.5304190000000  0.4049070000000  0.5421480000000 1.0
C      1  0.5429510000000  0.5976970000000  0.4688780000000 1.0
C      1  0.4694710000000  0.4016690000000  0.4555720000000 1.0
C      1  0.4595610000000  0.5950860000000  0.5306230000000 1.0
C      1  0.5618930000000  0.4774390000000  0.5090990000000 1.0
C      1  0.5052600000000  0.5234450000000  0.4373800000000 1.0
C      1  0.4392410000000  0.4751920000000  0.4899070000000 1.0
C      1  0.4913080000000  0.5259040000000  0.5623930000000 1.0
C      1  0.5351620000000  0.4337870000000  0.5776540000000 1.0
C      1  0.5790220000000  0.5704570000000  0.4643840000000 1.0
C      1  0.4657830000000  0.4329610000000  0.4214200000000 1.0
C      1  0.4233420000000  0.5678900000000  0.5350080000000 1.0
C      1  0.4346790000000  0.5332030000000  0.4400040000000 1.0
C      1  0.4348720000000  0.4645570000000  0.5678740000000 1.0
C      1  0.5676590000000  0.5353650000000  0.5669470000000 1.0
C      1  0.5610220000000  0.4682510000000  0.4359340000000 1.0
C      1  0.5052460000000  0.5577450000000  0.5143070000000 1.0
C      1  0.5093430000000  0.4296360000000  0.5070290000000 1.0
C      1  0.5064360000000  0.5672270000000  0.4871220000000 1.0
C      1  0.4847940000000  0.4420800000000  0.4996840000000 1.0
C      1  0.4994590000000  0.5007080000000  0.3952560000000 1.0
C      1  0.3961750000000  0.4978730000000  0.5040250000000 1.0
C      1  0.4991480000000  0.5012830000000  0.6028810000000 1.0
C      1  0.6039810000000  0.4998030000000  0.4972550000000 1.0
C      1  0.4058790000000  0.4541630000000  0.4708780000000 1.0
C      1  0.4696350000000  0.5429620000000  0.5941390000000 1.0
C      1  0.5925980000000  0.4560790000000  0.5296460000000 1.0
C      1  0.5305870000000  0.5443200000000  0.4076190000000 1.0
C      1  0.5528410000000  0.4151680000000  0.4876720000000 1.0
C      1  0.4823310000000  0.5791320000000  0.4451320000000 1.0
C      1  0.4463720000000  0.4231250000000  0.5087270000000 1.0
C      1  0.5101250000000  0.5787310000000  0.5544180000000 1.0
C      1  0.5839650000000  0.5175980000000  0.4533700000000 1.0
C      1  0.4499050000000  0.4801810000000  0.4158830000000 1.0
C      1  0.4156840000000  0.5202700000000  0.5481830000000 1.0
C      1  0.5502100000000  0.4782330000000  0.5852990000000 1.0
C      1  0.5566530000000  0.5580900000000  0.5523390000000 1.0
C      1  0.5527100000000  0.4408640000000  0.4421450000000 1.0
C      1  0.4480880000000  0.5585660000000  0.4474070000000 1.0
C      1  0.4471510000000  0.4427360000000  0.5541630000000 1.0
C      1  0.5544070000000  0.5761190000000  0.5087820000000 1.0
C      1  0.5086460000000  0.4213480000000  0.4454830000000 1.0
C      1  0.4439990000000  0.5836390000000  0.4886760000000 1.0
C      1  0.4885790000000  0.4164940000000  0.5559190000000 1.0
C      1  0.4365540000000  0.5850550000000  0.5159930000000 1.0
C      1  0.5163610000000  0.4159090000000  0.5639120000000 1.0
C      1  0.5648540000000  0.5869350000000  0.4839260000000 1.0
C      1  0.4835410000000  0.4134430000000  0.4331640000000 1.0
C      1  0.5846230000000  0.5431740000000  0.4637310000000 1.0
C      1  0.4706460000000  0.4600530000000  0.4119720000000 1.0
C      1  0.4104660000000  0.5426340000000  0.5295320000000 1.0
C      1  0.5301910000000  0.4587750000000  0.5906410000000 1.0
C      1  0.4968390000000  0.4446730000000  0.4568680000000 1.0
C      1  0.4454270000000  0.5406150000000  0.5112490000000 1.0
C      1  0.5198460000000  0.4636430000000  0.5472100000000 1.0
C      1  0.5496320000000  0.5482750000000  0.4952480000000 1.0
C      1  0.5100330000000  0.4003730000000  0.4720290000000 1.0
C      1  0.4705510000000  0.5974060000000  0.4887280000000 1.0
C      1  0.4856800000000  0.4023570000000  0.5307100000000 1.0
C      1  0.5289230000000  0.5958510000000  0.5108460000000 1.0
C      1  0.4773620000000  0.5194140000000  0.3960520000000 1.0
C      1  0.3933130000000  0.4760060000000  0.5247440000000 1.0
C      1  0.5208900000000  0.5188000000000  0.6001230000000 1.0
C      1  0.6093260000000  0.4777000000000  0.4767500000000 1.0
C      1  0.5937840000000  0.5286840000000  0.5013620000000 1.0
C      1  0.4969750000000  0.4729430000000  0.4071430000000 1.0
C      1  0.4070470000000  0.5300550000000  0.5019260000000 1.0
C      1  0.5022120000000  0.4726390000000  0.5927460000000 1.0
C      1  0.5123760000000  0.4855420000000  0.5641490000000 1.0
C      1  0.5654240000000  0.5251740000000  0.4952090000000 1.0
C      1  0.4897210000000  0.4987710000000  0.4349320000000 1.0
C      1  0.4345840000000  0.5194000000000  0.5042890000000 1.0
C      1  0.4620850000000  0.5851090000000  0.5573200000000 1.0
C      1  0.5562970000000  0.4146170000000  0.5379680000000 1.0
C      1  0.5395750000000  0.5871720000000  0.4426130000000 1.0
C      1  0.4429740000000  0.4129990000000  0.4591470000000 1.0
C      1  0.4874870000000  0.5973440000000  0.4660320000000 1.0
C      1  0.4691040000000  0.4054790000000  0.5078720000000 1.0
C      1  0.5085470000000  0.5957170000000  0.5299460000000 1.0
C      1  0.5300190000000  0.3972020000000  0.4914860000000 1.0
C      1  0.4307770000000  0.5653930000000  0.4699110000000 1.0
C      1  0.4707950000000  0.4353430000000  0.5695260000000 1.0
C      1  0.5735680000000  0.5655400000000  0.5310810000000 1.0
C      1  0.5285640000000  0.4352610000000  0.4282950000000 1.0
C      1  0.4823650000000  0.6011630000000  0.5155020000000 1.0
C      1  0.5137760000000  0.4006410000000  0.5198250000000 1.0
C      1  0.5170190000000  0.5993670000000  0.4843130000000 1.0
C      1  0.4832020000000  0.3976850000000  0.4809130000000 1.0
C      1  0.4784890000000  0.5161480000000  0.5890810000000 1.0
C      1  0.5882270000000  0.4834090000000  0.5225140000000 1.0
C      1  0.5206650000000  0.5164950000000  0.4104530000000 1.0
C      1  0.4105360000000  0.4822500000000  0.4784730000000 1.0
C      1  0.4845460000000  0.5357170000000  0.4801480000000 1.0
C      1  0.4792820000000  0.4644760000000  0.5153170000000 1.0
C      1  0.5172240000000  0.5335250000000  0.5159140000000 1.0
C      1  0.5221450000000  0.4690670000000  0.4911360000000 1.0
C      1  0.5644530000000  0.5200520000000  0.4302920000000 1.0
C      1  0.4274610000000  0.4788980000000  0.4337860000000 1.0
C      1  0.4337970000000  0.5205000000000  0.5701290000000 1.0
C      1  0.5719830000000  0.4774630000000  0.5671260000000 1.0
C      1  0.5347660000000  0.5381910000000  0.5434900000000 1.0
C      1  0.5523940000000  0.4398160000000  0.4710640000000 1.0
C      1  0.4699110000000  0.5385540000000  0.4572200000000 1.0
C      1  0.4550910000000  0.4619580000000  0.5327540000000 1.0
C      1  0.4719470000000  0.5359000000000  0.5475550000000 1.0
C      1  0.5443850000000  0.4609820000000  0.5304760000000 1.0
C      1  0.5257640000000  0.5321860000000  0.4596350000000 1.0
C      1  0.4521400000000  0.4618730000000  0.4690010000000 1.0
C      1  0.4741990000000  0.4449300000000  0.4738470000000 1.0
C      1  0.4798990000000  0.5547010000000  0.5268870000000 1.0
C      1  0.5310550000000  0.4481970000000  0.5077320000000 1.0
C      1  0.5162930000000  0.5589340000000  0.4617580000000 1.0
C      1  0.5910960000000  0.4383980000000  0.5075770000000 1.0
C      1  0.5077450000000  0.5608760000000  0.4074930000000 1.0
C      1  0.4054460000000  0.4375280000000  0.4934810000000 1.0
C      1  0.4916730000000  0.5607390000000  0.5937680000000 1.0
C      1  0.5111160000000  0.5761530000000  0.4349890000000 1.0
C      1  0.4304540000000  0.4222790000000  0.4854130000000 1.0
C      1  0.4876420000000  0.5802530000000  0.5713520000000 1.0
C      1  0.5680920000000  0.4208080000000  0.5115620000000 1.0
C      1  0.4515120000000  0.4725700000000  0.5903760000000 1.0
C      1  0.5893750000000  0.5251560000000  0.5508310000000 1.0
C      1  0.5464110000000  0.4742190000000  0.4121030000000 1.0
C      1  0.4097410000000  0.5259980000000  0.4525510000000 1.0
C      1  0.4174010000000  0.4970440000000  0.4532240000000 1.0
C      1  0.4532850000000  0.4999020000000  0.5766740000000 1.0
C      1  0.5810940000000  0.4969980000000  0.5476180000000 1.0
C      1  0.5451260000000  0.5014700000000  0.4199070000000 1.0
C      1  0.5227240000000  0.4579850000000  0.4120960000000 1.0
C      1  0.4113690000000  0.5441880000000  0.4754310000000 1.0
C      1  0.4760670000000  0.4573910000000  0.5876250000000 1.0
C      1  0.5914580000000  0.5426360000000  0.5273010000000 1.0
C      1  0.4850710000000  0.5448320000000  0.4355680000000 1.0
C      1  0.4367600000000  0.4543980000000  0.5131360000000 1.0
C      1  0.5153370000000  0.5494040000000  0.5620830000000 1.0
C      1  0.5678480000000  0.4625580000000  0.4807570000000 1.0
C      1  0.4416350000000  0.4303100000000  0.4371740000000 1.0
C      1  0.4395340000000  0.5686340000000  0.5584980000000 1.0
C      1  0.5589600000000  0.4304850000000  0.5612300000000 1.0
C      1  0.5610480000000  0.5683980000000  0.4399750000000 1.0
C      1  0.4299910000000  0.4547050000000  0.4496560000000 1.0
C      1  0.4507110000000  0.5439630000000  0.5702360000000 1.0
C      1  0.5728860000000  0.4536480000000  0.5512690000000 1.0
C      1  0.5498930000000  0.5439590000000  0.4292150000000 1.0
C      1  0.4935220000000  0.5086720000000  0.4804560000000 1.0
C      1  0.4785610000000  0.4958590000000  0.5023880000000 1.0
C      1  0.5020980000000  0.5072680000000  0.5198210000000 1.0
C      1  0.5234270000000  0.4951150000000  0.5020190000000 1.0
C      1  0.4826060000000  0.5467990000000  0.4061110000000 1.0
C      1  0.4076100000000  0.4515260000000  0.5190350000000 1.0
C      1  0.5170400000000  0.5459990000000  0.5921110000000 1.0
C      1  0.5953210000000  0.4530640000000  0.4818290000000 1.0
END
