TITL C-2441154-10-466 0.00405327495131459 125000 -3530.32070542285 0 0 27 (C1) n - 1
REM
REM in /home/bkarasulu/work/CARBON/AIRSS/Generating-Clusters/ReaxFF-fromJPCA2015/Units_Real/with-SteepDescent/Higher-Symm
REM
REM
REM
REM
REM
REM ./C.cell (1df0a924f5614ab8850e4351716899ee)
REM
REM compiler GCC version 9.2.1 20190827 (Red Hat 9.2.1-1)
REM options -cpp -mtune=generic -march=x86-64 -g -O0 -fpre-include=/usr/include/finclude/math-vector-fortran.h
REM seed -901195504 -1571270291 -1208614443 2038204727 -760843111 1642978297 -909861614 -656620428 -2031412184 -1093476937 2135344460 154582137 860768835 1243938411 664144940 -1764698745 862006696 1196434404 1524042946 1839801095 1706890572 246767416 1258415514 -35546387 749195117 1197807520 -677276778 -1896372537 -1728620412 57589805 -127973873 1546617885 -1688881503
REM
CELL 1.54180   50.00000   50.00000   50.00000   90.00000   90.00000   90.00000
LATT -1
SFAC C  
C      1  0.4614450000000  0.4732770000000  0.5100150000000 1.0
C      1  0.5281440000000  0.4733930000000  0.5285140000000 1.0
C      1  0.5105440000000  0.4732870000000  0.4614050000000 1.0
C      1  0.4482790000000  0.4647030000000  0.4851940000000 1.0
C      1  0.5132360000000  0.4648360000000  0.5520790000000 1.0
C      1  0.5383340000000  0.4640940000000  0.4625160000000 1.0
C      1  0.5567190000000  0.4865760000000  0.4734770000000 1.0
C      1  0.4486880000000  0.4874280000000  0.4642250000000 1.0
C      1  0.4946150000000  0.4875290000000  0.5623670000000 1.0
C      1  0.4725930000000  0.5078900000000  0.4526690000000 1.0
C      1  0.4726600000000  0.5077260000000  0.5475000000000 1.0
C      1  0.5554050000000  0.5069300000000  0.4998140000000 1.0
C      1  0.5122480000000  0.4928630000000  0.5120580000000 1.0
C      1  0.5046250000000  0.4928140000000  0.4837470000000 1.0
C      1  0.4839490000000  0.4926700000000  0.5042990000000 1.0
C      1  0.4912770000000  0.5487330000000  0.5159840000000 1.0
C      1  0.5164190000000  0.5494960000000  0.4992380000000 1.0
C      1  0.4897660000000  0.5487800000000  0.4850570000000 1.0
C      1  0.4523980000000  0.4908010000000  0.5329420000000 1.0
C      1  0.5530140000000  0.4908240000000  0.5247760000000 1.0
C      1  0.4953710000000  0.4911950000000  0.4422160000000 1.0
C      1  0.4320980000000  0.5059250000000  0.4597650000000 1.0
C      1  0.4990080000000  0.5057630000000  0.5791640000000 1.0
C      1  0.5690700000000  0.5048580000000  0.4611860000000 1.0
C      1  0.5369440000000  0.5298030000000  0.4989330000000 1.0
C      1  0.4810110000000  0.5289150000000  0.4689200000000 1.0
C      1  0.4821390000000  0.5288890000000  0.5319400000000 1.0
END
