TITL C-2441157-2117-124 0.046026687913937 125000 -17481.7603379733 0 0 127 (C1) n - 1
REM
REM in /home/bkarasulu/work/CARBON/AIRSS/Generating-Clusters/ReaxFF-fromJPCA2015/Units_Real/with-SteepDescent/Higher-Symm
REM
REM
REM
REM
REM
REM ./C.cell (1df0a924f5614ab8850e4351716899ee)
REM
REM compiler GCC version 9.2.1 20190827 (Red Hat 9.2.1-1)
REM options -cpp -mtune=generic -march=x86-64 -g -O0 -fpre-include=/usr/include/finclude/math-vector-fortran.h
REM seed -1416243133 -1549717686 -47943379 -1513863988 -143588422 -1465103990 -809787586 -1623697238 -1066474833 2094318439 579561368 1782607149 618215956 408983399 390384705 -293266896 -107214414 1346906806 -171060458 -650443775 -276155299 1021171082 516540858 -1229478289 -152861006 -822733083 -146270259 182120935 -1433635436 163550324 -1427514804 21826902 -1434814470
REM
CELL 1.54180   50.00000   50.00000   50.00000   90.00000   90.00000   90.00000
LATT -1
SFAC C  
C      1  0.5370470000000  0.5475180000000  0.5706690000000 1.0
C      1  0.4632440000000  0.4414110000000  0.4287260000000 1.0
C      1  0.4430430000000  0.5292360000000  0.5646430000000 1.0
C      1  0.5527160000000  0.4795860000000  0.4315520000000 1.0
C      1  0.4339110000000  0.5213070000000  0.5156020000000 1.0
C      1  0.5676820000000  0.4844660000000  0.4859880000000 1.0
C      1  0.5391590000000  0.4082030000000  0.4767860000000 1.0
C      1  0.4738490000000  0.6007720000000  0.5073410000000 1.0
C      1  0.4533890000000  0.5298280000000  0.5343410000000 1.0
C      1  0.5461330000000  0.4745050000000  0.4616190000000 1.0
C      1  0.5529360000000  0.4474730000000  0.4709100000000 1.0
C      1  0.4508320000000  0.5567040000000  0.5264040000000 1.0
C      1  0.5164800000000  0.5455180000000  0.4142530000000 1.0
C      1  0.4910620000000  0.4530540000000  0.5879750000000 1.0
C      1  0.5516830000000  0.4169300000000  0.5009480000000 1.0
C      1  0.4523840000000  0.5863290000000  0.4922160000000 1.0
C      1  0.5420900000000  0.4561870000000  0.5638730000000 1.0
C      1  0.4543560000000  0.5434580000000  0.4266700000000 1.0
C      1  0.4820740000000  0.4943020000000  0.5292630000000 1.0
C      1  0.5357760000000  0.5304390000000  0.4673810000000 1.0
C      1  0.4166860000000  0.4897890000000  0.5337390000000 1.0
C      1  0.5887840000000  0.5145400000000  0.4663500000000 1.0
C      1  0.4924340000000  0.5092920000000  0.4484150000000 1.0
C      1  0.5015730000000  0.4903530000000  0.5503140000000 1.0
C      1  0.5491330000000  0.5053040000000  0.4196410000000 1.0
C      1  0.4562870000000  0.4823580000000  0.5789010000000 1.0
C      1  0.4617930000000  0.4546630000000  0.5716970000000 1.0
C      1  0.5344930000000  0.5282360000000  0.4347210000000 1.0
C      1  0.4142580000000  0.5196520000000  0.5367520000000 1.0
C      1  0.5916430000000  0.4852470000000  0.4669370000000 1.0
C      1  0.5219740000000  0.5707600000000  0.5569260000000 1.0
C      1  0.4934240000000  0.4196360000000  0.4468900000000 1.0
C      1  0.4650280000000  0.5058150000000  0.4875570000000 1.0
C      1  0.5324520000000  0.4953780000000  0.5121880000000 1.0
C      1  0.5041210000000  0.4774740000000  0.5969480000000 1.0
C      1  0.4964030000000  0.5284260000000  0.4065390000000 1.0
C      1  0.5053500000000  0.4362990000000  0.4864830000000 1.0
C      1  0.4987020000000  0.5697170000000  0.5176810000000 1.0
C      1  0.4587500000000  0.4686120000000  0.4226650000000 1.0
C      1  0.5243040000000  0.5257730000000  0.5854120000000 1.0
C      1  0.5090350000000  0.4927320000000  0.4313270000000 1.0
C      1  0.4910380000000  0.5065730000000  0.5722060000000 1.0
C      1  0.5489610000000  0.4376050000000  0.4304180000000 1.0
C      1  0.4500460000000  0.5563500000000  0.5728800000000 1.0
C      1  0.5634460000000  0.5296380000000  0.4256010000000 1.0
C      1  0.4357380000000  0.4656830000000  0.5755980000000 1.0
C      1  0.4896060000000  0.4658030000000  0.4629040000000 1.0
C      1  0.5065580000000  0.5341970000000  0.5353070000000 1.0
C      1  0.5675290000000  0.4556300000000  0.5269420000000 1.0
C      1  0.4341210000000  0.5479370000000  0.4730250000000 1.0
C      1  0.4234390000000  0.5221900000000  0.4650430000000 1.0
C      1  0.5752310000000  0.4823540000000  0.5362360000000 1.0
C      1  0.5003950000000  0.4343640000000  0.5684510000000 1.0
C      1  0.4999360000000  0.5604350000000  0.4326560000000 1.0
C      1  0.4140510000000  0.5419230000000  0.5170400000000 1.0
C      1  0.5898330000000  0.4637520000000  0.4861720000000 1.0
C      1  0.5136210000000  0.5800840000000  0.4496110000000 1.0
C      1  0.4910140000000  0.4148040000000  0.5488930000000 1.0
C      1  0.5531630000000  0.4232400000000  0.4542420000000 1.0
C      1  0.4653430000000  0.5691090000000  0.5491460000000 1.0
C      1  0.4483360000000  0.5599520000000  0.4515040000000 1.0
C      1  0.5532060000000  0.4377130000000  0.5440140000000 1.0
C      1  0.5109660000000  0.4495060000000  0.5237890000000 1.0
C      1  0.4899960000000  0.5493660000000  0.4785660000000 1.0
C      1  0.4836740000000  0.5870740000000  0.5322070000000 1.0
C      1  0.5077330000000  0.4089870000000  0.4746070000000 1.0
C      1  0.4561820000000  0.4318740000000  0.4785490000000 1.0
C      1  0.5451530000000  0.5640600000000  0.5195440000000 1.0
C      1  0.4993540000000  0.6036170000000  0.4932620000000 1.0
C      1  0.4922930000000  0.4014480000000  0.5018260000000 1.0
C      1  0.5476610000000  0.4828430000000  0.5744150000000 1.0
C      1  0.4534990000000  0.5147530000000  0.4222150000000 1.0
C      1  0.5376330000000  0.5913900000000  0.4829730000000 1.0
C      1  0.4662180000000  0.4155750000000  0.5327240000000 1.0
C      1  0.4349090000000  0.5625800000000  0.5017810000000 1.0
C      1  0.5707340000000  0.4441720000000  0.4982910000000 1.0
C      1  0.4945760000000  0.5348040000000  0.5790590000000 1.0
C      1  0.5114820000000  0.4648510000000  0.4229550000000 1.0
C      1  0.3986840000000  0.5114270000000  0.4739570000000 1.0
C      1  0.6015620000000  0.4903870000000  0.5307950000000 1.0
C      1  0.5137840000000  0.4576770000000  0.5523820000000 1.0
C      1  0.4924580000000  0.5386740000000  0.4526560000000 1.0
C      1  0.5558170000000  0.5508090000000  0.4650210000000 1.0
C      1  0.4329820000000  0.4511250000000  0.5316850000000 1.0
C      1  0.5580030000000  0.5333150000000  0.5565900000000 1.0
C      1  0.4390880000000  0.4706450000000  0.4449450000000 1.0
C      1  0.4976960000000  0.5542090000000  0.5554220000000 1.0
C      1  0.5017490000000  0.4473130000000  0.4439090000000 1.0
C      1  0.4627580000000  0.5341670000000  0.5849540000000 1.0
C      1  0.5402950000000  0.4587770000000  0.4144610000000 1.0
C      1  0.4764490000000  0.5311480000000  0.4954230000000 1.0
C      1  0.5232870000000  0.4685130000000  0.5061710000000 1.0
C      1  0.4929320000000  0.5824230000000  0.4716010000000 1.0
C      1  0.5096240000000  0.4155740000000  0.5250450000000 1.0
C      1  0.4563890000000  0.4395360000000  0.5438800000000 1.0
C      1  0.5414990000000  0.5775040000000  0.4590410000000 1.0
C      1  0.4812250000000  0.4853120000000  0.5019800000000 1.0
C      1  0.5233720000000  0.5183550000000  0.4918940000000 1.0
C      1  0.5176430000000  0.5504480000000  0.5120900000000 1.0
C      1  0.4804360000000  0.4512760000000  0.4880990000000 1.0
C      1  0.4030990000000  0.4896950000000  0.4803530000000 1.0
C      1  0.6006360000000  0.5111830000000  0.5203880000000 1.0
C      1  0.4191500000000  0.4670540000000  0.5524580000000 1.0
C      1  0.5773940000000  0.5363840000000  0.4500850000000 1.0
C      1  0.5401500000000  0.4162280000000  0.5270540000000 1.0
C      1  0.4621220000000  0.5823180000000  0.4659430000000 1.0
C      1  0.5269110000000  0.4964330000000  0.5895640000000 1.0
C      1  0.4714780000000  0.4948820000000  0.4106290000000 1.0
C      1  0.4312690000000  0.4740520000000  0.5132710000000 1.0
C      1  0.5715930000000  0.5152070000000  0.4899380000000 1.0
C      1  0.4659150000000  0.4118630000000  0.5029910000000 1.0
C      1  0.5255550000000  0.6001460000000  0.5070650000000 1.0
C      1  0.5264530000000  0.5065250000000  0.5381820000000 1.0
C      1  0.4697900000000  0.4953150000000  0.4608000000000 1.0
C      1  0.5553390000000  0.5027730000000  0.5532900000000 1.0
C      1  0.4407230000000  0.5006740000000  0.4471290000000 1.0
C      1  0.4998370000000  0.5003810000000  0.4036510000000 1.0
C      1  0.4788550000000  0.4924280000000  0.5943280000000 1.0
C      1  0.5336570000000  0.5855730000000  0.5345000000000 1.0
C      1  0.4649400000000  0.4224090000000  0.4497770000000 1.0
C      1  0.5156140000000  0.4752390000000  0.4743080000000 1.0
C      1  0.4815040000000  0.5222590000000  0.5256820000000 1.0
C      1  0.4365740000000  0.4528900000000  0.4688050000000 1.0
C      1  0.5652200000000  0.5462060000000  0.5315170000000 1.0
C      1  0.4189470000000  0.4663520000000  0.4873330000000 1.0
C      1  0.5820750000000  0.5315970000000  0.5120920000000 1.0
C      1  0.5036330000000  0.4976620000000  0.4856880000000 1.0
END
