TITL C-2441156-4686-1406 0.23629216038439 125000 -21988.8055932334 0 0 190 (C1) n - 1
REM
REM in /home/bkarasulu/work/CARBON/AIRSS/Generating-Clusters/ReaxFF-fromJPCA2015/Units_Real/with-SteepDescent/Higher-Symm
REM
REM
REM
REM
REM
REM ./C.cell (1df0a924f5614ab8850e4351716899ee)
REM
REM compiler GCC version 9.2.1 20190827 (Red Hat 9.2.1-1)
REM options -cpp -mtune=generic -march=x86-64 -g -O0 -fpre-include=/usr/include/finclude/math-vector-fortran.h
REM seed -9613838 -1821147219 -975184896 -1146450701 123901113 -1771278804 -1460386629 1784670180 599812406 571285798 -1684520627 2041955223 -1099066299 751886877 -125991445 144159694 2028547874 -531342192 -354123869 -938577155 -1367598085 1054727511 -775705012 -518157310 429125166 456033550 -27150639 1128430722 782119665 -1767966962 -59836198 -1695566366 -1593088096
REM
CELL 1.54180   50.00000   50.00000   50.00000   90.00000   90.00000   90.00000
LATT -1
SFAC C  
C      1  0.5318400000000  0.4710030000000  0.4004320000000 1.0
C      1  0.5301470000000  0.5666350000000  0.4176950000000 1.0
C      1  0.5327750000000  0.6081620000000  0.4970690000000 1.0
C      1  0.5320370000000  0.5694960000000  0.5814590000000 1.0
C      1  0.5318010000000  0.4758850000000  0.6048430000000 1.0
C      1  0.5348550000000  0.4095290000000  0.5511810000000 1.0
C      1  0.5324490000000  0.4015850000000  0.4605720000000 1.0
C      1  0.5813630000000  0.4457080000000  0.4838110000000 1.0
C      1  0.5846050000000  0.4792930000000  0.4432620000000 1.0
C      1  0.5785050000000  0.5317400000000  0.4517780000000 1.0
C      1  0.5885380000000  0.5426540000000  0.4947810000000 1.0
C      1  0.5866790000000  0.5420900000000  0.5229750000000 1.0
C      1  0.5830730000000  0.5000850000000  0.5594910000000 1.0
C      1  0.5821280000000  0.4525850000000  0.5350860000000 1.0
C      1  0.5418960000000  0.5945760000000  0.5400160000000 1.0
C      1  0.5364900000000  0.5275210000000  0.5996160000000 1.0
C      1  0.5448780000000  0.4397530000000  0.5872800000000 1.0
C      1  0.5402200000000  0.3900650000000  0.5091300000000 1.0
C      1  0.5415600000000  0.4263460000000  0.4228850000000 1.0
C      1  0.5404630000000  0.5192130000000  0.3935530000000 1.0
C      1  0.5387250000000  0.5821570000000  0.4552410000000 1.0
C      1  0.4306940000000  0.4711900000000  0.5716990000000 1.0
C      1  0.4334720000000  0.4212850000000  0.5206750000000 1.0
C      1  0.4344450000000  0.4387920000000  0.4550390000000 1.0
C      1  0.4394260000000  0.4980640000000  0.4191920000000 1.0
C      1  0.4398850000000  0.5674510000000  0.4480110000000 1.0
C      1  0.4299620000000  0.5771860000000  0.5156640000000 1.0
C      1  0.4365700000000  0.5362180000000  0.5730880000000 1.0
C      1  0.5618770000000  0.4630540000000  0.4486930000000 1.0
C      1  0.5601580000000  0.5112340000000  0.4430850000000 1.0
C      1  0.5679360000000  0.5430020000000  0.4759360000000 1.0
C      1  0.5621800000000  0.5585160000000  0.5215900000000 1.0
C      1  0.5629820000000  0.5205420000000  0.5552370000000 1.0
C      1  0.5581710000000  0.4676520000000  0.5456780000000 1.0
C      1  0.5602750000000  0.4377850000000  0.5025640000000 1.0
C      1  0.5121040000000  0.5179210000000  0.5620250000000 1.0
C      1  0.5295970000000  0.4645180000000  0.5505540000000 1.0
C      1  0.5321690000000  0.4354090000000  0.4999620000000 1.0
C      1  0.5183690000000  0.4615030000000  0.4495320000000 1.0
C      1  0.5329390000000  0.5179200000000  0.4377320000000 1.0
C      1  0.5285800000000  0.5594280000000  0.4701500000000 1.0
C      1  0.5178760000000  0.5595820000000  0.5254390000000 1.0
C      1  0.5146580000000  0.5872980000000  0.4390660000000 1.0
C      1  0.5165690000000  0.6035830000000  0.5336300000000 1.0
C      1  0.5127230000000  0.5372240000000  0.5982200000000 1.0
C      1  0.5191960000000  0.4498900000000  0.5958260000000 1.0
C      1  0.5122040000000  0.3907190000000  0.5120180000000 1.0
C      1  0.5141090000000  0.4236040000000  0.4201290000000 1.0
C      1  0.5146260000000  0.5084490000000  0.3939240000000 1.0
C      1  0.5456220000000  0.5117660000000  0.5307270000000 1.0
C      1  0.5558950000000  0.4856990000000  0.5234970000000 1.0
C      1  0.5454730000000  0.4731900000000  0.5009900000000 1.0
C      1  0.5517530000000  0.4770740000000  0.4737130000000 1.0
C      1  0.5386890000000  0.5020910000000  0.4742830000000 1.0
C      1  0.5488770000000  0.5259470000000  0.4872520000000 1.0
C      1  0.5489760000000  0.5340680000000  0.5127200000000 1.0
C      1  0.3988610000000  0.4607730000000  0.5080670000000 1.0
C      1  0.3978710000000  0.4698640000000  0.4799050000000 1.0
C      1  0.3898950000000  0.4961810000000  0.4741960000000 1.0
C      1  0.3959370000000  0.5221920000000  0.4804310000000 1.0
C      1  0.4038920000000  0.5272830000000  0.5104190000000 1.0
C      1  0.4015930000000  0.5107250000000  0.5339650000000 1.0
C      1  0.4043990000000  0.4823530000000  0.5276290000000 1.0
C      1  0.5417900000000  0.5386120000000  0.4160920000000 1.0
C      1  0.5498900000000  0.5938450000000  0.4794000000000 1.0
C      1  0.5493060000000  0.5720650000000  0.5579900000000 1.0
C      1  0.5404550000000  0.5008260000000  0.5919310000000 1.0
C      1  0.5513180000000  0.4269290000000  0.5631230000000 1.0
C      1  0.5445890000000  0.3968460000000  0.4819480000000 1.0
C      1  0.5467590000000  0.4550300000000  0.4185930000000 1.0
C      1  0.4594320000000  0.5771440000000  0.5563820000000 1.0
C      1  0.4563430000000  0.4998870000000  0.5930720000000 1.0
C      1  0.4587660000000  0.4267600000000  0.5684410000000 1.0
C      1  0.4561780000000  0.4054960000000  0.4778350000000 1.0
C      1  0.4573260000000  0.4578530000000  0.4108580000000 1.0
C      1  0.4525630000000  0.5490200000000  0.4113840000000 1.0
C      1  0.4610230000000  0.5986980000000  0.4780250000000 1.0
C      1  0.5039830000000  0.4880550000000  0.5268350000000 1.0
C      1  0.5156540000000  0.4709190000000  0.5083410000000 1.0
C      1  0.5012300000000  0.4773330000000  0.4840780000000 1.0
C      1  0.5126320000000  0.4990060000000  0.4759000000000 1.0
C      1  0.5014120000000  0.5219490000000  0.4780650000000 1.0
C      1  0.5013420000000  0.5263080000000  0.5051810000000 1.0
C      1  0.5145690000000  0.5113780000000  0.5230470000000 1.0
C      1  0.5166700000000  0.5371040000000  0.4581130000000 1.0
C      1  0.5222780000000  0.5644710000000  0.4975600000000 1.0
C      1  0.5197440000000  0.5411490000000  0.5482560000000 1.0
C      1  0.5266670000000  0.4913230000000  0.5645600000000 1.0
C      1  0.5189480000000  0.4479910000000  0.5255630000000 1.0
C      1  0.5238150000000  0.4428100000000  0.4729930000000 1.0
C      1  0.5187770000000  0.4882540000000  0.4379630000000 1.0
C      1  0.5637850000000  0.5474310000000  0.5655920000000 1.0
C      1  0.5696950000000  0.4768290000000  0.5705480000000 1.0
C      1  0.5706690000000  0.4275230000000  0.5271530000000 1.0
C      1  0.5716150000000  0.4379660000000  0.4582410000000 1.0
C      1  0.5722410000000  0.4949380000000  0.4230840000000 1.0
C      1  0.5707220000000  0.5541650000000  0.4393950000000 1.0
C      1  0.5641870000000  0.5827470000000  0.5029530000000 1.0
C      1  0.4738700000000  0.5675120000000  0.4153560000000 1.0
C      1  0.4746740000000  0.6053230000000  0.5015650000000 1.0
C      1  0.4707080000000  0.5740200000000  0.5824170000000 1.0
C      1  0.4716970000000  0.4748420000000  0.6006680000000 1.0
C      1  0.4730670000000  0.4042620000000  0.5565650000000 1.0
C      1  0.4733280000000  0.4071150000000  0.4535300000000 1.0
C      1  0.4729160000000  0.4736730000000  0.3926560000000 1.0
C      1  0.4964700000000  0.4898620000000  0.5995580000000 1.0
C      1  0.5021880000000  0.4155890000000  0.5584990000000 1.0
C      1  0.4988830000000  0.4019770000000  0.4679800000000 1.0
C      1  0.4995250000000  0.4647870000000  0.4032120000000 1.0
C      1  0.4981240000000  0.5506400000000  0.4116670000000 1.0
C      1  0.5005370000000  0.6032680000000  0.4859370000000 1.0
C      1  0.5022340000000  0.5782260000000  0.5745020000000 1.0
C      1  0.4737070000000  0.5917080000000  0.5324080000000 1.0
C      1  0.4628780000000  0.5273340000000  0.5939320000000 1.0
C      1  0.4722890000000  0.4480390000000  0.5863590000000 1.0
C      1  0.4649210000000  0.4086610000000  0.5063580000000 1.0
C      1  0.4715110000000  0.4310190000000  0.4364590000000 1.0
C      1  0.4687750000000  0.5014140000000  0.4025060000000 1.0
C      1  0.4670730000000  0.5800410000000  0.4417480000000 1.0
C      1  0.4253430000000  0.5209650000000  0.4716570000000 1.0
C      1  0.4313330000000  0.5312660000000  0.5013720000000 1.0
C      1  0.4429260000000  0.5142820000000  0.5227070000000 1.0
C      1  0.4334940000000  0.4873510000000  0.5263910000000 1.0
C      1  0.4408890000000  0.4701690000000  0.5060250000000 1.0
C      1  0.4285810000000  0.4729010000000  0.4814090000000 1.0
C      1  0.4368260000000  0.4949220000000  0.4670230000000 1.0
C      1  0.4906580000000  0.5207870000000  0.3989000000000 1.0
C      1  0.4912910000000  0.5933940000000  0.4527180000000 1.0
C      1  0.4962650000000  0.5990390000000  0.5501990000000 1.0
C      1  0.4907680000000  0.5223980000000  0.6003950000000 1.0
C      1  0.4970910000000  0.4359340000000  0.5842500000000 1.0
C      1  0.4891380000000  0.3922800000000  0.4991140000000 1.0
C      1  0.4899900000000  0.4340040000000  0.4132460000000 1.0
C      1  0.6119210000000  0.5264240000000  0.4926310000000 1.0
C      1  0.6078510000000  0.5216380000000  0.5221850000000 1.0
C      1  0.6007940000000  0.4968240000000  0.5354260000000 1.0
C      1  0.5983860000000  0.4716360000000  0.5202140000000 1.0
C      1  0.5975630000000  0.4681280000000  0.4910640000000 1.0
C      1  0.5996500000000  0.4869980000000  0.4674440000000 1.0
C      1  0.6027750000000  0.5149030000000  0.4684820000000 1.0
C      1  0.4894250000000  0.5627530000000  0.5317780000000 1.0
C      1  0.4856800000000  0.5075710000000  0.5604200000000 1.0
C      1  0.4762660000000  0.4528450000000  0.5435190000000 1.0
C      1  0.4751390000000  0.4375620000000  0.4960860000000 1.0
C      1  0.4878930000000  0.4591750000000  0.4450610000000 1.0
C      1  0.4787350000000  0.5243910000000  0.4440170000000 1.0
C      1  0.4740820000000  0.5564120000000  0.4905850000000 1.0
C      1  0.4927380000000  0.4825300000000  0.4268240000000 1.0
C      1  0.4962200000000  0.5421420000000  0.4395520000000 1.0
C      1  0.4963610000000  0.5737360000000  0.4886000000000 1.0
C      1  0.4963120000000  0.5537750000000  0.5584270000000 1.0
C      1  0.4987770000000  0.4818070000000  0.5707370000000 1.0
C      1  0.4967570000000  0.4356860000000  0.5377250000000 1.0
C      1  0.4985890000000  0.4297750000000  0.4783620000000 1.0
C      1  0.4508830000000  0.5464110000000  0.5500850000000 1.0
C      1  0.4472250000000  0.4950330000000  0.5655270000000 1.0
C      1  0.4512730000000  0.4419090000000  0.5419350000000 1.0
C      1  0.4525670000000  0.4338870000000  0.4774830000000 1.0
C      1  0.4525460000000  0.4752260000000  0.4328670000000 1.0
C      1  0.4564390000000  0.5316280000000  0.4349640000000 1.0
C      1  0.4511410000000  0.5722370000000  0.4897490000000 1.0
C      1  0.5499480000000  0.5493570000000  0.5913250000000 1.0
C      1  0.5579800000000  0.4646630000000  0.5942440000000 1.0
C      1  0.5552300000000  0.4033190000000  0.5313170000000 1.0
C      1  0.5551880000000  0.4160660000000  0.4481860000000 1.0
C      1  0.5521610000000  0.4927490000000  0.4004460000000 1.0
C      1  0.5529540000000  0.5720330000000  0.4340690000000 1.0
C      1  0.5533410000000  0.6042770000000  0.5179720000000 1.0
C      1  0.4235320000000  0.5511000000000  0.4252170000000 1.0
C      1  0.4127120000000  0.5817450000000  0.4926710000000 1.0
C      1  0.4159830000000  0.5587430000000  0.5653850000000 1.0
C      1  0.4096860000000  0.4903000000000  0.5816390000000 1.0
C      1  0.4152010000000  0.4250850000000  0.5443850000000 1.0
C      1  0.4132550000000  0.4263460000000  0.4724220000000 1.0
C      1  0.4175460000000  0.4735700000000  0.4149770000000 1.0
C      1  0.4795580000000  0.5413860000000  0.5150460000000 1.0
C      1  0.4664040000000  0.5230000000000  0.5366060000000 1.0
C      1  0.4782300000000  0.4775050000000  0.5315860000000 1.0
C      1  0.4676950000000  0.4650290000000  0.5068540000000 1.0
C      1  0.4772640000000  0.4717940000000  0.4694780000000 1.0
C      1  0.4633160000000  0.4969020000000  0.4637580000000 1.0
C      1  0.4716220000000  0.5198500000000  0.4774780000000 1.0
C      1  0.4140160000000  0.4362180000000  0.5008990000000 1.0
C      1  0.4265600000000  0.4655020000000  0.4419200000000 1.0
C      1  0.4292120000000  0.5207440000000  0.4368250000000 1.0
C      1  0.4288190000000  0.5623440000000  0.4740360000000 1.0
C      1  0.4269180000000  0.5587000000000  0.5379620000000 1.0
C      1  0.4215670000000  0.5116250000000  0.5615770000000 1.0
C      1  0.4263080000000  0.4526990000000  0.5506400000000 1.0
C      1  0.4755430000000  0.5027580000000  0.5005950000000 1.0
END
