TITL C-2441164-471-251 3.85634244530264e-07 125000 -11737.6979008026 0 0 78 (C3) n - 1
REM
REM in /home/bkarasulu/work/CARBON/AIRSS/Generating-Clusters/ReaxFF-fromJPCA2015/Units_Real/with-SteepDescent/Higher-Symm
REM
REM
REM
REM
REM
REM ./C.cell (1df0a924f5614ab8850e4351716899ee)
REM
REM compiler GCC version 9.2.1 20190827 (Red Hat 9.2.1-1)
REM options -cpp -mtune=generic -march=x86-64 -g -O0 -fpre-include=/usr/include/finclude/math-vector-fortran.h
REM seed 1050512562 2111617463 1731819326 2010239494 -172154674 -1720012533 -768228766 -1714571933 -609916306 -917598693 -1507020352 -1586340566 613893734 -1020158528 -704518422 226025427 -1981422889 838937794 1731738835 116893542 1054387451 -1120034347 -973579300 2005597833 1600474505 595241542 990838959 -421887939 -1751052590 1584857504 286929834 470871409 -240034450
REM
CELL 1.54180   50.00000   50.00000   50.00000   90.00000   90.00000   90.00000
LATT -1
SFAC C  
C      1  0.4726470000000  0.4685970000000  0.5026780000000 1.0
C      1  0.4864930000000  0.5393780000000  0.5027250000000 1.0
C      1  0.5408680000000  0.4919710000000  0.5026310000000 1.0
C      1  0.5273530000000  0.4685970000000  0.5026780000000 1.0
C      1  0.5135070000000  0.5393780000000  0.5027250000000 1.0
C      1  0.4591320000000  0.4919700000000  0.5026310000000 1.0
C      1  0.4849590000000  0.5944690000000  0.4784990000000 1.0
C      1  0.5893250000000  0.4657930000000  0.4784970000000 1.0
C      1  0.4257100000000  0.4397370000000  0.4784920000000 1.0
C      1  0.5150410000000  0.5944690000000  0.4784990000000 1.0
C      1  0.4106750000000  0.4657930000000  0.4784970000000 1.0
C      1  0.5742900000000  0.4397370000000  0.4784920000000 1.0
C      1  0.4866360000000  0.4761570000000  0.4784100000000 1.0
C      1  0.4860000000000  0.5235520000000  0.4784510000000 1.0
C      1  0.5273850000000  0.5004210000000  0.4784070000000 1.0
C      1  0.5133640000000  0.4761570000000  0.4784100000000 1.0
C      1  0.5140000000000  0.5235520000000  0.4784510000000 1.0
C      1  0.4726150000000  0.5004210000000  0.4784070000000 1.0
C      1  0.4500670000000  0.4875550000000  0.5440420000000 1.0
C      1  0.5142140000000  0.5495270000000  0.5440910000000 1.0
C      1  0.5357500000000  0.4629200000000  0.5440670000000 1.0
C      1  0.5499330000000  0.4875550000000  0.5440420000000 1.0
C      1  0.4857860000000  0.5495270000000  0.5440910000000 1.0
C      1  0.4642500000000  0.4629200000000  0.5440670000000 1.0
C      1  0.4336380000000  0.4959050000000  0.5172450000000 1.0
C      1  0.5296570000000  0.5595530000000  0.5172770000000 1.0
C      1  0.5367310000000  0.4445290000000  0.5172590000000 1.0
C      1  0.5663620000000  0.4959050000000  0.5172450000000 1.0
C      1  0.4703430000000  0.5595530000000  0.5172770000000 1.0
C      1  0.4632690000000  0.4445290000000  0.5172590000000 1.0
C      1  0.5147920000000  0.5256290000000  0.5887200000000 1.0
C      1  0.5148040000000  0.4743600000000  0.5887140000000 1.0
C      1  0.4704090000000  0.4999840000000  0.5887030000000 1.0
C      1  0.4852080000000  0.5256290000000  0.5887200000000 1.0
C      1  0.4851960000000  0.4743600000000  0.5887140000000 1.0
C      1  0.5295910000000  0.4999840000000  0.5887030000000 1.0
C      1  0.4560500000000  0.5075580000000  0.5640740000000 1.0
C      1  0.5285320000000  0.5343020000000  0.5640980000000 1.0
C      1  0.5154340000000  0.4581110000000  0.5641000000000 1.0
C      1  0.5439500000000  0.5075580000000  0.5640740000000 1.0
C      1  0.4714680000000  0.5343020000000  0.5640980000000 1.0
C      1  0.4845660000000  0.4581110000000  0.5641000000000 1.0
C      1  0.4845770000000  0.4718510000000  0.4443380000000 1.0
C      1  0.4833480000000  0.5274400000000  0.4443030000000 1.0
C      1  0.5320850000000  0.5007320000000  0.4443180000000 1.0
C      1  0.5154230000000  0.4718510000000  0.4443380000000 1.0
C      1  0.5166520000000  0.5274400000000  0.4443030000000 1.0
C      1  0.4679150000000  0.5007320000000  0.4443180000000 1.0
C      1  0.4301220000000  0.5231780000000  0.4695820000000 1.0
C      1  0.5550020000000  0.5489420000000  0.4695840000000 1.0
C      1  0.5148750000000  0.4278810000000  0.4696010000000 1.0
C      1  0.5698780000000  0.5231780000000  0.4695820000000 1.0
C      1  0.4449980000000  0.5489420000000  0.4695840000000 1.0
C      1  0.4851250000000  0.4278810000000  0.4696010000000 1.0
C      1  0.4857620000000  0.4274980000000  0.4995190000000 1.0
C      1  0.4443660000000  0.5485680000000  0.4995020000000 1.0
C      1  0.5698600000000  0.5239020000000  0.4995010000000 1.0
C      1  0.5142380000000  0.4274980000000  0.4995190000000 1.0
C      1  0.5556340000000  0.5485680000000  0.4995020000000 1.0
C      1  0.4301400000000  0.5239020000000  0.4995010000000 1.0
C      1  0.4418850000000  0.4492670000000  0.4548370000000 1.0
C      1  0.4851240000000  0.5757080000000  0.4548340000000 1.0
C      1  0.5729860000000  0.4750380000000  0.4548400000000 1.0
C      1  0.5581150000000  0.4492670000000  0.4548370000000 1.0
C      1  0.5148760000000  0.5757080000000  0.4548340000000 1.0
C      1  0.4270140000000  0.4750380000000  0.4548400000000 1.0
C      1  0.4192630000000  0.4701120000000  0.5065990000000 1.0
C      1  0.5144980000000  0.5848710000000  0.5066030000000 1.0
C      1  0.5662450000000  0.4449990000000  0.5065960000000 1.0
C      1  0.5807370000000  0.4701120000000  0.5066000000000 1.0
C      1  0.4855020000000  0.5848710000000  0.5066030000000 1.0
C      1  0.4337550000000  0.4449990000000  0.5065960000000 1.0
C      1  0.4392320000000  0.5011990000000  0.4514100000000 1.0
C      1  0.5314070000000  0.5520320000000  0.4514150000000 1.0
C      1  0.5293470000000  0.4467740000000  0.4514380000000 1.0
C      1  0.5607680000000  0.5011990000000  0.4514110000000 1.0
C      1  0.4685930000000  0.5520320000000  0.4514150000000 1.0
C      1  0.4706530000000  0.4467740000000  0.4514380000000 1.0
END
