TITL C-2441157-2117-1467 0.000577573244483906 125000 -3215.30950448916 0 0 24 (C1) n - 1
REM
REM in /home/bkarasulu/work/CARBON/AIRSS/Generating-Clusters/ReaxFF-fromJPCA2015/Units_Real/with-SteepDescent/Higher-Symm
REM
REM
REM
REM
REM
REM ./C.cell (1df0a924f5614ab8850e4351716899ee)
REM
REM compiler GCC version 9.2.1 20190827 (Red Hat 9.2.1-1)
REM options -cpp -mtune=generic -march=x86-64 -g -O0 -fpre-include=/usr/include/finclude/math-vector-fortran.h
REM seed -381025967 -2059827525 1598875354 -1399153893 -591402641 1712492994 284442249 -986735879 1191073922 -692629498 1561107 -991841655 2070240617 -2143010230 -1101209042 1899743082 -1633969616 1159289679 103339456 -1458668762 -1689246263 1536562991 -56289555 16443304 -1145960322 -2029727673 -1180980921 817890832 1060429447 -1432402079 1171376642 683372720 1407816034
REM
CELL 1.54180   50.00000   50.00000   50.00000   90.00000   90.00000   90.00000
LATT -1
SFAC C  
C      1  0.5069320000000  0.4993930000000  0.4452890000000 1.0
C      1  0.4467150000000  0.4943950000000  0.5350800000000 1.0
C      1  0.5654310000000  0.4762780000000  0.4795010000000 1.0
C      1  0.5285800000000  0.4901670000000  0.5296000000000 1.0
C      1  0.4589440000000  0.4472290000000  0.5094910000000 1.0
C      1  0.4869050000000  0.5275210000000  0.4669650000000 1.0
C      1  0.5549430000000  0.4977660000000  0.4798030000000 1.0
C      1  0.4978750000000  0.5334430000000  0.5148440000000 1.0
C      1  0.4978570000000  0.4711690000000  0.4897250000000 1.0
C      1  0.4563520000000  0.4794320000000  0.5129780000000 1.0
C      1  0.5312400000000  0.5338650000000  0.4535250000000 1.0
C      1  0.4934290000000  0.5224190000000  0.5420800000000 1.0
C      1  0.5414470000000  0.5247200000000  0.4799810000000 1.0
C      1  0.4758280000000  0.4914780000000  0.4952700000000 1.0
C      1  0.4788910000000  0.5206650000000  0.4926300000000 1.0
C      1  0.5029110000000  0.5281200000000  0.4437670000000 1.0
C      1  0.5244010000000  0.5327300000000  0.5033230000000 1.0
C      1  0.4627930000000  0.5204880000000  0.5433210000000 1.0
C      1  0.5106900000000  0.5002090000000  0.5495680000000 1.0
C      1  0.4610080000000  0.5448080000000  0.5304550000000 1.0
C      1  0.5076910000000  0.4759500000000  0.4584280000000 1.0
C      1  0.4815320000000  0.4434150000000  0.4930180000000 1.0
C      1  0.5095140000000  0.4736480000000  0.5389060000000 1.0
C      1  0.5180900000000  0.4706920000000  0.5124530000000 1.0
END
