TITL C-2441163-1170-532 0.0444319128325386 125000 -19345.0489779469 0 0 134 (C1) n - 1
REM
REM in /home/bkarasulu/work/CARBON/AIRSS/Generating-Clusters/ReaxFF-fromJPCA2015/Units_Real/with-SteepDescent/Higher-Symm
REM
REM
REM
REM
REM
REM ./C.cell (1df0a924f5614ab8850e4351716899ee)
REM
REM compiler GCC version 9.2.1 20190827 (Red Hat 9.2.1-1)
REM options -cpp -mtune=generic -march=x86-64 -g -O0 -fpre-include=/usr/include/finclude/math-vector-fortran.h
REM seed 409265908 253259693 2024746518 -923407164 915334543 678430271 -250042128 -3663618 466932763 66834961 -635018652 -385333643 -2021245816 -1400880216 447285370 -1014586290 -1878679836 -224830119 368878813 -168886290 -707203835 400205994 367563753 -24730383 1554903861 572819170 -613348497 -1266575255 -1479429740 90064171 1192132218 1439866489 1588580503
REM
CELL 1.54180   50.00000   50.00000   50.00000   90.00000   90.00000   90.00000
LATT -1
SFAC C  
C      1  0.4418900000000  0.4786410000000  0.4527420000000 1.0
C      1  0.4531530000000  0.5416200000000  0.4535540000000 1.0
C      1  0.4969860000000  0.5603720000000  0.4521740000000 1.0
C      1  0.5432170000000  0.5402750000000  0.4538140000000 1.0
C      1  0.5678790000000  0.4952380000000  0.4508570000000 1.0
C      1  0.5248680000000  0.4443930000000  0.4561310000000 1.0
C      1  0.4763790000000  0.4424440000000  0.4522260000000 1.0
C      1  0.5750450000000  0.5404310000000  0.5340020000000 1.0
C      1  0.5778410000000  0.4669480000000  0.5326380000000 1.0
C      1  0.5179220000000  0.4252410000000  0.5295400000000 1.0
C      1  0.4487610000000  0.4301870000000  0.5355580000000 1.0
C      1  0.4179360000000  0.4966010000000  0.5325800000000 1.0
C      1  0.4469910000000  0.5613040000000  0.5337090000000 1.0
C      1  0.5145120000000  0.5838620000000  0.5318370000000 1.0
C      1  0.4624560000000  0.5537980000000  0.5558630000000 1.0
C      1  0.5174070000000  0.5591150000000  0.5531210000000 1.0
C      1  0.5619780000000  0.5274620000000  0.5550730000000 1.0
C      1  0.5573140000000  0.4703670000000  0.5536920000000 1.0
C      1  0.5095230000000  0.4391560000000  0.5522260000000 1.0
C      1  0.4569760000000  0.4504910000000  0.5546470000000 1.0
C      1  0.4355350000000  0.5044760000000  0.5539380000000 1.0
C      1  0.5313060000000  0.5093920000000  0.5360960000000 1.0
C      1  0.5269990000000  0.4833900000000  0.5463670000000 1.0
C      1  0.5034060000000  0.4692480000000  0.5438410000000 1.0
C      1  0.4756480000000  0.4772610000000  0.5394060000000 1.0
C      1  0.4664070000000  0.5076030000000  0.5411990000000 1.0
C      1  0.4859010000000  0.5303310000000  0.5393780000000 1.0
C      1  0.5143450000000  0.5303580000000  0.5438420000000 1.0
C      1  0.4959880000000  0.5452380000000  0.4057320000000 1.0
C      1  0.5330550000000  0.5309500000000  0.4036650000000 1.0
C      1  0.5460180000000  0.4927840000000  0.4055690000000 1.0
C      1  0.5274810000000  0.4576300000000  0.4073910000000 1.0
C      1  0.4877180000000  0.4600550000000  0.4048280000000 1.0
C      1  0.4555610000000  0.4860110000000  0.4081330000000 1.0
C      1  0.4604440000000  0.5259620000000  0.4109200000000 1.0
C      1  0.5282630000000  0.4988260000000  0.5092360000000 1.0
C      1  0.5187910000000  0.4699190000000  0.5024540000000 1.0
C      1  0.4885350000000  0.4688450000000  0.4993580000000 1.0
C      1  0.4640230000000  0.4797030000000  0.5110620000000 1.0
C      1  0.4613480000000  0.5119650000000  0.5117950000000 1.0
C      1  0.4865960000000  0.5266900000000  0.5097010000000 1.0
C      1  0.5125990000000  0.5206250000000  0.4986160000000 1.0
C      1  0.4875010000000  0.4681120000000  0.5870080000000 1.0
C      1  0.4676220000000  0.4901540000000  0.5866900000000 1.0
C      1  0.4718270000000  0.5194840000000  0.5866700000000 1.0
C      1  0.4975500000000  0.5341470000000  0.5873690000000 1.0
C      1  0.5253730000000  0.5233170000000  0.5873710000000 1.0
C      1  0.5345220000000  0.4951350000000  0.5882480000000 1.0
C      1  0.5173030000000  0.4700150000000  0.5881410000000 1.0
C      1  0.4117930000000  0.4801150000000  0.4925710000000 1.0
C      1  0.4286740000000  0.5574660000000  0.4921720000000 1.0
C      1  0.4987230000000  0.5983740000000  0.4900720000000 1.0
C      1  0.5757920000000  0.5591890000000  0.4928920000000 1.0
C      1  0.5936220000000  0.4794380000000  0.4917550000000 1.0
C      1  0.5387360000000  0.4176790000000  0.4907340000000 1.0
C      1  0.4560830000000  0.4131620000000  0.4919870000000 1.0
C      1  0.4313670000000  0.4612790000000  0.5621720000000 1.0
C      1  0.4260180000000  0.5305050000000  0.5617380000000 1.0
C      1  0.4777660000000  0.5766650000000  0.5629740000000 1.0
C      1  0.5442260000000  0.5660790000000  0.5614010000000 1.0
C      1  0.5801570000000  0.5059550000000  0.5632360000000 1.0
C      1  0.5526490000000  0.4412720000000  0.5603200000000 1.0
C      1  0.4879730000000  0.4217770000000  0.5622170000000 1.0
C      1  0.4553940000000  0.4563340000000  0.4371740000000 1.0
C      1  0.4277380000000  0.5028530000000  0.4429460000000 1.0
C      1  0.4698970000000  0.5605830000000  0.4392850000000 1.0
C      1  0.5266970000000  0.5607730000000  0.4408360000000 1.0
C      1  0.5591960000000  0.5199170000000  0.4398060000000 1.0
C      1  0.5626050000000  0.4689280000000  0.4436020000000 1.0
C      1  0.5023100000000  0.4340920000000  0.4409010000000 1.0
C      1  0.4746230000000  0.5917900000000  0.5374940000000 1.0
C      1  0.5547280000000  0.5774520000000  0.5361190000000 1.0
C      1  0.5957460000000  0.5052110000000  0.5378310000000 1.0
C      1  0.5572780000000  0.4325130000000  0.5322290000000 1.0
C      1  0.4846330000000  0.4057390000000  0.5378160000000 1.0
C      1  0.4178020000000  0.4568910000000  0.5361480000000 1.0
C      1  0.4151060000000  0.5367250000000  0.5349880000000 1.0
C      1  0.5347970000000  0.4388080000000  0.5124090000000 1.0
C      1  0.4660130000000  0.4160730000000  0.5189800000000 1.0
C      1  0.4275870000000  0.4762070000000  0.5165370000000 1.0
C      1  0.4373960000000  0.5402580000000  0.5154190000000 1.0
C      1  0.4921530000000  0.5867590000000  0.5154710000000 1.0
C      1  0.5637130000000  0.5578560000000  0.5184920000000 1.0
C      1  0.5883430000000  0.4865870000000  0.5190600000000 1.0
C      1  0.5211490000000  0.4693340000000  0.4721400000000 1.0
C      1  0.4855870000000  0.4703390000000  0.4704220000000 1.0
C      1  0.4671890000000  0.4920230000000  0.4649060000000 1.0
C      1  0.4713160000000  0.5201220000000  0.4631630000000 1.0
C      1  0.4954030000000  0.5346100000000  0.4636800000000 1.0
C      1  0.5190380000000  0.5245450000000  0.4712190000000 1.0
C      1  0.5201270000000  0.4963310000000  0.4557120000000 1.0
C      1  0.4149580000000  0.5181800000000  0.4641260000000 1.0
C      1  0.4623680000000  0.5811000000000  0.4809150000000 1.0
C      1  0.5384450000000  0.5818080000000  0.4723780000000 1.0
C      1  0.5864380000000  0.5194770000000  0.4865310000000 1.0
C      1  0.5687090000000  0.4485690000000  0.4639370000000 1.0
C      1  0.5007620000000  0.4114000000000  0.4750330000000 1.0
C      1  0.4285560000000  0.4406290000000  0.4791390000000 1.0
C      1  0.4030620000000  0.5162520000000  0.5180210000000 1.0
C      1  0.4481800000000  0.5885170000000  0.5257550000000 1.0
C      1  0.5375040000000  0.5946550000000  0.5201190000000 1.0
C      1  0.6000620000000  0.5309550000000  0.5244350000000 1.0
C      1  0.5787980000000  0.4436960000000  0.5166080000000 1.0
C      1  0.5089860000000  0.4004180000000  0.5231630000000 1.0
C      1  0.4230800000000  0.4308790000000  0.5244000000000 1.0
C      1  0.4043490000000  0.5074760000000  0.4894550000000 1.0
C      1  0.4403650000000  0.5842250000000  0.4971590000000 1.0
C      1  0.5283920000000  0.5991980000000  0.4912530000000 1.0
C      1  0.5990280000000  0.5417820000000  0.4964470000000 1.0
C      1  0.5834450000000  0.4523980000000  0.4886300000000 1.0
C      1  0.5166800000000  0.3984380000000  0.4940660000000 1.0
C      1  0.4290620000000  0.4211520000000  0.4966030000000 1.0
C      1  0.4626960000000  0.4623360000000  0.4112340000000 1.0
C      1  0.4427270000000  0.5075970000000  0.4188680000000 1.0
C      1  0.4715850000000  0.5488520000000  0.4131860000000 1.0
C      1  0.5204050000000  0.5515880000000  0.4138930000000 1.0
C      1  0.5530550000000  0.5167340000000  0.4119000000000 1.0
C      1  0.5487960000000  0.4693540000000  0.4175160000000 1.0
C      1  0.5064800000000  0.4443810000000  0.4138150000000 1.0
C      1  0.5457830000000  0.5410290000000  0.5754250000000 1.0
C      1  0.5611350000000  0.4894600000000  0.5773060000000 1.0
C      1  0.5293510000000  0.4463140000000  0.5761710000000 1.0
C      1  0.4758260000000  0.4438470000000  0.5755850000000 1.0
C      1  0.4413060000000  0.4845340000000  0.5754160000000 1.0
C      1  0.4507450000000  0.5362250000000  0.5753520000000 1.0
C      1  0.4976460000000  0.5606660000000  0.5756160000000 1.0
C      1  0.5580750000000  0.5635220000000  0.4685990000000 1.0
C      1  0.5874030000000  0.4972370000000  0.4704600000000 1.0
C      1  0.5476440000000  0.4285030000000  0.4651450000000 1.0
C      1  0.4748910000000  0.4181310000000  0.4700370000000 1.0
C      1  0.4210440000000  0.4641380000000  0.4706720000000 1.0
C      1  0.4268590000000  0.5446900000000  0.4659850000000 1.0
C      1  0.4857820000000  0.5847410000000  0.4686980000000 1.0
C      1  0.5088390000000  0.4969940000000  0.4332300000000 1.0
END
