TITL C-2441163-1170-1470 0.000615424136095917 125000 -7400.86338907794 0 0 50 (C1) n - 1
REM
REM in /home/bkarasulu/work/CARBON/AIRSS/Generating-Clusters/ReaxFF-fromJPCA2015/Units_Real/with-SteepDescent/Higher-Symm
REM
REM
REM
REM
REM
REM ./C.cell (1df0a924f5614ab8850e4351716899ee)
REM
REM compiler GCC version 9.2.1 20190827 (Red Hat 9.2.1-1)
REM options -cpp -mtune=generic -march=x86-64 -g -O0 -fpre-include=/usr/include/finclude/math-vector-fortran.h
REM seed -25813395 2014448054 -331082727 2022329330 1238010369 -239671576 -1658118094 436373617 50950049 1707358141 -1741404411 25326397 -1012136050 2002450234 -1107892959 -504057225 650580922 885441565 -2097332432 -1327371487 -1136281131 1715824143 792568482 -438382595 -1108630206 857466763 -913646119 160915904 2056309383 420540594 -746551316 209889959 316464583
REM
CELL 1.54180   50.00000   50.00000   50.00000   90.00000   90.00000   90.00000
LATT -1
SFAC C  
C      1  0.4412970000000  0.5318530000000  0.5342860000000 1.0
C      1  0.4407430000000  0.4667290000000  0.5375360000000 1.0
C      1  0.5064240000000  0.5132110000000  0.5022980000000 1.0
C      1  0.5057090000000  0.4861470000000  0.5041740000000 1.0
C      1  0.5176840000000  0.5611160000000  0.4527190000000 1.0
C      1  0.5109170000000  0.4547520000000  0.4480890000000 1.0
C      1  0.5063150000000  0.5605940000000  0.5211060000000 1.0
C      1  0.5073270000000  0.4382100000000  0.5234640000000 1.0
C      1  0.5240080000000  0.4442720000000  0.4722480000000 1.0
C      1  0.5307740000000  0.5606200000000  0.4774580000000 1.0
C      1  0.4847620000000  0.4718680000000  0.5530130000000 1.0
C      1  0.4844680000000  0.5281780000000  0.5525370000000 1.0
C      1  0.5305200000000  0.5537930000000  0.5365940000000 1.0
C      1  0.5314860000000  0.4459160000000  0.5385560000000 1.0
C      1  0.5324680000000  0.4695510000000  0.5547410000000 1.0
C      1  0.5319990000000  0.5308990000000  0.5537580000000 1.0
C      1  0.5054330000000  0.5563580000000  0.4921110000000 1.0
C      1  0.5051250000000  0.4437680000000  0.4949270000000 1.0
C      1  0.5381900000000  0.4841030000000  0.5090640000000 1.0
C      1  0.5387010000000  0.5149630000000  0.5084130000000 1.0
C      1  0.4556780000000  0.5564500000000  0.5286950000000 1.0
C      1  0.4557350000000  0.4428900000000  0.5307060000000 1.0
C      1  0.4410690000000  0.4575610000000  0.5092030000000 1.0
C      1  0.4444200000000  0.5409940000000  0.5060990000000 1.0
C      1  0.5176290000000  0.5149240000000  0.4328620000000 1.0
C      1  0.5307570000000  0.4912190000000  0.4305000000000 1.0
C      1  0.5464890000000  0.4686420000000  0.5315660000000 1.0
C      1  0.5461740000000  0.5311630000000  0.5306050000000 1.0
C      1  0.5535300000000  0.5139250000000  0.4809830000000 1.0
C      1  0.5532250000000  0.4850650000000  0.4818210000000 1.0
C      1  0.5090790000000  0.5145460000000  0.5588360000000 1.0
C      1  0.5092810000000  0.4857700000000  0.5590900000000 1.0
C      1  0.4958260000000  0.5108140000000  0.4532740000000 1.0
C      1  0.4920850000000  0.4768590000000  0.4556990000000 1.0
C      1  0.4835870000000  0.4461440000000  0.5390350000000 1.0
C      1  0.4833290000000  0.5535570000000  0.5378730000000 1.0
C      1  0.5488820000000  0.5376800000000  0.4652660000000 1.0
C      1  0.5478850000000  0.4615620000000  0.4658370000000 1.0
C      1  0.4591270000000  0.4853030000000  0.5506780000000 1.0
C      1  0.4590290000000  0.5144850000000  0.5497530000000 1.0
C      1  0.5370650000000  0.4649050000000  0.4372680000000 1.0
C      1  0.5331810000000  0.5409170000000  0.4400770000000 1.0
C      1  0.4454970000000  0.4842040000000  0.4652920000000 1.0
C      1  0.4484160000000  0.5142840000000  0.4634170000000 1.0
C      1  0.4604470000000  0.5298670000000  0.4848250000000 1.0
C      1  0.4559820000000  0.4694570000000  0.4880380000000 1.0
C      1  0.4651520000000  0.4813780000000  0.4433850000000 1.0
C      1  0.4684700000000  0.5105940000000  0.4418900000000 1.0
C      1  0.4874040000000  0.4680630000000  0.4878700000000 1.0
C      1  0.4912210000000  0.5298810000000  0.4824630000000 1.0
END
