TITL C-2441166-8118-275 0.00915991684700289 125000 -8317.98897592711 0 0 60 (C1) n - 1
REM
REM in /home/bkarasulu/work/CARBON/AIRSS/Generating-Clusters/ReaxFF-fromJPCA2015/Units_Real/with-SteepDescent/Higher-Symm
REM
REM
REM
REM
REM
REM ./C.cell (1df0a924f5614ab8850e4351716899ee)
REM
REM compiler GCC version 9.2.1 20190827 (Red Hat 9.2.1-1)
REM options -cpp -mtune=generic -march=x86-64 -g -O0 -fpre-include=/usr/include/finclude/math-vector-fortran.h
REM seed 1057496267 514546262 -2089601758 -1489575466 -10622404 1298252361 125138016 -531000943 211074311 -118033263 1865725797 -1131383161 1497092503 818179395 1154413685 1078471278 1474531743 1425688943 118216643 114193989 375477647 -1252295621 1972408071 -361534656 -1044576942 -1498368827 -227211312 2059964813 -2124666050 -1559781379 1031056977 962562618 1358779550
REM
CELL 1.54180   50.00000   50.00000   50.00000   90.00000   90.00000   90.00000
LATT -1
SFAC C  
C      1  0.4567620000000  0.5113490000000  0.4548840000000 1.0
C      1  0.5110130000000  0.4570040000000  0.4549290000000 1.0
C      1  0.5313020000000  0.5320140000000  0.4530080000000 1.0
C      1  0.5520910000000  0.4855100000000  0.4517960000000 1.0
C      1  0.4847230000000  0.5531420000000  0.4504820000000 1.0
C      1  0.4612270000000  0.4608260000000  0.4496170000000 1.0
C      1  0.5813860000000  0.5090890000000  0.5264540000000 1.0
C      1  0.4536250000000  0.5620710000000  0.5274620000000 1.0
C      1  0.4689350000000  0.4304730000000  0.5269740000000 1.0
C      1  0.5742420000000  0.4750100000000  0.4924920000000 1.0
C      1  0.4828670000000  0.5783770000000  0.4913950000000 1.0
C      1  0.4398090000000  0.4453480000000  0.4924210000000 1.0
C      1  0.5072510000000  0.4872470000000  0.4546240000000 1.0
C      1  0.5114000000000  0.5120570000000  0.4402600000000 1.0
C      1  0.4870570000000  0.5052090000000  0.4538640000000 1.0
C      1  0.4362920000000  0.5211500000000  0.5332490000000 1.0
C      1  0.5109550000000  0.4389400000000  0.5348280000000 1.0
C      1  0.5483520000000  0.5443500000000  0.5335210000000 1.0
C      1  0.5340900000000  0.5248800000000  0.4851620000000 1.0
C      1  0.4608310000000  0.5173810000000  0.4851650000000 1.0
C      1  0.5013050000000  0.4555860000000  0.4867010000000 1.0
C      1  0.4734230000000  0.5205070000000  0.5524510000000 1.0
C      1  0.4807110000000  0.4623560000000  0.5523940000000 1.0
C      1  0.5419780000000  0.5038060000000  0.5555240000000 1.0
C      1  0.4902860000000  0.4292950000000  0.4915170000000 1.0
C      1  0.5622650000000  0.5249950000000  0.4928740000000 1.0
C      1  0.4468180000000  0.5414470000000  0.4917520000000 1.0
C      1  0.5637580000000  0.4915960000000  0.5437110000000 1.0
C      1  0.4759570000000  0.5477460000000  0.5405890000000 1.0
C      1  0.4728330000000  0.4613020000000  0.5283670000000 1.0
C      1  0.5253810000000  0.5478990000000  0.5471900000000 1.0
C      1  0.4500590000000  0.5017400000000  0.5454540000000 1.0
C      1  0.5227070000000  0.4603370000000  0.5478770000000 1.0
C      1  0.5809860000000  0.5022150000000  0.4980590000000 1.0
C      1  0.4574650000000  0.5690830000000  0.4989690000000 1.0
C      1  0.4609450000000  0.4271040000000  0.4985490000000 1.0
C      1  0.5478430000000  0.4688940000000  0.5332520000000 1.0
C      1  0.5019080000000  0.5575430000000  0.5317010000000 1.0
C      1  0.4488270000000  0.4758400000000  0.5297150000000 1.0
C      1  0.4371200000000  0.4714010000000  0.5035940000000 1.0
C      1  0.5531620000000  0.4617800000000  0.5054160000000 1.0
C      1  0.5053150000000  0.5674950000000  0.5044870000000 1.0
C      1  0.4311800000000  0.5439020000000  0.5189720000000 1.0
C      1  0.4961910000000  0.4202100000000  0.5200400000000 1.0
C      1  0.5710750000000  0.5362990000000  0.5195280000000 1.0
C      1  0.5118450000000  0.5114290000000  0.4952000000000 1.0
C      1  0.4856790000000  0.5044500000000  0.4988710000000 1.0
C      1  0.4927020000000  0.4761960000000  0.5039110000000 1.0
C      1  0.5101540000000  0.5527040000000  0.4363080000000 1.0
C      1  0.4508120000000  0.4835480000000  0.4364860000000 1.0
C      1  0.5391010000000  0.4643570000000  0.4383810000000 1.0
C      1  0.5010110000000  0.4781050000000  0.5626800000000 1.0
C      1  0.5225640000000  0.5209940000000  0.5639040000000 1.0
C      1  0.4964030000000  0.5068970000000  0.5640840000000 1.0
C      1  0.4861410000000  0.4465040000000  0.4410360000000 1.0
C      1  0.5530010000000  0.5145910000000  0.4415840000000 1.0
C      1  0.4601700000000  0.5392340000000  0.4417940000000 1.0
C      1  0.4535600000000  0.4640000000000  0.4808070000000 1.0
C      1  0.5505350000000  0.4792570000000  0.4823930000000 1.0
C      1  0.4926140000000  0.5559300000000  0.4812920000000 1.0
END
