TITL C-2441156-4686-9 0.0822784187872031 125000 -22953.8925797947 0 0 168 (C1) n - 1
REM
REM in /home/bkarasulu/work/CARBON/AIRSS/Generating-Clusters/ReaxFF-fromJPCA2015/Units_Real/with-SteepDescent/Higher-Symm
REM
REM
REM
REM
REM
REM ./C.cell (1df0a924f5614ab8850e4351716899ee)
REM
REM compiler GCC version 9.2.1 20190827 (Red Hat 9.2.1-1)
REM options -cpp -mtune=generic -march=x86-64 -g -O0 -fpre-include=/usr/include/finclude/math-vector-fortran.h
REM seed -521636220 1372989636 -1658258364 -1841800350 1584871605 1316379 -1745469057 -1407667736 1215704538 -625503184 363748145 -1233476152 -639143319 641560309 -1998500320 767262640 -855994713 772673396 1114882274 -1378659972 1734257814 -932843090 -1131820925 1032019456 -1305541015 -540149074 918312847 -502477155 -44862023 -522372319 -337660379 -1086081442 1604841335
REM
CELL 1.54180   50.00000   50.00000   50.00000   90.00000   90.00000   90.00000
LATT -1
SFAC C  
C      1  0.5055750000000  0.5987860000000  0.5343570000000 1.0
C      1  0.5041290000000  0.5358340000000  0.5990390000000 1.0
C      1  0.5041250000000  0.4448040000000  0.5874000000000 1.0
C      1  0.5050730000000  0.3951610000000  0.5118430000000 1.0
C      1  0.5044620000000  0.4254260000000  0.4263230000000 1.0
C      1  0.5049220000000  0.5113620000000  0.3960040000000 1.0
C      1  0.5049840000000  0.5890000000000  0.4429590000000 1.0
C      1  0.5309420000000  0.5802840000000  0.4356090000000 1.0
C      1  0.5317810000000  0.6012990000000  0.5238890000000 1.0
C      1  0.5306040000000  0.5451130000000  0.5921540000000 1.0
C      1  0.5306290000000  0.4540910000000  0.5942540000000 1.0
C      1  0.5311180000000  0.4011970000000  0.5225680000000 1.0
C      1  0.5308920000000  0.4193200000000  0.4354250000000 1.0
C      1  0.5313320000000  0.5004320000000  0.3971630000000 1.0
C      1  0.5320430000000  0.5510060000000  0.5630710000000 1.0
C      1  0.5340240000000  0.4809860000000  0.5813190000000 1.0
C      1  0.5306830000000  0.4286920000000  0.5349860000000 1.0
C      1  0.5332930000000  0.4265400000000  0.4642270000000 1.0
C      1  0.5330900000000  0.4816400000000  0.4202080000000 1.0
C      1  0.5317750000000  0.5504450000000  0.4368360000000 1.0
C      1  0.5341010000000  0.5829080000000  0.5004690000000 1.0
C      1  0.4778340000000  0.5212540000000  0.4469430000000 1.0
C      1  0.4714680000000  0.5547050000000  0.4799720000000 1.0
C      1  0.4809950000000  0.5445690000000  0.5304040000000 1.0
C      1  0.4719830000000  0.5068050000000  0.5583160000000 1.0
C      1  0.4810020000000  0.4600290000000  0.5356090000000 1.0
C      1  0.4714160000000  0.4406900000000  0.4906220000000 1.0
C      1  0.4769410000000  0.4691330000000  0.4513280000000 1.0
C      1  0.5691320000000  0.5282650000000  0.5066170000000 1.0
C      1  0.5752580000000  0.5116640000000  0.5243250000000 1.0
C      1  0.5682860000000  0.4875610000000  0.5267050000000 1.0
C      1  0.5754990000000  0.4744570000000  0.5061820000000 1.0
C      1  0.5675110000000  0.4761580000000  0.4825670000000 1.0
C      1  0.5684000000000  0.5003240000000  0.4707200000000 1.0
C      1  0.5762090000000  0.5199310000000  0.4838360000000 1.0
C      1  0.5914340000000  0.5210900000000  0.5430700000000 1.0
C      1  0.5911150000000  0.4792980000000  0.5443480000000 1.0
C      1  0.5914850000000  0.4539510000000  0.5111180000000 1.0
C      1  0.5906330000000  0.4622120000000  0.4701560000000 1.0
C      1  0.5907270000000  0.4995520000000  0.4515320000000 1.0
C      1  0.5915930000000  0.5367940000000  0.4704240000000 1.0
C      1  0.5916130000000  0.5476340000000  0.5107810000000 1.0
C      1  0.4860080000000  0.5933880000000  0.5142380000000 1.0
C      1  0.4826680000000  0.5476910000000  0.5834900000000 1.0
C      1  0.4866520000000  0.4671060000000  0.5837800000000 1.0
C      1  0.4839990000000  0.4069140000000  0.5278960000000 1.0
C      1  0.4830770000000  0.4197130000000  0.4451600000000 1.0
C      1  0.4839920000000  0.4929500000000  0.4039420000000 1.0
C      1  0.4842560000000  0.5718500000000  0.4343240000000 1.0
C      1  0.5148950000000  0.4027790000000  0.4848790000000 1.0
C      1  0.5146320000000  0.4507690000000  0.4146780000000 1.0
C      1  0.5151070000000  0.5364750000000  0.4082010000000 1.0
C      1  0.5140460000000  0.5942420000000  0.4703350000000 1.0
C      1  0.5157650000000  0.5811910000000  0.5560550000000 1.0
C      1  0.5139880000000  0.5080620000000  0.5983950000000 1.0
C      1  0.5162560000000  0.4271790000000  0.5659770000000 1.0
C      1  0.5850600000000  0.4354990000000  0.4825000000000 1.0
C      1  0.5843910000000  0.4720920000000  0.4386660000000 1.0
C      1  0.5847590000000  0.5294930000000  0.4407090000000 1.0
C      1  0.5853440000000  0.5657550000000  0.4873750000000 1.0
C      1  0.5844770000000  0.5516520000000  0.5432100000000 1.0
C      1  0.5846080000000  0.4981190000000  0.5677000000000 1.0
C      1  0.5843010000000  0.4469700000000  0.5406110000000 1.0
C      1  0.4948340000000  0.5383930000000  0.4798510000000 1.0
C      1  0.4990100000000  0.5453970000000  0.5092360000000 1.0
C      1  0.4959710000000  0.5096020000000  0.5440090000000 1.0
C      1  0.4990330000000  0.4806310000000  0.5424410000000 1.0
C      1  0.4955660000000  0.4536740000000  0.4978060000000 1.0
C      1  0.4988520000000  0.4673670000000  0.4709170000000 1.0
C      1  0.4984310000000  0.5054730000000  0.4578150000000 1.0
C      1  0.4361760000000  0.4306860000000  0.5521420000000 1.0
C      1  0.4357470000000  0.4142600000000  0.4780070000000 1.0
C      1  0.4359240000000  0.4651680000000  0.4198140000000 1.0
C      1  0.4358960000000  0.5399530000000  0.4238400000000 1.0
C      1  0.4316570000000  0.5833850000000  0.4865870000000 1.0
C      1  0.4369360000000  0.5670750000000  0.5568090000000 1.0
C      1  0.4342440000000  0.4950670000000  0.5868900000000 1.0
C      1  0.4161140000000  0.5576600000000  0.4764130000000 1.0
C      1  0.4177160000000  0.5556370000000  0.5331920000000 1.0
C      1  0.4151340000000  0.5074650000000  0.5624910000000 1.0
C      1  0.4181060000000  0.4567830000000  0.5458880000000 1.0
C      1  0.4164560000000  0.4331910000000  0.4923560000000 1.0
C      1  0.4148770000000  0.4666500000000  0.4452370000000 1.0
C      1  0.4158590000000  0.5203270000000  0.4398240000000 1.0
C      1  0.5627790000000  0.4316570000000  0.4620910000000 1.0
C      1  0.5623940000000  0.4865570000000  0.4230970000000 1.0
C      1  0.5618020000000  0.5508190000000  0.4425720000000 1.0
C      1  0.5632940000000  0.5783320000000  0.5042160000000 1.0
C      1  0.5614200000000  0.5444570000000  0.5623030000000 1.0
C      1  0.5631780000000  0.4783570000000  0.5759490000000 1.0
C      1  0.5610200000000  0.4298580000000  0.5294980000000 1.0
C      1  0.4851490000000  0.4679260000000  0.4203540000000 1.0
C      1  0.4858740000000  0.5439880000000  0.4249200000000 1.0
C      1  0.4847320000000  0.5847140000000  0.4858510000000 1.0
C      1  0.4860780000000  0.5617770000000  0.5573820000000 1.0
C      1  0.4841750000000  0.4959880000000  0.5855360000000 1.0
C      1  0.4860940000000  0.4301270000000  0.5465940000000 1.0
C      1  0.4836220000000  0.4163200000000  0.4748040000000 1.0
C      1  0.4139950000000  0.4760220000000  0.5240030000000 1.0
C      1  0.4190330000000  0.4658450000000  0.4956620000000 1.0
C      1  0.4122950000000  0.4820290000000  0.4708520000000 1.0
C      1  0.4123920000000  0.5106700000000  0.4681240000000 1.0
C      1  0.4122540000000  0.5319990000000  0.4891760000000 1.0
C      1  0.4137810000000  0.5301260000000  0.5185690000000 1.0
C      1  0.4130130000000  0.5040190000000  0.5331060000000 1.0
C      1  0.4601850000000  0.5269490000000  0.5200080000000 1.0
C      1  0.4572110000000  0.5008680000000  0.5339800000000 1.0
C      1  0.4608750000000  0.4747580000000  0.5215930000000 1.0
C      1  0.4530690000000  0.4656650000000  0.4928840000000 1.0
C      1  0.4594280000000  0.4840460000000  0.4691270000000 1.0
C      1  0.4588770000000  0.5133700000000  0.4685930000000 1.0
C      1  0.4565020000000  0.5328690000000  0.4913860000000 1.0
C      1  0.5645290000000  0.5147700000000  0.4214930000000 1.0
C      1  0.5637360000000  0.5697470000000  0.4634380000000 1.0
C      1  0.5649490000000  0.5733700000000  0.5323540000000 1.0
C      1  0.5631690000000  0.5200350000000  0.5759330000000 1.0
C      1  0.5648300000000  0.4521640000000  0.5648250000000 1.0
C      1  0.5637290000000  0.4219380000000  0.5024930000000 1.0
C      1  0.5638380000000  0.4483390000000  0.4394270000000 1.0
C      1  0.4372060000000  0.4251230000000  0.4526900000000 1.0
C      1  0.4381310000000  0.4912050000000  0.4115630000000 1.0
C      1  0.4400020000000  0.5622920000000  0.4397880000000 1.0
C      1  0.4449210000000  0.5799790000000  0.5107960000000 1.0
C      1  0.4365910000000  0.5477200000000  0.5765420000000 1.0
C      1  0.4408520000000  0.4677860000000  0.5849060000000 1.0
C      1  0.4389870000000  0.4171540000000  0.5281370000000 1.0
C      1  0.4197220000000  0.5780080000000  0.5153990000000 1.0
C      1  0.4165670000000  0.5343850000000  0.5664950000000 1.0
C      1  0.4181940000000  0.4678570000000  0.5717550000000 1.0
C      1  0.4169380000000  0.4263210000000  0.5186580000000 1.0
C      1  0.4168610000000  0.4408780000000  0.4543180000000 1.0
C      1  0.4159620000000  0.4989070000000  0.4223990000000 1.0
C      1  0.4160800000000  0.5596640000000  0.4490230000000 1.0
C      1  0.5427290000000  0.4356530000000  0.5759090000000 1.0
C      1  0.5426730000000  0.4026640000000  0.4963260000000 1.0
C      1  0.5422470000000  0.4411960000000  0.4212940000000 1.0
C      1  0.5428490000000  0.5254250000000  0.4051790000000 1.0
C      1  0.5421290000000  0.5898050000000  0.4604600000000 1.0
C      1  0.5434310000000  0.5876840000000  0.5465350000000 1.0
C      1  0.5416580000000  0.5190050000000  0.5955550000000 1.0
C      1  0.5213880000000  0.4977270000000  0.4433990000000 1.0
C      1  0.5191420000000  0.5434560000000  0.4637560000000 1.0
C      1  0.5244420000000  0.5575940000000  0.5105960000000 1.0
C      1  0.5184880000000  0.5267470000000  0.5488780000000 1.0
C      1  0.5245240000000  0.4768710000000  0.5542400000000 1.0
C      1  0.5167050000000  0.4482920000000  0.5163140000000 1.0
C      1  0.5233920000000  0.4538160000000  0.4668580000000 1.0
C      1  0.4626580000000  0.5793170000000  0.5529830000000 1.0
C      1  0.4588670000000  0.5083810000000  0.5964540000000 1.0
C      1  0.4623310000000  0.4306530000000  0.5639720000000 1.0
C      1  0.4603620000000  0.4018440000000  0.4871890000000 1.0
C      1  0.4608420000000  0.4508880000000  0.4181710000000 1.0
C      1  0.4612430000000  0.5340710000000  0.4109530000000 1.0
C      1  0.4593330000000  0.5920010000000  0.4725470000000 1.0
C      1  0.5296980000000  0.4721300000000  0.5097740000000 1.0
C      1  0.5366540000000  0.4739060000000  0.4828020000000 1.0
C      1  0.5359810000000  0.5001020000000  0.4691530000000 1.0
C      1  0.5327560000000  0.5250950000000  0.4804280000000 1.0
C      1  0.5380910000000  0.5331290000000  0.5066500000000 1.0
C      1  0.5317170000000  0.5150440000000  0.5270780000000 1.0
C      1  0.5375420000000  0.4874950000000  0.5312230000000 1.0
C      1  0.4582840000000  0.5359830000000  0.5893640000000 1.0
C      1  0.4643460000000  0.4516490000000  0.5834340000000 1.0
C      1  0.4598470000000  0.4037610000000  0.5153380000000 1.0
C      1  0.4589920000000  0.4289980000000  0.4356570000000 1.0
C      1  0.4601880000000  0.5064620000000  0.4040220000000 1.0
C      1  0.4604860000000  0.5802710000000  0.4460710000000 1.0
C      1  0.4627370000000  0.5909920000000  0.5274070000000 1.0
END
