TITL C-2441168-9922-1047 -0.000193971081787731 125000 -5659.1978770868 0 0 37 (Cs) n - 1
REM
REM in /home/bkarasulu/work/CARBON/AIRSS/Generating-Clusters/ReaxFF-fromJPCA2015/Units_Real/with-SteepDescent/Higher-Symm
REM
REM
REM
REM
REM
REM ./C.cell (1df0a924f5614ab8850e4351716899ee)
REM
REM compiler GCC version 9.2.1 20190827 (Red Hat 9.2.1-1)
REM options -cpp -mtune=generic -march=x86-64 -g -O0 -fpre-include=/usr/include/finclude/math-vector-fortran.h
REM seed -1108611931 2140292592 1565586115 2082273142 1467837468 1561822008 1289378027 560348345 -1935601573 1328542220 1552748382 -348508513 -1833278067 1597934938 -794109150 1219366968 51450753 593500587 -1518903123 -1754793781 -90944141 937831271 -1342235350 2114082371 1430248808 -858355328 -57455507 -694408225 954225574 108433748 -817981228 320547626 -560819365
REM
CELL 1.54180   50.00000   50.00000   50.00000   90.00000   90.00000   90.00000
LATT -1
SFAC C  
C      1  0.5045470000000  0.4775460000000  0.5495720000000 1.0
C      1  0.5045340000000  0.4775250000000  0.4498870000000 1.0
C      1  0.5529410000000  0.4886590000000  0.4690630000000 1.0
C      1  0.5529720000000  0.4887000000000  0.5303560000000 1.0
C      1  0.5115730000000  0.4459350000000  0.4851890000000 1.0
C      1  0.5115860000000  0.4459390000000  0.5142820000000 1.0
C      1  0.4519560000000  0.4929440000000  0.4700700000000 1.0
C      1  0.4519660000000  0.4929250000000  0.5293930000000 1.0
C      1  0.5334480000000  0.4729520000000  0.4525220000000 1.0
C      1  0.5334650000000  0.4730210000000  0.5469100000000 1.0
C      1  0.4630650000000  0.5067460000000  0.5533000000000 1.0
C      1  0.4630760000000  0.5067460000000  0.4461710000000 1.0
C      1  0.4975430000000  0.5300540000000  0.4408030000000 1.0
C      1  0.4975510000000  0.5300260000000  0.5586900000000 1.0
C      1  0.5258890000000  0.5329910000000  0.5146900000000 1.0
C      1  0.5257930000000  0.5329160000000  0.4847790000000 1.0
C      1  0.4692290000000  0.5356920000000  0.4475050000000 1.0
C      1  0.4692390000000  0.5356870000000  0.5519910000000 1.0
C      1  0.4908730000000  0.5007130000000  0.4383580000000 1.0
C      1  0.4908520000000  0.5006950000000  0.5611390000000 1.0
C      1  0.4916010000000  0.4621900000000  0.4713660000000 1.0
C      1  0.4916110000000  0.4621810000000  0.5281160000000 1.0
C      1  0.5371470000000  0.4498940000000  0.4707310000000 1.0
C      1  0.5371600000000  0.4499400000000  0.5287300000000 1.0
C      1  0.5588890000000  0.4643310000000  0.5145050000000 1.0
C      1  0.5588800000000  0.4643070000000  0.4849300000000 1.0
C      1  0.4687310000000  0.4738070000000  0.4852060000000 1.0
C      1  0.4687360000000  0.4737740000000  0.5142910000000 1.0
C      1  0.4358380000000  0.5073770000000  0.5112280000000 1.0
C      1  0.4357590000000  0.5074510000000  0.4881300000000 1.0
C      1  0.5066310000000  0.5433080000000  0.5339060000000 1.0
C      1  0.5066110000000  0.5433780000000  0.4655660000000 1.0
C      1  0.5482070000000  0.5131190000000  0.5145850000000 1.0
C      1  0.5481340000000  0.5130740000000  0.4848310000000 1.0
C      1  0.4780520000000  0.5512560000000  0.4725590000000 1.0
C      1  0.4780810000000  0.5512330000000  0.5269310000000 1.0
C      1  0.4727330000000  0.5517800000000  0.4997480000000 1.0
END
