TITL C-2441169-1362-560 0.0304700446746076 125000 -12132.0222969671 0 0 89 (C1) n - 1
REM
REM in /home/bkarasulu/work/CARBON/AIRSS/Generating-Clusters/ReaxFF-fromJPCA2015/Units_Real/with-SteepDescent/Higher-Symm
REM
REM
REM
REM
REM
REM ./C.cell (1df0a924f5614ab8850e4351716899ee)
REM
REM compiler GCC version 9.2.1 20190827 (Red Hat 9.2.1-1)
REM options -cpp -mtune=generic -march=x86-64 -g -O0 -fpre-include=/usr/include/finclude/math-vector-fortran.h
REM seed 1362776210 -2081102980 -898825813 1764723956 -980305769 1155638011 1547997988 57787781 934271927 -213379704 1056416809 -1058754215 -512402427 -1232560617 -1861448411 598036733 600709933 -1476789008 1388678160 1372380321 -1646835077 -1072637438 -1991558615 2012234696 -1652096696 2061461593 13996211 638931659 684603809 1084295960 -273625969 -437721354 682158159
REM
CELL 1.54180   50.00000   50.00000   50.00000   90.00000   90.00000   90.00000
LATT -1
SFAC C  
C      1  0.4233610000000  0.5429520000000  0.4842670000000 1.0
C      1  0.4941080000000  0.4113650000000  0.4822790000000 1.0
C      1  0.5748270000000  0.5459700000000  0.4876590000000 1.0
C      1  0.4233750000000  0.5447030000000  0.5120260000000 1.0
C      1  0.5009920000000  0.4157050000000  0.5093390000000 1.0
C      1  0.5808510000000  0.5405050000000  0.5147140000000 1.0
C      1  0.4633340000000  0.5201870000000  0.5262180000000 1.0
C      1  0.5008760000000  0.4606380000000  0.5251120000000 1.0
C      1  0.5303410000000  0.5209360000000  0.5257010000000 1.0
C      1  0.4642290000000  0.5210650000000  0.4702010000000 1.0
C      1  0.5013600000000  0.4620960000000  0.4711670000000 1.0
C      1  0.5306330000000  0.5210340000000  0.4698380000000 1.0
C      1  0.5359040000000  0.4431800000000  0.5527990000000 1.0
C      1  0.5390120000000  0.5513310000000  0.5510750000000 1.0
C      1  0.4296510000000  0.5009750000000  0.5520930000000 1.0
C      1  0.5246330000000  0.4405660000000  0.4456810000000 1.0
C      1  0.5391070000000  0.5502690000000  0.4430240000000 1.0
C      1  0.4327200000000  0.4978840000000  0.4446110000000 1.0
C      1  0.4806110000000  0.4254750000000  0.5304790000000 1.0
C      1  0.5757680000000  0.5205050000000  0.5336090000000 1.0
C      1  0.4425710000000  0.5574580000000  0.5294780000000 1.0
C      1  0.4789570000000  0.4247770000000  0.4628430000000 1.0
C      1  0.5743290000000  0.5240270000000  0.4673310000000 1.0
C      1  0.4428360000000  0.5572040000000  0.4664810000000 1.0
C      1  0.4613870000000  0.5420520000000  0.4505830000000 1.0
C      1  0.4942350000000  0.4474380000000  0.4462710000000 1.0
C      1  0.5510480000000  0.5235340000000  0.4485380000000 1.0
C      1  0.4616530000000  0.5417410000000  0.5451200000000 1.0
C      1  0.4888290000000  0.4475050000000  0.5481540000000 1.0
C      1  0.5486650000000  0.5222000000000  0.5494200000000 1.0
C      1  0.4445480000000  0.4532780000000  0.4844610000000 1.0
C      1  0.5680750000000  0.4768440000000  0.4834590000000 1.0
C      1  0.4860110000000  0.5710150000000  0.4840590000000 1.0
C      1  0.4446290000000  0.4532530000000  0.5132840000000 1.0
C      1  0.5687840000000  0.4761760000000  0.5118150000000 1.0
C      1  0.4856530000000  0.5725950000000  0.5130500000000 1.0
C      1  0.4570960000000  0.5769690000000  0.4832270000000 1.0
C      1  0.4564130000000  0.4263020000000  0.4821840000000 1.0
C      1  0.5832840000000  0.5017210000000  0.4833980000000 1.0
C      1  0.4569390000000  0.5776000000000  0.5126630000000 1.0
C      1  0.4571800000000  0.4267940000000  0.5127080000000 1.0
C      1  0.5848400000000  0.4999800000000  0.5134340000000 1.0
C      1  0.5418370000000  0.4347660000000  0.5250750000000 1.0
C      1  0.5366550000000  0.5636580000000  0.5234160000000 1.0
C      1  0.4209930000000  0.4987660000000  0.5250700000000 1.0
C      1  0.5370850000000  0.4350700000000  0.4722340000000 1.0
C      1  0.5358260000000  0.5648430000000  0.4697150000000 1.0
C      1  0.4218020000000  0.4980430000000  0.4716070000000 1.0
C      1  0.5070800000000  0.5349820000000  0.4683980000000 1.0
C      1  0.4656320000000  0.4935000000000  0.4693390000000 1.0
C      1  0.5253920000000  0.4754550000000  0.4704170000000 1.0
C      1  0.5065960000000  0.5348600000000  0.5280440000000 1.0
C      1  0.4652000000000  0.4920960000000  0.5271230000000 1.0
C      1  0.5247470000000  0.4743720000000  0.5261340000000 1.0
C      1  0.5274050000000  0.4971940000000  0.5116620000000 1.0
C      1  0.4878910000000  0.5250570000000  0.5117910000000 1.0
C      1  0.4826720000000  0.4783160000000  0.5111520000000 1.0
C      1  0.5280090000000  0.4975880000000  0.4854930000000 1.0
C      1  0.4881580000000  0.5262180000000  0.4851750000000 1.0
C      1  0.4830590000000  0.4787640000000  0.4846160000000 1.0
C      1  0.5145490000000  0.5798830000000  0.4823870000000 1.0
C      1  0.4219440000000  0.4717870000000  0.4842870000000 1.0
C      1  0.5613890000000  0.4473400000000  0.4820520000000 1.0
C      1  0.5149560000000  0.5793990000000  0.5123650000000 1.0
C      1  0.4226180000000  0.4724490000000  0.5130770000000 1.0
C      1  0.5645680000000  0.4471810000000  0.5114320000000 1.0
C      1  0.5306230000000  0.4960560000000  0.5679240000000 1.0
C      1  0.4994900000000  0.5236210000000  0.5741070000000 1.0
C      1  0.4815950000000  0.4708400000000  0.5648140000000 1.0
C      1  0.5314120000000  0.4929070000000  0.4287290000000 1.0
C      1  0.4967690000000  0.5252620000000  0.4231200000000 1.0
C      1  0.4824720000000  0.4750510000000  0.4291720000000 1.0
C      1  0.4507740000000  0.4785310000000  0.4515580000000 1.0
C      1  0.5415300000000  0.4785750000000  0.4488860000000 1.0
C      1  0.4914710000000  0.5480230000000  0.4465300000000 1.0
C      1  0.4611520000000  0.4770830000000  0.5503630000000 1.0
C      1  0.5449380000000  0.4689430000000  0.5448620000000 1.0
C      1  0.4910700000000  0.5486620000000  0.5490230000000 1.0
C      1  0.4559210000000  0.4860700000000  0.4273290000000 1.0
C      1  0.5346460000000  0.4623970000000  0.4289070000000 1.0
C      1  0.5152020000000  0.5466440000000  0.4261460000000 1.0
C      1  0.4472910000000  0.4911940000000  0.5664950000000 1.0
C      1  0.5338810000000  0.4667430000000  0.5699870000000 1.0
C      1  0.5147170000000  0.5472350000000  0.5680940000000 1.0
C      1  0.4244850000000  0.5142910000000  0.4964760000000 1.0
C      1  0.5491340000000  0.5591540000000  0.4953360000000 1.0
C      1  0.5262990000000  0.4281920000000  0.5014340000000 1.0
C      1  0.5015510000000  0.4968050000000  0.4267740000000 1.0
C      1  0.5023280000000  0.4959350000000  0.5685200000000 1.0
END
