TITL C-2441161-5029-15 2.09523365769662e-12 125000 -893.345443184251 0 0 7 (D7h) n - 1
REM
REM in /home/bkarasulu/work/CARBON/AIRSS/Generating-Clusters/ReaxFF-fromJPCA2015/Units_Real/with-SteepDescent/Higher-Symm
REM
REM
REM
REM
REM
REM ./C.cell (1df0a924f5614ab8850e4351716899ee)
REM
REM compiler GCC version 9.2.1 20190827 (Red Hat 9.2.1-1)
REM options -cpp -mtune=generic -march=x86-64 -g -O0 -fpre-include=/usr/include/finclude/math-vector-fortran.h
REM seed 1569698075 692729333 -1541927934 418382952 830992154 1714049212 358595442 2063924863 176758541 -71237119 1777141677 688791903 -776638956 -2070281296 -1572411650 -972455545 -2028479317 29070340 2085195802 -1746957664 -650042597 -554889712 80976316 2081546279 356198734 896337453 -477254768 -1325371599 249108091 1037666132 1977422802 662288121 -853846790
REM
CELL 1.54180   50.00000   50.00000   50.00000   90.00000   90.00000   90.00000
LATT -1
SFAC C  
C      1  0.5233550000000  0.5000000000000  0.5251170000000 1.0
C      1  0.4949250000000  0.5000000000000  0.5339200000000 1.0
C      1  0.4703160000000  0.5000000000000  0.5171810000000 1.0
C      1  0.4680600000000  0.5000000000000  0.4875040000000 1.0
C      1  0.4898550000000  0.5000000000000  0.4672370000000 1.0
C      1  0.5192900000000  0.5000000000000  0.4716410000000 1.0
C      1  0.5341990000000  0.5000000000000  0.4974000000000 1.0
END
