TITL C-2441168-9922-1360 0.111046939029257 125000 -20717.602565546 0 0 158 (C1) n - 1
REM
REM in /home/bkarasulu/work/CARBON/AIRSS/Generating-Clusters/ReaxFF-fromJPCA2015/Units_Real/with-SteepDescent/Higher-Symm
REM
REM
REM
REM
REM
REM ./C.cell (1df0a924f5614ab8850e4351716899ee)
REM
REM compiler GCC version 9.2.1 20190827 (Red Hat 9.2.1-1)
REM options -cpp -mtune=generic -march=x86-64 -g -O0 -fpre-include=/usr/include/finclude/math-vector-fortran.h
REM seed 1720469592 -510732236 -1557814420 214294627 76542035 842373992 -2009173495 -2087693719 -2075119832 1141205736 996265855 -1629233294 -1369422936 1965745870 470870875 -494222466 574443972 452081988 1095711005 830660704 -710120149 1492541177 -530897808 1351209907 -1869363475 -1954105355 -1577545264 -563826412 710846950 400061046 -434437419 -789663736 -330002452
REM
CELL 1.54180   50.00000   50.00000   50.00000   90.00000   90.00000   90.00000
LATT -1
SFAC C  
C      1  0.4930860000000  0.4337110000000  0.5799090000000 1.0
C      1  0.4905840000000  0.5728730000000  0.4253020000000 1.0
C      1  0.4931900000000  0.5667740000000  0.5782610000000 1.0
C      1  0.4941990000000  0.4339500000000  0.4218040000000 1.0
C      1  0.4694770000000  0.4548270000000  0.4852820000000 1.0
C      1  0.4703420000000  0.5458770000000  0.5137270000000 1.0
C      1  0.4755520000000  0.5429200000000  0.4840250000000 1.0
C      1  0.4739730000000  0.4593680000000  0.5153320000000 1.0
C      1  0.5089120000000  0.5211580000000  0.5149700000000 1.0
C      1  0.5083900000000  0.4831490000000  0.4856440000000 1.0
C      1  0.5091070000000  0.4812440000000  0.5150640000000 1.0
C      1  0.5110730000000  0.5169280000000  0.4851860000000 1.0
C      1  0.4170880000000  0.4498160000000  0.5117100000000 1.0
C      1  0.4184310000000  0.5331430000000  0.4799740000000 1.0
C      1  0.4179350000000  0.5611900000000  0.5125020000000 1.0
C      1  0.4236350000000  0.4616120000000  0.4872720000000 1.0
C      1  0.5366280000000  0.5787060000000  0.4449380000000 1.0
C      1  0.5368780000000  0.4184180000000  0.5541960000000 1.0
C      1  0.5337680000000  0.4202280000000  0.4448160000000 1.0
C      1  0.5349750000000  0.5833850000000  0.5551160000000 1.0
C      1  0.4869820000000  0.5144040000000  0.4447800000000 1.0
C      1  0.4856280000000  0.4854330000000  0.5554440000000 1.0
C      1  0.4865410000000  0.4840700000000  0.4449270000000 1.0
C      1  0.4865750000000  0.5163400000000  0.5551120000000 1.0
C      1  0.4393390000000  0.4884560000000  0.5396480000000 1.0
C      1  0.4423860000000  0.5161230000000  0.4592210000000 1.0
C      1  0.4427120000000  0.5150110000000  0.5427410000000 1.0
C      1  0.4385000000000  0.4888930000000  0.4612560000000 1.0
C      1  0.5220780000000  0.5465290000000  0.4133540000000 1.0
C      1  0.5321660000000  0.4488960000000  0.5815250000000 1.0
C      1  0.5326260000000  0.4545910000000  0.4106090000000 1.0
C      1  0.5287170000000  0.5474280000000  0.5845450000000 1.0
C      1  0.4680020000000  0.5587560000000  0.4315850000000 1.0
C      1  0.4683930000000  0.4373620000000  0.5652540000000 1.0
C      1  0.4691550000000  0.4380690000000  0.4347810000000 1.0
C      1  0.4688340000000  0.5617300000000  0.5652520000000 1.0
C      1  0.4656300000000  0.4765100000000  0.4659880000000 1.0
C      1  0.4672090000000  0.5241690000000  0.5329790000000 1.0
C      1  0.4684240000000  0.5221970000000  0.4664470000000 1.0
C      1  0.4662370000000  0.4778850000000  0.5335350000000 1.0
C      1  0.4454100000000  0.4562860000000  0.5710650000000 1.0
C      1  0.4440660000000  0.5430810000000  0.4277650000000 1.0
C      1  0.4456420000000  0.5432420000000  0.5711130000000 1.0
C      1  0.4444510000000  0.4559710000000  0.4297550000000 1.0
C      1  0.4815310000000  0.4870470000000  0.6095560000000 1.0
C      1  0.4810700000000  0.5143570000000  0.3902030000000 1.0
C      1  0.4825480000000  0.5129860000000  0.6068920000000 1.0
C      1  0.4846880000000  0.4879980000000  0.3933750000000 1.0
C      1  0.5869960000000  0.5296420000000  0.4664240000000 1.0
C      1  0.5900810000000  0.4687060000000  0.5342330000000 1.0
C      1  0.5883630000000  0.4697260000000  0.4660470000000 1.0
C      1  0.5927530000000  0.5298920000000  0.5329080000000 1.0
C      1  0.5468320000000  0.4539490000000  0.5314090000000 1.0
C      1  0.5446330000000  0.5506030000000  0.4795390000000 1.0
C      1  0.5520120000000  0.5424270000000  0.5364320000000 1.0
C      1  0.5471730000000  0.4541170000000  0.4673290000000 1.0
C      1  0.5002210000000  0.4554200000000  0.4723250000000 1.0
C      1  0.5010440000000  0.5465660000000  0.5276250000000 1.0
C      1  0.5016190000000  0.5453560000000  0.4707040000000 1.0
C      1  0.5006750000000  0.4566370000000  0.5278960000000 1.0
C      1  0.4375090000000  0.4844970000000  0.4268550000000 1.0
C      1  0.4398750000000  0.5139490000000  0.5717770000000 1.0
C      1  0.4428530000000  0.5128210000000  0.4298040000000 1.0
C      1  0.4424950000000  0.4853240000000  0.5683420000000 1.0
C      1  0.5145980000000  0.6095780000000  0.5145500000000 1.0
C      1  0.5136340000000  0.3915520000000  0.4847890000000 1.0
C      1  0.5127230000000  0.3925050000000  0.5150230000000 1.0
C      1  0.5107220000000  0.6058410000000  0.4854880000000 1.0
C      1  0.4482590000000  0.5822090000000  0.4591250000000 1.0
C      1  0.4418350000000  0.4176200000000  0.5394370000000 1.0
C      1  0.4458290000000  0.4160670000000  0.4606840000000 1.0
C      1  0.4426100000000  0.5802700000000  0.5392540000000 1.0
C      1  0.5554200000000  0.4365490000000  0.5681530000000 1.0
C      1  0.5580130000000  0.5604870000000  0.4386550000000 1.0
C      1  0.5521280000000  0.5688220000000  0.5723090000000 1.0
C      1  0.5493440000000  0.4394660000000  0.4291940000000 1.0
C      1  0.4830050000000  0.4736680000000  0.5858480000000 1.0
C      1  0.4820150000000  0.5243110000000  0.4166590000000 1.0
C      1  0.4844830000000  0.5267880000000  0.5841860000000 1.0
C      1  0.4854300000000  0.4734380000000  0.4148160000000 1.0
C      1  0.5343200000000  0.4776720000000  0.5778190000000 1.0
C      1  0.5351500000000  0.5221240000000  0.4216850000000 1.0
C      1  0.5362840000000  0.5204990000000  0.5776440000000 1.0
C      1  0.5359870000000  0.4791820000000  0.4210220000000 1.0
C      1  0.4958400000000  0.4122750000000  0.4749420000000 1.0
C      1  0.4922970000000  0.5888090000000  0.5205080000000 1.0
C      1  0.4832130000000  0.5951000000000  0.4911770000000 1.0
C      1  0.4947870000000  0.4131720000000  0.5248920000000 1.0
C      1  0.5616690000000  0.4850730000000  0.5738850000000 1.0
C      1  0.5633450000000  0.5146980000000  0.4240440000000 1.0
C      1  0.5643360000000  0.5133170000000  0.5749510000000 1.0
C      1  0.5618290000000  0.4863120000000  0.4263910000000 1.0
C      1  0.5589490000000  0.4080630000000  0.5142270000000 1.0
C      1  0.5577590000000  0.5921850000000  0.4845520000000 1.0
C      1  0.5580380000000  0.5891880000000  0.5136820000000 1.0
C      1  0.5588750000000  0.4080310000000  0.4849710000000 1.0
C      1  0.5725050000000  0.5322410000000  0.5545420000000 1.0
C      1  0.5663830000000  0.4637240000000  0.4454740000000 1.0
C      1  0.5687190000000  0.4629070000000  0.5558630000000 1.0
C      1  0.5748430000000  0.5366540000000  0.4405420000000 1.0
C      1  0.4097190000000  0.4447190000000  0.4642640000000 1.0
C      1  0.4122570000000  0.5415530000000  0.5331250000000 1.0
C      1  0.4090310000000  0.5526560000000  0.4611730000000 1.0
C      1  0.4104760000000  0.4583900000000  0.5366360000000 1.0
C      1  0.5160560000000  0.4861710000000  0.5572990000000 1.0
C      1  0.5185630000000  0.5137310000000  0.4444420000000 1.0
C      1  0.5192650000000  0.5143690000000  0.5543830000000 1.0
C      1  0.5179380000000  0.4856050000000  0.4424290000000 1.0
C      1  0.5707690000000  0.5135190000000  0.4842220000000 1.0
C      1  0.5795470000000  0.4865860000000  0.5139430000000 1.0
C      1  0.5719900000000  0.4856330000000  0.4850140000000 1.0
C      1  0.5807130000000  0.5122920000000  0.5131420000000 1.0
C      1  0.4092820000000  0.5100190000000  0.4953400000000 1.0
C      1  0.4091970000000  0.4873950000000  0.5371010000000 1.0
C      1  0.4171450000000  0.4879620000000  0.4803990000000 1.0
C      1  0.4050650000000  0.5128730000000  0.5236050000000 1.0
C      1  0.5148440000000  0.4373790000000  0.5598430000000 1.0
C      1  0.5134990000000  0.5609800000000  0.4376280000000 1.0
C      1  0.5134770000000  0.5613910000000  0.5576930000000 1.0
C      1  0.5110120000000  0.4383550000000  0.4450690000000 1.0
C      1  0.5371390000000  0.4754690000000  0.5152470000000 1.0
C      1  0.5417800000000  0.5238490000000  0.4894380000000 1.0
C      1  0.5373820000000  0.5229590000000  0.5202370000000 1.0
C      1  0.5382470000000  0.4757230000000  0.4853420000000 1.0
C      1  0.4449120000000  0.4171060000000  0.5119310000000 1.0
C      1  0.4561050000000  0.5879170000000  0.4865310000000 1.0
C      1  0.4464870000000  0.5713450000000  0.5108550000000 1.0
C      1  0.4512630000000  0.4266640000000  0.4876780000000 1.0
C      1  0.5690150000000  0.5657740000000  0.4771220000000 1.0
C      1  0.5680010000000  0.4346850000000  0.5231980000000 1.0
C      1  0.5676420000000  0.4349890000000  0.4767560000000 1.0
C      1  0.5691690000000  0.5635140000000  0.5241680000000 1.0
C      1  0.5040640000000  0.4540430000000  0.4030960000000 1.0
C      1  0.5010950000000  0.5466710000000  0.5968950000000 1.0
C      1  0.4962340000000  0.5432660000000  0.4018120000000 1.0
C      1  0.4971750000000  0.4539250000000  0.5994060000000 1.0
C      1  0.5935840000000  0.5506960000000  0.4845740000000 1.0
C      1  0.5931500000000  0.4476460000000  0.5145550000000 1.0
C      1  0.5927480000000  0.4485030000000  0.4849680000000 1.0
C      1  0.5940360000000  0.5523760000000  0.5138580000000 1.0
C      1  0.4286590000000  0.4421400000000  0.5529250000000 1.0
C      1  0.4310910000000  0.5619250000000  0.4458850000000 1.0
C      1  0.4284960000000  0.5565580000000  0.5525330000000 1.0
C      1  0.4292170000000  0.4360160000000  0.4453470000000 1.0
C      1  0.4725280000000  0.5835050000000  0.4446190000000 1.0
C      1  0.4711440000000  0.4175050000000  0.5437820000000 1.0
C      1  0.4738370000000  0.4164800000000  0.4537900000000 1.0
C      1  0.4701680000000  0.5816150000000  0.5445620000000 1.0
C      1  0.5132990000000  0.4337580000000  0.4861620000000 1.0
C      1  0.5114750000000  0.5676310000000  0.5125360000000 1.0
C      1  0.5196430000000  0.5622110000000  0.4857570000000 1.0
C      1  0.5144340000000  0.4339570000000  0.5160570000000 1.0
C      1  0.5363440000000  0.4005980000000  0.4684640000000 1.0
C      1  0.5376630000000  0.6009060000000  0.5297900000000 1.0
C      1  0.5338890000000  0.5973300000000  0.4691360000000 1.0
C      1  0.5367470000000  0.4002330000000  0.5308870000000 1.0
C      1  0.4036380000000  0.4385670000000  0.4910840000000 1.0
C      1  0.4046490000000  0.5572430000000  0.4878980000000 1.0
END
