TITL C-2441160-1326-990 0.04296708894554 125000 -17175.2077298275 0 0 121 (C1) n - 1
REM
REM in /home/bkarasulu/work/CARBON/AIRSS/Generating-Clusters/ReaxFF-fromJPCA2015/Units_Real/with-SteepDescent/Higher-Symm
REM
REM
REM
REM
REM
REM ./C.cell (1df0a924f5614ab8850e4351716899ee)
REM
REM compiler GCC version 9.2.1 20190827 (Red Hat 9.2.1-1)
REM options -cpp -mtune=generic -march=x86-64 -g -O0 -fpre-include=/usr/include/finclude/math-vector-fortran.h
REM seed -714917842 -2015195862 -340218259 2103300484 1605396410 1483626053 -1270945594 244162224 -1278773436 248597484 2037237513 -2053125019 422969691 870521670 87978413 153922410 -2013979678 608775094 -2031424431 -1062032444 629992598 -1127338817 -142123837 -377578837 1917023681 1685128376 -1826224709 1128929082 1250023998 -861558731 1516462268 1800246318 1144896311
REM
CELL 1.54180   50.00000   50.00000   50.00000   90.00000   90.00000   90.00000
LATT -1
SFAC C  
C      1  0.5599130000000  0.5261780000000  0.5623590000000 1.0
C      1  0.5560540000000  0.5507430000000  0.4504370000000 1.0
C      1  0.5585060000000  0.4372700000000  0.4711960000000 1.0
C      1  0.5597040000000  0.4741250000000  0.5602260000000 1.0
C      1  0.5704160000000  0.4590750000000  0.4528220000000 1.0
C      1  0.5565200000000  0.5708170000000  0.4733740000000 1.0
C      1  0.4945490000000  0.4203790000000  0.5626590000000 1.0
C      1  0.4993020000000  0.5920560000000  0.5354580000000 1.0
C      1  0.4986150000000  0.4875380000000  0.3986110000000 1.0
C      1  0.4975340000000  0.5787310000000  0.5612530000000 1.0
C      1  0.4974460000000  0.4081490000000  0.5363380000000 1.0
C      1  0.5015030000000  0.5161680000000  0.4038910000000 1.0
C      1  0.5292680000000  0.5255300000000  0.4091390000000 1.0
C      1  0.5258750000000  0.4045700000000  0.5275150000000 1.0
C      1  0.5232720000000  0.5744760000000  0.5756050000000 1.0
C      1  0.5243820000000  0.4726500000000  0.3963480000000 1.0
C      1  0.5276740000000  0.5943000000000  0.5246680000000 1.0
C      1  0.5184510000000  0.4274960000000  0.5792190000000 1.0
C      1  0.4331650000000  0.4429890000000  0.4997700000000 1.0
C      1  0.4349100000000  0.5292890000000  0.5513120000000 1.0
C      1  0.4317950000000  0.5290710000000  0.4456180000000 1.0
C      1  0.4328670000000  0.5620180000000  0.5013130000000 1.0
C      1  0.4335050000000  0.4714810000000  0.5494650000000 1.0
C      1  0.4344270000000  0.4713010000000  0.4485290000000 1.0
C      1  0.4668970000000  0.5149730000000  0.5233860000000 1.0
C      1  0.4542670000000  0.5126050000000  0.4753600000000 1.0
C      1  0.4671480000000  0.4713340000000  0.5009340000000 1.0
C      1  0.4681970000000  0.4869150000000  0.5252200000000 1.0
C      1  0.4661130000000  0.4864160000000  0.4768700000000 1.0
C      1  0.4550140000000  0.5269990000000  0.5003480000000 1.0
C      1  0.4899720000000  0.4833610000000  0.6035960000000 1.0
C      1  0.4870200000000  0.5990470000000  0.4570390000000 1.0
C      1  0.4863580000000  0.4136450000000  0.4339740000000 1.0
C      1  0.4904510000000  0.5119430000000  0.6046600000000 1.0
C      1  0.4875530000000  0.4011120000000  0.4602670000000 1.0
C      1  0.4871610000000  0.5818350000000  0.4328390000000 1.0
C      1  0.4480020000000  0.5152210000000  0.4252770000000 1.0
C      1  0.4471350000000  0.4308750000000  0.5226650000000 1.0
C      1  0.4487730000000  0.5554430000000  0.5492040000000 1.0
C      1  0.4482410000000  0.4859310000000  0.4264230000000 1.0
C      1  0.4478770000000  0.5715350000000  0.5244160000000 1.0
C      1  0.4458850000000  0.4448140000000  0.5484000000000 1.0
C      1  0.5271930000000  0.4347300000000  0.4760000000000 1.0
C      1  0.5302610000000  0.5164410000000  0.5672030000000 1.0
C      1  0.5226290000000  0.5486690000000  0.4517610000000 1.0
C      1  0.5241300000000  0.5682260000000  0.4760580000000 1.0
C      1  0.5300490000000  0.4843690000000  0.5645130000000 1.0
C      1  0.5206330000000  0.4504190000000  0.4500310000000 1.0
C      1  0.5153410000000  0.4785740000000  0.4548180000000 1.0
C      1  0.5160610000000  0.4754600000000  0.5403320000000 1.0
C      1  0.5184570000000  0.5514820000000  0.4999500000000 1.0
C      1  0.5177590000000  0.5195080000000  0.4562020000000 1.0
C      1  0.5166440000000  0.5254070000000  0.5429640000000 1.0
C      1  0.5161500000000  0.4505440000000  0.4994650000000 1.0
C      1  0.5172830000000  0.5513280000000  0.5888870000000 1.0
C      1  0.5306650000000  0.5547750000000  0.4111510000000 1.0
C      1  0.5181530000000  0.4004890000000  0.5015000000000 1.0
C      1  0.5104000000000  0.4508180000000  0.5911530000000 1.0
C      1  0.5141740000000  0.4497940000000  0.4080070000000 1.0
C      1  0.5172860000000  0.6020050000000  0.5004650000000 1.0
C      1  0.4228030000000  0.4834710000000  0.4727590000000 1.0
C      1  0.4239570000000  0.4861470000000  0.5255610000000 1.0
C      1  0.4250950000000  0.5323150000000  0.5026220000000 1.0
C      1  0.4244220000000  0.5136990000000  0.4715380000000 1.0
C      1  0.4237030000000  0.5154250000000  0.5279710000000 1.0
C      1  0.4235510000000  0.4710260000000  0.4993120000000 1.0
C      1  0.5474700000000  0.4230810000000  0.5381080000000 1.0
C      1  0.5501860000000  0.5728190000000  0.5607160000000 1.0
C      1  0.5499500000000  0.5083640000000  0.4214770000000 1.0
C      1  0.5507270000000  0.5757680000000  0.5322240000000 1.0
C      1  0.5461170000000  0.4290950000000  0.5660710000000 1.0
C      1  0.5504050000000  0.4817210000000  0.4102230000000 1.0
C      1  0.4778010000000  0.4859370000000  0.4210050000000 1.0
C      1  0.4754130000000  0.4406630000000  0.5522120000000 1.0
C      1  0.4779300000000  0.5734540000000  0.5246430000000 1.0
C      1  0.4782950000000  0.5153870000000  0.4231200000000 1.0
C      1  0.4782650000000  0.5588700000000  0.5502000000000 1.0
C      1  0.4769940000000  0.4278610000000  0.5256010000000 1.0
C      1  0.5732990000000  0.4325700000000  0.4953050000000 1.0
C      1  0.5687440000000  0.5522450000000  0.5733320000000 1.0
C      1  0.5581010000000  0.5617130000000  0.4231050000000 1.0
C      1  0.5732360000000  0.5756240000000  0.4957620000000 1.0
C      1  0.5660850000000  0.4498070000000  0.5760030000000 1.0
C      1  0.5666460000000  0.4604220000000  0.4232500000000 1.0
C      1  0.4619030000000  0.5125110000000  0.5983940000000 1.0
C      1  0.4575290000000  0.5775020000000  0.4364750000000 1.0
C      1  0.4581860000000  0.4068920000000  0.4639650000000 1.0
C      1  0.4611350000000  0.4834730000000  0.5970230000000 1.0
C      1  0.4577480000000  0.4203370000000  0.4374670000000 1.0
C      1  0.4581720000000  0.5932870000000  0.4615370000000 1.0
C      1  0.5646070000000  0.4416970000000  0.5234780000000 1.0
C      1  0.5642580000000  0.5274540000000  0.5340060000000 1.0
C      1  0.5622880000000  0.5120310000000  0.4487200000000 1.0
C      1  0.5633500000000  0.5525410000000  0.5176150000000 1.0
C      1  0.5643710000000  0.4692120000000  0.5325330000000 1.0
C      1  0.5673600000000  0.4864010000000  0.4613730000000 1.0
C      1  0.5099200000000  0.4321100000000  0.4285640000000 1.0
C      1  0.5132520000000  0.4747710000000  0.5897690000000 1.0
C      1  0.5108880000000  0.5968330000000  0.4742990000000 1.0
C      1  0.5084670000000  0.5622030000000  0.4288080000000 1.0
C      1  0.5142290000000  0.5258360000000  0.5943920000000 1.0
C      1  0.5126710000000  0.4054300000000  0.4753730000000 1.0
C      1  0.4426150000000  0.4852020000000  0.5736110000000 1.0
C      1  0.4420970000000  0.5713940000000  0.4756150000000 1.0
C      1  0.4419200000000  0.4432630000000  0.4500090000000 1.0
C      1  0.4431030000000  0.5140700000000  0.5749550000000 1.0
C      1  0.4413920000000  0.4294490000000  0.4753600000000 1.0
C      1  0.4413800000000  0.5561500000000  0.4503240000000 1.0
C      1  0.4948160000000  0.5353180000000  0.4998150000000 1.0
C      1  0.4892520000000  0.4726980000000  0.4666320000000 1.0
C      1  0.4907760000000  0.4880140000000  0.5427560000000 1.0
C      1  0.4891420000000  0.4559560000000  0.4906820000000 1.0
C      1  0.4952600000000  0.5181100000000  0.4741560000000 1.0
C      1  0.4888750000000  0.5174120000000  0.5423990000000 1.0
C      1  0.5386030000000  0.5167570000000  0.5239290000000 1.0
C      1  0.5420470000000  0.5154180000000  0.4709110000000 1.0
C      1  0.5342610000000  0.4724640000000  0.4987270000000 1.0
C      1  0.5391670000000  0.4838000000000  0.5226410000000 1.0
C      1  0.5399780000000  0.4867910000000  0.4746580000000 1.0
C      1  0.5420640000000  0.5336850000000  0.4996030000000 1.0
C      1  0.4995420000000  0.5046120000000  0.5001070000000 1.0
END
