TITL C-2441158-471-331 0.0668789791089732 125000 -18409.755110388 0 0 135 (C1) n - 1
REM
REM in /home/bkarasulu/work/CARBON/AIRSS/Generating-Clusters/ReaxFF-fromJPCA2015/Units_Real/with-SteepDescent/Higher-Symm
REM
REM
REM
REM
REM
REM ./C.cell (1df0a924f5614ab8850e4351716899ee)
REM
REM compiler GCC version 9.2.1 20190827 (Red Hat 9.2.1-1)
REM options -cpp -mtune=generic -march=x86-64 -g -O0 -fpre-include=/usr/include/finclude/math-vector-fortran.h
REM seed 1079973667 130947905 596155255 691684881 397631950 -677375712 -1983112910 -9165265 960529411 -977372311 209385940 -562104387 1100209908 140096164 638375385 1105114009 -916408748 444459195 825723283 1022309105 -421059881 -1943745457 -1320096290 869470510 -2016274451 1257802224 2096444660 -966935361 822881889 1605434257 281201516 -1742119011 1091993698
REM
CELL 1.54180   50.00000   50.00000   50.00000   90.00000   90.00000   90.00000
LATT -1
SFAC C  
C      1  0.4438210000000  0.4714140000000  0.4537530000000 1.0
C      1  0.4358060000000  0.5301500000000  0.4500870000000 1.0
C      1  0.4367930000000  0.5563860000000  0.5144860000000 1.0
C      1  0.4347710000000  0.5025170000000  0.5607660000000 1.0
C      1  0.4328030000000  0.4383700000000  0.5135880000000 1.0
C      1  0.4438020000000  0.4717890000000  0.5465080000000 1.0
C      1  0.4374570000000  0.5291710000000  0.5509960000000 1.0
C      1  0.4352420000000  0.5563250000000  0.4875330000000 1.0
C      1  0.4342810000000  0.5035540000000  0.4390260000000 1.0
C      1  0.4324380000000  0.4379110000000  0.4862220000000 1.0
C      1  0.5439030000000  0.4400840000000  0.5607070000000 1.0
C      1  0.5440040000000  0.4223330000000  0.4601100000000 1.0
C      1  0.5423840000000  0.5116680000000  0.4164470000000 1.0
C      1  0.5429640000000  0.5828070000000  0.4857400000000 1.0
C      1  0.5457150000000  0.5388980000000  0.5759880000000 1.0
C      1  0.5431350000000  0.4392560000000  0.4366700000000 1.0
C      1  0.5436680000000  0.4233910000000  0.5371300000000 1.0
C      1  0.5427240000000  0.5119230000000  0.5848440000000 1.0
C      1  0.5440100000000  0.5835480000000  0.5148190000000 1.0
C      1  0.5446280000000  0.5396310000000  0.4226520000000 1.0
C      1  0.5541510000000  0.4158850000000  0.5105460000000 1.0
C      1  0.5561410000000  0.4590000000000  0.4197660000000 1.0
C      1  0.5598900000000  0.5523200000000  0.4432610000000 1.0
C      1  0.5526160000000  0.5740340000000  0.5413870000000 1.0
C      1  0.5555180000000  0.4862710000000  0.5879500000000 1.0
C      1  0.5596170000000  0.4262610000000  0.4837840000000 1.0
C      1  0.5567530000000  0.4588510000000  0.5788810000000 1.0
C      1  0.5619710000000  0.5479210000000  0.5535100000000 1.0
C      1  0.5527930000000  0.5761830000000  0.4588050000000 1.0
C      1  0.5554820000000  0.4867200000000  0.4116820000000 1.0
C      1  0.4694540000000  0.4369230000000  0.4241270000000 1.0
C      1  0.4731240000000  0.5497870000000  0.4181500000000 1.0
C      1  0.4688890000000  0.5968870000000  0.5246130000000 1.0
C      1  0.4705270000000  0.5064390000000  0.5982660000000 1.0
C      1  0.4724030000000  0.4103640000000  0.5322590000000 1.0
C      1  0.4694190000000  0.4366820000000  0.5765430000000 1.0
C      1  0.4706470000000  0.5537440000000  0.5842010000000 1.0
C      1  0.4667980000000  0.5925150000000  0.4701980000000 1.0
C      1  0.4676560000000  0.5121110000000  0.4035610000000 1.0
C      1  0.4724770000000  0.4101190000000  0.4679620000000 1.0
C      1  0.5192110000000  0.5505760000000  0.5670390000000 1.0
C      1  0.5174690000000  0.4530240000000  0.5652750000000 1.0
C      1  0.5186650000000  0.4206370000000  0.4752200000000 1.0
C      1  0.5162660000000  0.4986100000000  0.4204050000000 1.0
C      1  0.5153650000000  0.5789130000000  0.4748880000000 1.0
C      1  0.5193370000000  0.5503890000000  0.4327010000000 1.0
C      1  0.5170770000000  0.4531070000000  0.4342610000000 1.0
C      1  0.5165640000000  0.4220770000000  0.5257990000000 1.0
C      1  0.5170750000000  0.4990960000000  0.5811660000000 1.0
C      1  0.5158870000000  0.5798160000000  0.5248720000000 1.0
C      1  0.4824560000000  0.4981220000000  0.5419020000000 1.0
C      1  0.4800090000000  0.4588650000000  0.5143030000000 1.0
C      1  0.4667570000000  0.4775820000000  0.4696940000000 1.0
C      1  0.4832580000000  0.5245440000000  0.4619260000000 1.0
C      1  0.4820820000000  0.5421280000000  0.5135360000000 1.0
C      1  0.4829820000000  0.4970050000000  0.4575680000000 1.0
C      1  0.4806110000000  0.4583050000000  0.4859110000000 1.0
C      1  0.4664070000000  0.4777450000000  0.5301400000000 1.0
C      1  0.4811700000000  0.5261250000000  0.5370860000000 1.0
C      1  0.4806320000000  0.5409970000000  0.4850940000000 1.0
C      1  0.5929930000000  0.5265210000000  0.4625900000000 1.0
C      1  0.5902320000000  0.5447730000000  0.5161720000000 1.0
C      1  0.5929320000000  0.5005510000000  0.5483490000000 1.0
C      1  0.5935050000000  0.4560990000000  0.5161500000000 1.0
C      1  0.5981630000000  0.4762580000000  0.4697190000000 1.0
C      1  0.5939870000000  0.5274480000000  0.5383870000000 1.0
C      1  0.5927080000000  0.5425650000000  0.4860250000000 1.0
C      1  0.5924890000000  0.4983120000000  0.4542720000000 1.0
C      1  0.5973810000000  0.4567080000000  0.4855900000000 1.0
C      1  0.5982300000000  0.4773930000000  0.5329730000000 1.0
C      1  0.4584620000000  0.5747500000000  0.5714300000000 1.0
C      1  0.4592060000000  0.4557290000000  0.5938880000000 1.0
C      1  0.4577300000000  0.3965110000000  0.4862300000000 1.0
C      1  0.4609940000000  0.4838360000000  0.3981180000000 1.0
C      1  0.4709170000000  0.5883210000000  0.4437800000000 1.0
C      1  0.4617740000000  0.5705340000000  0.4269120000000 1.0
C      1  0.4604900000000  0.4567360000000  0.4068260000000 1.0
C      1  0.4579640000000  0.3964540000000  0.5137250000000 1.0
C      1  0.4590550000000  0.4819570000000  0.6025000000000 1.0
C      1  0.4584950000000  0.5908530000000  0.5493130000000 1.0
C      1  0.4423090000000  0.5589060000000  0.4437920000000 1.0
C      1  0.4461720000000  0.5807390000000  0.5260170000000 1.0
C      1  0.4449080000000  0.5013820000000  0.5878410000000 1.0
C      1  0.4448490000000  0.4173810000000  0.5288450000000 1.0
C      1  0.4478110000000  0.4526370000000  0.4318120000000 1.0
C      1  0.4470360000000  0.5487370000000  0.5691700000000 1.0
C      1  0.4427620000000  0.5748410000000  0.4689580000000 1.0
C      1  0.4440780000000  0.5011140000000  0.4126930000000 1.0
C      1  0.4449680000000  0.4173210000000  0.4709950000000 1.0
C      1  0.4474740000000  0.4518650000000  0.5682310000000 1.0
C      1  0.5223620000000  0.4726070000000  0.4634090000000 1.0
C      1  0.5123770000000  0.5299110000000  0.4589390000000 1.0
C      1  0.5118280000000  0.5469600000000  0.5160040000000 1.0
C      1  0.5107320000000  0.4973320000000  0.5491070000000 1.0
C      1  0.5086320000000  0.4543030000000  0.5156690000000 1.0
C      1  0.5213450000000  0.4721600000000  0.5362420000000 1.0
C      1  0.5097370000000  0.5301570000000  0.5413280000000 1.0
C      1  0.5094940000000  0.5472620000000  0.4834000000000 1.0
C      1  0.5101060000000  0.4964970000000  0.4511040000000 1.0
C      1  0.5099080000000  0.4534240000000  0.4838230000000 1.0
C      1  0.4163550000000  0.4747290000000  0.5351350000000 1.0
C      1  0.4094240000000  0.4558230000000  0.4851830000000 1.0
C      1  0.4084480000000  0.4993090000000  0.4536770000000 1.0
C      1  0.4100860000000  0.5432880000000  0.4866590000000 1.0
C      1  0.4115260000000  0.5267310000000  0.5388490000000 1.0
C      1  0.4168390000000  0.4744310000000  0.4650410000000 1.0
C      1  0.4097850000000  0.4559710000000  0.5148730000000 1.0
C      1  0.4080290000000  0.4990500000000  0.5468450000000 1.0
C      1  0.4097850000000  0.5441410000000  0.5157920000000 1.0
C      1  0.4118030000000  0.5258930000000  0.4642570000000 1.0
C      1  0.4961920000000  0.4150610000000  0.5447570000000 1.0
C      1  0.4952660000000  0.4325120000000  0.4345800000000 1.0
C      1  0.4981510000000  0.5439400000000  0.4142280000000 1.0
C      1  0.4936430000000  0.5952690000000  0.5129030000000 1.0
C      1  0.4962080000000  0.5158860000000  0.5923720000000 1.0
C      1  0.4970040000000  0.4152610000000  0.4567530000000 1.0
C      1  0.4954390000000  0.4325740000000  0.5665780000000 1.0
C      1  0.4967040000000  0.5431550000000  0.5855760000000 1.0
C      1  0.4919540000000  0.5944340000000  0.4852680000000 1.0
C      1  0.4960720000000  0.5174260000000  0.4065990000000 1.0
C      1  0.5498150000000  0.4762380000000  0.5294140000000 1.0
C      1  0.5644250000000  0.4551790000000  0.4857280000000 1.0
C      1  0.5631970000000  0.4981830000000  0.4579330000000 1.0
C      1  0.5643570000000  0.5405840000000  0.4864480000000 1.0
C      1  0.5527060000000  0.5265250000000  0.5354920000000 1.0
C      1  0.5497960000000  0.4763610000000  0.4699710000000 1.0
C      1  0.5638100000000  0.4552990000000  0.5155630000000 1.0
C      1  0.5623860000000  0.4995440000000  0.5412120000000 1.0
C      1  0.5609700000000  0.5405580000000  0.5128410000000 1.0
C      1  0.5608940000000  0.5278220000000  0.4618360000000 1.0
C      1  0.5272530000000  0.4088860000000  0.5017880000000 1.0
C      1  0.5303940000000  0.4701670000000  0.5903210000000 1.0
C      1  0.5298390000000  0.4709150000000  0.4094340000000 1.0
C      1  0.5265700000000  0.5767550000000  0.4474220000000 1.0
C      1  0.5263620000000  0.5764480000000  0.5520350000000 1.0
END
