TITL C-2441166-8118-422 0.0221973641793082 125000 -6733.96915214227 0 0 55 (C1) n - 1
REM
REM in /home/bkarasulu/work/CARBON/AIRSS/Generating-Clusters/ReaxFF-fromJPCA2015/Units_Real/with-SteepDescent/Higher-Symm
REM
REM
REM
REM
REM
REM ./C.cell (1df0a924f5614ab8850e4351716899ee)
REM
REM compiler GCC version 9.2.1 20190827 (Red Hat 9.2.1-1)
REM options -cpp -mtune=generic -march=x86-64 -g -O0 -fpre-include=/usr/include/finclude/math-vector-fortran.h
REM seed 1433789325 1942938245 1077232103 -1778695957 -1664690773 1602305432 1076175937 185696485 -1658463721 -1206439741 1800117786 1182877143 1917065625 -1748190796 -485538811 272144835 100539293 1963106424 -1380723439 -210327960 -1455822433 1743117785 -1945738446 -693230917 -1741762378 -2055512608 -1161479523 -1542488668 -1770826160 1983817407 480566665 755389183 -517908170
REM
CELL 1.54180   50.00000   50.00000   50.00000   90.00000   90.00000   90.00000
LATT -1
SFAC C  
C      1  0.5336940000000  0.4799490000000  0.5165030000000 1.0
C      1  0.5259410000000  0.4708470000000  0.4696160000000 1.0
C      1  0.4795040000000  0.4854740000000  0.4572710000000 1.0
C      1  0.4686640000000  0.4896160000000  0.5010200000000 1.0
C      1  0.4913140000000  0.4829200000000  0.5357540000000 1.0
C      1  0.4760020000000  0.4749740000000  0.5733740000000 1.0
C      1  0.5589990000000  0.4772630000000  0.5467850000000 1.0
C      1  0.5643540000000  0.4820320000000  0.4558590000000 1.0
C      1  0.4777160000000  0.4790740000000  0.4278780000000 1.0
C      1  0.4257430000000  0.4781290000000  0.4996390000000 1.0
C      1  0.5171190000000  0.5183120000000  0.5433450000000 1.0
C      1  0.5501740000000  0.5182620000000  0.4990540000000 1.0
C      1  0.5144870000000  0.5205020000000  0.4538530000000 1.0
C      1  0.4609010000000  0.5230620000000  0.4721500000000 1.0
C      1  0.4623080000000  0.5212400000000  0.5295520000000 1.0
C      1  0.4663080000000  0.5539860000000  0.5289270000000 1.0
C      1  0.5153240000000  0.5532340000000  0.5348960000000 1.0
C      1  0.5332670000000  0.5589340000000  0.4934760000000 1.0
C      1  0.5103660000000  0.5541210000000  0.4532970000000 1.0
C      1  0.4608490000000  0.5541870000000  0.4751900000000 1.0
C      1  0.4847830000000  0.5598320000000  0.4622490000000 1.0
C      1  0.4560360000000  0.5639040000000  0.5031370000000 1.0
C      1  0.4881630000000  0.5653120000000  0.5445570000000 1.0
C      1  0.5408750000000  0.5657320000000  0.5225160000000 1.0
C      1  0.5328760000000  0.5647660000000  0.4665030000000 1.0
C      1  0.5383470000000  0.5162600000000  0.4737110000000 1.0
C      1  0.4860650000000  0.5126880000000  0.4595160000000 1.0
C      1  0.4546790000000  0.5146050000000  0.5001830000000 1.0
C      1  0.4875320000000  0.5109290000000  0.5416570000000 1.0
C      1  0.5337540000000  0.5086560000000  0.5214030000000 1.0
C      1  0.5083790000000  0.4525950000000  0.4636010000000 1.0
C      1  0.4661770000000  0.4501080000000  0.4932910000000 1.0
C      1  0.4748100000000  0.4452930000000  0.5206150000000 1.0
C      1  0.5131470000000  0.4511110000000  0.5359740000000 1.0
C      1  0.5354140000000  0.4597630000000  0.4931580000000 1.0
C      1  0.4411310000000  0.4935310000000  0.4668810000000 1.0
C      1  0.4487020000000  0.4936790000000  0.5408220000000 1.0
C      1  0.5258290000000  0.4932660000000  0.5605190000000 1.0
C      1  0.5691220000000  0.4943880000000  0.4947790000000 1.0
C      1  0.5147920000000  0.4954590000000  0.4349060000000 1.0
C      1  0.4301790000000  0.4840040000000  0.5224650000000 1.0
C      1  0.5034150000000  0.4802680000000  0.5729100000000 1.0
C      1  0.5661590000000  0.4811360000000  0.5211000000000 1.0
C      1  0.5390450000000  0.4808140000000  0.4444220000000 1.0
C      1  0.4540780000000  0.4813400000000  0.4442690000000 1.0
C      1  0.5632770000000  0.4683980000000  0.4804530000000 1.0
C      1  0.5015720000000  0.4697970000000  0.4388240000000 1.0
C      1  0.4457300000000  0.4702640000000  0.4835830000000 1.0
C      1  0.4661440000000  0.4686290000000  0.5414620000000 1.0
C      1  0.5328710000000  0.4698990000000  0.5449440000000 1.0
C      1  0.4934470000000  0.4587750000000  0.4880990000000 1.0
C      1  0.4961170000000  0.4965000000000  0.4988620000000 1.0
C      1  0.5030270000000  0.4412800000000  0.5116310000000 1.0
C      1  0.5007660000000  0.5229910000000  0.5003730000000 1.0
C      1  0.5068280000000  0.5491300000000  0.5048390000000 1.0
END
