TITL C-2441154-10-550 0.150099773169209 125000 -18448.6104702661 0 0 153 (C1) n - 1
REM
REM in /home/bkarasulu/work/CARBON/AIRSS/Generating-Clusters/ReaxFF-fromJPCA2015/Units_Real/with-SteepDescent/Higher-Symm
REM
REM
REM
REM
REM
REM ./C.cell (1df0a924f5614ab8850e4351716899ee)
REM
REM compiler GCC version 9.2.1 20190827 (Red Hat 9.2.1-1)
REM options -cpp -mtune=generic -march=x86-64 -g -O0 -fpre-include=/usr/include/finclude/math-vector-fortran.h
REM seed -1760567034 784396601 1771873889 1349857318 513415883 -1551884658 402121917 -758246375 -221236248 1738412753 -163062237 -1144554040 387985058 1586993327 -1736804418 -478094495 -1062221922 -1578293054 1603113115 1230895519 1335771391 1496227580 -1447892206 1194284739 -1072089503 -964665249 -478408822 -990290668 -1125518614 97247698 209225807 751923181 1975825013
REM
CELL 1.54180   50.00000   50.00000   50.00000   90.00000   90.00000   90.00000
LATT -1
SFAC C  
C      1  0.4045160000000  0.4453920000000  0.5077710000000 1.0
C      1  0.4054960000000  0.5293040000000  0.4995940000000 1.0
C      1  0.4672880000000  0.5906010000000  0.4990240000000 1.0
C      1  0.5533770000000  0.5895660000000  0.5007830000000 1.0
C      1  0.6024260000000  0.5136620000000  0.5013040000000 1.0
C      1  0.5727390000000  0.4292890000000  0.5022080000000 1.0
C      1  0.4892470000000  0.4017030000000  0.5010580000000 1.0
C      1  0.5069200000000  0.5741630000000  0.5116740000000 1.0
C      1  0.5748420000000  0.5467290000000  0.5166750000000 1.0
C      1  0.5826330000000  0.4743210000000  0.5115160000000 1.0
C      1  0.5321470000000  0.4223830000000  0.5093720000000 1.0
C      1  0.4561350000000  0.4268980000000  0.5086740000000 1.0
C      1  0.4224000000000  0.4822580000000  0.5130270000000 1.0
C      1  0.4330550000000  0.5568480000000  0.5103250000000 1.0
C      1  0.4836580000000  0.4611700000000  0.4258520000000 1.0
C      1  0.4632240000000  0.4811640000000  0.4296750000000 1.0
C      1  0.4652580000000  0.5202690000000  0.4389210000000 1.0
C      1  0.4980540000000  0.5416380000000  0.4283390000000 1.0
C      1  0.5246830000000  0.5332580000000  0.4256010000000 1.0
C      1  0.5404610000000  0.4905550000000  0.4343140000000 1.0
C      1  0.5247520000000  0.4683710000000  0.4355980000000 1.0
C      1  0.4416000000000  0.4567580000000  0.5434250000000 1.0
C      1  0.4345480000000  0.5213500000000  0.5361240000000 1.0
C      1  0.4741870000000  0.5781000000000  0.5428070000000 1.0
C      1  0.5442760000000  0.5698230000000  0.5435040000000 1.0
C      1  0.5717420000000  0.5030990000000  0.5368740000000 1.0
C      1  0.5544560000000  0.4544690000000  0.5315040000000 1.0
C      1  0.4876320000000  0.4317900000000  0.5303450000000 1.0
C      1  0.4172020000000  0.4758350000000  0.4468830000000 1.0
C      1  0.4300640000000  0.5492340000000  0.4495150000000 1.0
C      1  0.4945250000000  0.5864810000000  0.4478790000000 1.0
C      1  0.5634140000000  0.5552650000000  0.4502250000000 1.0
C      1  0.5856610000000  0.4832580000000  0.4503080000000 1.0
C      1  0.5409590000000  0.4235010000000  0.4486980000000 1.0
C      1  0.4656170000000  0.4189490000000  0.4484940000000 1.0
C      1  0.5167850000000  0.5378750000000  0.5580050000000 1.0
C      1  0.5505670000000  0.4942570000000  0.5704980000000 1.0
C      1  0.5315760000000  0.4726220000000  0.5645070000000 1.0
C      1  0.5037480000000  0.4676850000000  0.5590030000000 1.0
C      1  0.4680160000000  0.4883000000000  0.5635770000000 1.0
C      1  0.4567470000000  0.5097260000000  0.5725580000000 1.0
C      1  0.4698680000000  0.5341110000000  0.5670490000000 1.0
C      1  0.5100300000000  0.4518820000000  0.4193480000000 1.0
C      1  0.4582820000000  0.4567010000000  0.4147860000000 1.0
C      1  0.4498550000000  0.5052250000000  0.4209540000000 1.0
C      1  0.4703930000000  0.5402780000000  0.4203080000000 1.0
C      1  0.5172270000000  0.5576080000000  0.4149810000000 1.0
C      1  0.5457290000000  0.5155230000000  0.4228880000000 1.0
C      1  0.5474800000000  0.4678270000000  0.4189630000000 1.0
C      1  0.5017080000000  0.4218200000000  0.5662840000000 1.0
C      1  0.4430670000000  0.4390240000000  0.5657590000000 1.0
C      1  0.4198410000000  0.5240560000000  0.5597220000000 1.0
C      1  0.4655340000000  0.5749330000000  0.5662870000000 1.0
C      1  0.5303000000000  0.5838900000000  0.5646680000000 1.0
C      1  0.5902380000000  0.5202070000000  0.5547190000000 1.0
C      1  0.5625950000000  0.4434460000000  0.5585350000000 1.0
C      1  0.5641900000000  0.4418460000000  0.4531910000000 1.0
C      1  0.4948160000000  0.4162470000000  0.4513950000000 1.0
C      1  0.4313900000000  0.4503440000000  0.4506350000000 1.0
C      1  0.4179730000000  0.5227020000000  0.4515750000000 1.0
C      1  0.4672920000000  0.5769660000000  0.4505630000000 1.0
C      1  0.5404840000000  0.5735560000000  0.4526750000000 1.0
C      1  0.5825300000000  0.5122040000000  0.4537440000000 1.0
C      1  0.4170000000000  0.4928750000000  0.5672470000000 1.0
C      1  0.4454540000000  0.5548240000000  0.5635960000000 1.0
C      1  0.5038760000000  0.5816240000000  0.5674820000000 1.0
C      1  0.5714260000000  0.5382470000000  0.5700670000000 1.0
C      1  0.5725330000000  0.4700920000000  0.5647970000000 1.0
C      1  0.5292720000000  0.4284600000000  0.5629560000000 1.0
C      1  0.4678520000000  0.4266530000000  0.5633520000000 1.0
C      1  0.5909980000000  0.5262310000000  0.4777010000000 1.0
C      1  0.5779770000000  0.4458490000000  0.4783130000000 1.0
C      1  0.5055350000000  0.4041760000000  0.4761600000000 1.0
C      1  0.4331180000000  0.4404870000000  0.4780850000000 1.0
C      1  0.4041270000000  0.5123720000000  0.4746000000000 1.0
C      1  0.4522750000000  0.5822100000000  0.4737790000000 1.0
C      1  0.5341100000000  0.5879790000000  0.4765900000000 1.0
C      1  0.6039010000000  0.4843120000000  0.4971890000000 1.0
C      1  0.5524450000000  0.4101210000000  0.4930740000000 1.0
C      1  0.4586860000000  0.4007690000000  0.4949080000000 1.0
C      1  0.4005060000000  0.4717500000000  0.4962670000000 1.0
C      1  0.4096320000000  0.5614400000000  0.4943010000000 1.0
C      1  0.4973520000000  0.5997400000000  0.4966510000000 1.0
C      1  0.5751220000000  0.5695280000000  0.4972410000000 1.0
C      1  0.4991560000000  0.5854510000000  0.5401110000000 1.0
C      1  0.5670730000000  0.5523330000000  0.5439800000000 1.0
C      1  0.5854370000000  0.4776310000000  0.5406820000000 1.0
C      1  0.5308680000000  0.4142330000000  0.5384020000000 1.0
C      1  0.4597140000000  0.4196810000000  0.5362910000000 1.0
C      1  0.4104940000000  0.4828830000000  0.5403230000000 1.0
C      1  0.4368030000000  0.5671760000000  0.5380870000000 1.0
C      1  0.4854510000000  0.4304550000000  0.5003810000000 1.0
C      1  0.4413620000000  0.4614010000000  0.4988420000000 1.0
C      1  0.4348230000000  0.5314100000000  0.4977760000000 1.0
C      1  0.4805640000000  0.5642410000000  0.5044120000000 1.0
C      1  0.5436430000000  0.5369260000000  0.5098230000000 1.0
C      1  0.5644490000000  0.4911670000000  0.4992510000000 1.0
C      1  0.5266150000000  0.4425280000000  0.4896290000000 1.0
C      1  0.4071100000000  0.5255270000000  0.5333180000000 1.0
C      1  0.4541510000000  0.5891840000000  0.5292240000000 1.0
C      1  0.5436790000000  0.5913260000000  0.5271680000000 1.0
C      1  0.5992650000000  0.5281920000000  0.5266780000000 1.0
C      1  0.5742940000000  0.4328990000000  0.5310450000000 1.0
C      1  0.5023960000000  0.4081030000000  0.5393910000000 1.0
C      1  0.4199090000000  0.4434550000000  0.5311180000000 1.0
C      1  0.4964760000000  0.4627670000000  0.5905810000000 1.0
C      1  0.4729330000000  0.4766820000000  0.5946360000000 1.0
C      1  0.4687180000000  0.5051610000000  0.5989070000000 1.0
C      1  0.4866590000000  0.5272890000000  0.5929550000000 1.0
C      1  0.5145670000000  0.5260860000000  0.5862660000000 1.0
C      1  0.5309880000000  0.5030800000000  0.5932750000000 1.0
C      1  0.5228210000000  0.4752640000000  0.5929960000000 1.0
C      1  0.5946670000000  0.4695810000000  0.4743050000000 1.0
C      1  0.5348400000000  0.4061320000000  0.4706800000000 1.0
C      1  0.4481570000000  0.4152980000000  0.4715160000000 1.0
C      1  0.4009500000000  0.4842190000000  0.4696910000000 1.0
C      1  0.4270530000000  0.5678980000000  0.4715470000000 1.0
C      1  0.5081360000000  0.5998340000000  0.4702670000000 1.0
C      1  0.5803970000000  0.5537950000000  0.4738940000000 1.0
C      1  0.5184290000000  0.5785020000000  0.4339380000000 1.0
C      1  0.5669390000000  0.5297470000000  0.4366810000000 1.0
C      1  0.5718620000000  0.4626830000000  0.4346450000000 1.0
C      1  0.5156890000000  0.4270440000000  0.4345180000000 1.0
C      1  0.4485330000000  0.4358810000000  0.4320180000000 1.0
C      1  0.4242900000000  0.5006650000000  0.4341010000000 1.0
C      1  0.4528970000000  0.5582870000000  0.4342170000000 1.0
C      1  0.4691880000000  0.4692390000000  0.5032310000000 1.0
C      1  0.4708070000000  0.4977040000000  0.5023280000000 1.0
C      1  0.4734240000000  0.5389980000000  0.4992320000000 1.0
C      1  0.5189710000000  0.5474400000000  0.5028950000000 1.0
C      1  0.5459150000000  0.5122910000000  0.4958110000000 1.0
C      1  0.5192410000000  0.4878610000000  0.4991410000000 1.0
C      1  0.5111350000000  0.4672150000000  0.5162120000000 1.0
C      1  0.4551810000000  0.5206880000000  0.5130080000000 1.0
C      1  0.4911740000000  0.5370430000000  0.5460620000000 1.0
C      1  0.5333070000000  0.5291090000000  0.5353340000000 1.0
C      1  0.5437410000000  0.5035690000000  0.5431880000000 1.0
C      1  0.5306690000000  0.4585380000000  0.5277360000000 1.0
C      1  0.4889590000000  0.4604130000000  0.5338050000000 1.0
C      1  0.4499580000000  0.4845030000000  0.5438360000000 1.0
C      1  0.5293610000000  0.5146060000000  0.4700620000000 1.0
C      1  0.5286650000000  0.4854720000000  0.4716400000000 1.0
C      1  0.5116160000000  0.4612330000000  0.4713460000000 1.0
C      1  0.4826950000000  0.4707120000000  0.4767850000000 1.0
C      1  0.4722590000000  0.4981810000000  0.4719990000000 1.0
C      1  0.4808830000000  0.5281400000000  0.4732330000000 1.0
C      1  0.5097080000000  0.5343140000000  0.4784410000000 1.0
C      1  0.4986160000000  0.5033540000000  0.5079870000000 1.0
C      1  0.4989920000000  0.4991190000000  0.4213520000000 1.0
C      1  0.4941690000000  0.4939680000000  0.5546790000000 1.0
C      1  0.4978740000000  0.4979110000000  0.4491280000000 1.0
C      1  0.4962800000000  0.5114680000000  0.5338850000000 1.0
C      1  0.4992420000000  0.4996380000000  0.3968930000000 1.0
END
