TITL C-2441160-1326-1288 0.0370428835547895 125000 -7715.38314911422 0 0 61 (C1) n - 1
REM
REM in /home/bkarasulu/work/CARBON/AIRSS/Generating-Clusters/ReaxFF-fromJPCA2015/Units_Real/with-SteepDescent/Higher-Symm
REM
REM
REM
REM
REM
REM ./C.cell (1df0a924f5614ab8850e4351716899ee)
REM
REM compiler GCC version 9.2.1 20190827 (Red Hat 9.2.1-1)
REM options -cpp -mtune=generic -march=x86-64 -g -O0 -fpre-include=/usr/include/finclude/math-vector-fortran.h
REM seed 1285713225 1421519245 -1460992390 -1819956899 926190639 1101771517 1681611734 1745704269 447947321 580723065 -405534105 868022995 765018710 458632163 -1175123428 2104657951 1729882320 1988719653 -1896087222 -2128268751 -542663019 -1838312827 229943412 256477621 -1854854618 -482485413 -1291068719 -95968980 -1521097890 -1198115056 1615190972 -1096743744 1167744216
REM
CELL 1.54180   50.00000   50.00000   50.00000   90.00000   90.00000   90.00000
LATT -1
SFAC C  
C      1  0.5458160000000  0.5089780000000  0.4873900000000 1.0
C      1  0.4675320000000  0.5086250000000  0.4676760000000 1.0
C      1  0.4873490000000  0.5104790000000  0.5454010000000 1.0
C      1  0.4714860000000  0.4572110000000  0.5314070000000 1.0
C      1  0.5416820000000  0.4569820000000  0.5100960000000 1.0
C      1  0.4878770000000  0.4573210000000  0.4599980000000 1.0
C      1  0.5715310000000  0.4956670000000  0.4904500000000 1.0
C      1  0.4579800000000  0.4964100000000  0.4435040000000 1.0
C      1  0.4719980000000  0.4955820000000  0.5677070000000 1.0
C      1  0.5659730000000  0.5420910000000  0.5015600000000 1.0
C      1  0.4672520000000  0.5430340000000  0.4468320000000 1.0
C      1  0.4642730000000  0.5434240000000  0.5588930000000 1.0
C      1  0.5017310000000  0.4624530000000  0.5383820000000 1.0
C      1  0.5332020000000  0.4615320000000  0.4803110000000 1.0
C      1  0.4661290000000  0.4613670000000  0.4820330000000 1.0
C      1  0.4725050000000  0.5182440000000  0.4280190000000 1.0
C      1  0.4523080000000  0.5162330000000  0.5628050000000 1.0
C      1  0.5775370000000  0.5159160000000  0.5106960000000 1.0
C      1  0.5519920000000  0.4745640000000  0.5314010000000 1.0
C      1  0.5011850000000  0.4751000000000  0.4407010000000 1.0
C      1  0.4477430000000  0.4744880000000  0.5301010000000 1.0
C      1  0.5083120000000  0.4866530000000  0.4837000000000 1.0
C      1  0.4827520000000  0.4875800000000  0.5023400000000 1.0
C      1  0.5104460000000  0.4862850000000  0.5137460000000 1.0
C      1  0.4477830000000  0.5035830000000  0.5365980000000 1.0
C      1  0.5569940000000  0.5034720000000  0.5277900000000 1.0
C      1  0.4970390000000  0.5042900000000  0.4374660000000 1.0
C      1  0.5149120000000  0.4724240000000  0.5637060000000 1.0
C      1  0.5486420000000  0.4718030000000  0.4561150000000 1.0
C      1  0.4383310000000  0.4723000000000  0.4817060000000 1.0
C      1  0.5516560000000  0.5100090000000  0.5551920000000 1.0
C      1  0.5245330000000  0.5108940000000  0.4303420000000 1.0
C      1  0.4278410000000  0.5107400000000  0.5172790000000 1.0
C      1  0.5299460000000  0.4810780000000  0.4358660000000 1.0
C      1  0.4294460000000  0.4823750000000  0.5076920000000 1.0
C      1  0.5420950000000  0.4818930000000  0.5588260000000 1.0
C      1  0.5149790000000  0.5403210000000  0.5542050000000 1.0
C      1  0.5372670000000  0.5408470000000  0.4615830000000 1.0
C      1  0.4503860000000  0.5406130000000  0.4847840000000 1.0
C      1  0.5373910000000  0.5408970000000  0.4910300000000 1.0
C      1  0.4783650000000  0.5358350000000  0.4738200000000 1.0
C      1  0.4888500000000  0.5406620000000  0.5416000000000 1.0
C      1  0.4732680000000  0.4440740000000  0.5060630000000 1.0
C      1  0.5189040000000  0.4438250000000  0.5212730000000 1.0
C      1  0.5089850000000  0.4440840000000  0.4742150000000 1.0
C      1  0.5077600000000  0.5160040000000  0.4790340000000 1.0
C      1  0.4812410000000  0.5153750000000  0.5121200000000 1.0
C      1  0.5101200000000  0.5201580000000  0.5077790000000 1.0
C      1  0.5497770000000  0.5133490000000  0.4594820000000 1.0
C      1  0.4412530000000  0.5143340000000  0.4760780000000 1.0
C      1  0.5097250000000  0.5139020000000  0.5635210000000 1.0
C      1  0.4336750000000  0.4907780000000  0.4591860000000 1.0
C      1  0.4986180000000  0.4913440000000  0.5789870000000 1.0
C      1  0.5699500000000  0.4907710000000  0.4616900000000 1.0
C      1  0.4912680000000  0.5463790000000  0.4325740000000 1.0
C      1  0.4472830000000  0.5477180000000  0.5374780000000 1.0
C      1  0.5594910000000  0.5483760000000  0.5274760000000 1.0
C      1  0.5185510000000  0.5398770000000  0.4394350000000 1.0
C      1  0.4380330000000  0.5395660000000  0.5122600000000 1.0
C      1  0.5442550000000  0.5394110000000  0.5492070000000 1.0
C      1  0.5004320000000  0.4345860000000  0.5005250000000 1.0
END
