TITL C-2441169-1362-1050 0.0615281119277261 125000 -20109.5372707926 0 0 142 (C1) n - 1
REM
REM in /home/bkarasulu/work/CARBON/AIRSS/Generating-Clusters/ReaxFF-fromJPCA2015/Units_Real/with-SteepDescent/Higher-Symm
REM
REM
REM
REM
REM
REM ./C.cell (1df0a924f5614ab8850e4351716899ee)
REM
REM compiler GCC version 9.2.1 20190827 (Red Hat 9.2.1-1)
REM options -cpp -mtune=generic -march=x86-64 -g -O0 -fpre-include=/usr/include/finclude/math-vector-fortran.h
REM seed 1727753236 366603401 -503798976 966588513 639485339 747481248 -749388254 445496466 1207676764 -1865077306 -154118224 1113564772 -1029316829 277515895 -702955489 1491412023 -1467118875 -1537815489 -176969448 284007282 -1631623239 -802566542 -1477437201 -55751258 1034751989 1024481124 1387925877 -619757940 226395059 -654684886 2082291975 -133524202 -280903414
REM
CELL 1.54180   50.00000   50.00000   50.00000   90.00000   90.00000   90.00000
LATT -1
SFAC C  
C      1  0.5113770000000  0.4153880000000  0.4407530000000 1.0
C      1  0.4528060000000  0.4250070000000  0.4513260000000 1.0
C      1  0.4410140000000  0.4252360000000  0.5431950000000 1.0
C      1  0.5280890000000  0.4156510000000  0.5534570000000 1.0
C      1  0.5628380000000  0.4334430000000  0.5007160000000 1.0
C      1  0.5379220000000  0.5748150000000  0.4476930000000 1.0
C      1  0.4628300000000  0.5724990000000  0.4445630000000 1.0
C      1  0.4357970000000  0.5759270000000  0.5198100000000 1.0
C      1  0.4953570000000  0.5762300000000  0.5627870000000 1.0
C      1  0.5600830000000  0.5756410000000  0.5197360000000 1.0
C      1  0.5838780000000  0.4748660000000  0.4606030000000 1.0
C      1  0.4882720000000  0.4784750000000  0.4092710000000 1.0
C      1  0.4073880000000  0.4699600000000  0.4795320000000 1.0
C      1  0.4458810000000  0.4671770000000  0.5746850000000 1.0
C      1  0.5642470000000  0.4856190000000  0.5658840000000 1.0
C      1  0.5892750000000  0.4987980000000  0.4761020000000 1.0
C      1  0.5083250000000  0.4954110000000  0.4009830000000 1.0
C      1  0.4115460000000  0.4957610000000  0.4683010000000 1.0
C      1  0.4437120000000  0.4960390000000  0.5711870000000 1.0
C      1  0.5542540000000  0.5039660000000  0.5855120000000 1.0
C      1  0.6013960000000  0.4858700000000  0.5249770000000 1.0
C      1  0.5549600000000  0.4961500000000  0.4109800000000 1.0
C      1  0.4345020000000  0.4920070000000  0.4232320000000 1.0
C      1  0.4066690000000  0.4950030000000  0.5424040000000 1.0
C      1  0.5113870000000  0.4870140000000  0.6070350000000 1.0
C      1  0.5167610000000  0.5833950000000  0.5449210000000 1.0
C      1  0.5490850000000  0.5861470000000  0.4951320000000 1.0
C      1  0.5113190000000  0.5840310000000  0.4510810000000 1.0
C      1  0.4597720000000  0.5793680000000  0.4746620000000 1.0
C      1  0.4591780000000  0.5881030000000  0.5309800000000 1.0
C      1  0.5080990000000  0.5979480000000  0.5216500000000 1.0
C      1  0.5233540000000  0.5979930000000  0.4973840000000 1.0
C      1  0.5053340000000  0.5976130000000  0.4754330000000 1.0
C      1  0.4791170000000  0.5984300000000  0.4860780000000 1.0
C      1  0.4801580000000  0.5993410000000  0.5145280000000 1.0
C      1  0.5178940000000  0.5157860000000  0.5222100000000 1.0
C      1  0.5175210000000  0.5054900000000  0.4887550000000 1.0
C      1  0.4899640000000  0.5100210000000  0.4826930000000 1.0
C      1  0.4751770000000  0.5063750000000  0.5058090000000 1.0
C      1  0.4957930000000  0.4975780000000  0.5222970000000 1.0
C      1  0.4113660000000  0.4670330000000  0.5336790000000 1.0
C      1  0.4932840000000  0.4672760000000  0.5983520000000 1.0
C      1  0.5907050000000  0.4585380000000  0.5326820000000 1.0
C      1  0.5605590000000  0.4695410000000  0.4197080000000 1.0
C      1  0.4346710000000  0.4630720000000  0.4282860000000 1.0
C      1  0.5100040000000  0.4604270000000  0.4723350000000 1.0
C      1  0.4751840000000  0.4627260000000  0.5084030000000 1.0
C      1  0.4993450000000  0.4689990000000  0.5232230000000 1.0
C      1  0.5248690000000  0.4602600000000  0.5114710000000 1.0
C      1  0.5278390000000  0.4777270000000  0.4889930000000 1.0
C      1  0.5303920000000  0.5114770000000  0.4030600000000 1.0
C      1  0.4185470000000  0.5075470000000  0.4424960000000 1.0
C      1  0.4210720000000  0.5121310000000  0.5618920000000 1.0
C      1  0.5400330000000  0.4828140000000  0.5994270000000 1.0
C      1  0.6047990000000  0.4840880000000  0.4956590000000 1.0
C      1  0.4742130000000  0.4902740000000  0.4397580000000 1.0
C      1  0.4359550000000  0.4897770000000  0.5066800000000 1.0
C      1  0.4894940000000  0.4937640000000  0.5648560000000 1.0
C      1  0.5599280000000  0.4884010000000  0.5367690000000 1.0
C      1  0.5550270000000  0.4881330000000  0.4560680000000 1.0
C      1  0.4995440000000  0.4077270000000  0.5246420000000 1.0
C      1  0.5210220000000  0.4104450000000  0.5066130000000 1.0
C      1  0.5142160000000  0.4060600000000  0.4805000000000 1.0
C      1  0.4847600000000  0.4050940000000  0.4823600000000 1.0
C      1  0.4742300000000  0.4066420000000  0.5091310000000 1.0
C      1  0.5213340000000  0.5367350000000  0.4198220000000 1.0
C      1  0.4304390000000  0.5341450000000  0.4488990000000 1.0
C      1  0.4273620000000  0.5411210000000  0.5580660000000 1.0
C      1  0.5137150000000  0.5309700000000  0.5845880000000 1.0
C      1  0.5812320000000  0.5426350000000  0.4905380000000 1.0
C      1  0.5383050000000  0.5250770000000  0.5693510000000 1.0
C      1  0.5569530000000  0.5265370000000  0.4903500000000 1.0
C      1  0.5132680000000  0.5266400000000  0.4513920000000 1.0
C      1  0.4462210000000  0.5309050000000  0.4737030000000 1.0
C      1  0.4576820000000  0.5207050000000  0.5258670000000 1.0
C      1  0.4531700000000  0.4744650000000  0.5243750000000 1.0
C      1  0.5151020000000  0.4820440000000  0.5569540000000 1.0
C      1  0.5728530000000  0.4594410000000  0.5098260000000 1.0
C      1  0.5207090000000  0.4759690000000  0.4463180000000 1.0
C      1  0.4555980000000  0.4798220000000  0.4606610000000 1.0
C      1  0.4747030000000  0.5507630000000  0.4842140000000 1.0
C      1  0.4774890000000  0.5400220000000  0.5347570000000 1.0
C      1  0.5170280000000  0.5425940000000  0.5082960000000 1.0
C      1  0.5296650000000  0.5332110000000  0.4830800000000 1.0
C      1  0.4872830000000  0.5326300000000  0.4649260000000 1.0
C      1  0.4518150000000  0.5542820000000  0.5674540000000 1.0
C      1  0.5536700000000  0.5458500000000  0.5534380000000 1.0
C      1  0.5746770000000  0.5537060000000  0.4644350000000 1.0
C      1  0.4933030000000  0.5484470000000  0.4180570000000 1.0
C      1  0.4262590000000  0.5464940000000  0.4879700000000 1.0
C      1  0.4259200000000  0.5329850000000  0.5141190000000 1.0
C      1  0.4764010000000  0.5389000000000  0.5645180000000 1.0
C      1  0.5763260000000  0.5360280000000  0.5385710000000 1.0
C      1  0.5652740000000  0.5378150000000  0.4413630000000 1.0
C      1  0.4679580000000  0.5344880000000  0.4172480000000 1.0
C      1  0.4487460000000  0.5507280000000  0.4322780000000 1.0
C      1  0.4222410000000  0.5540010000000  0.5327870000000 1.0
C      1  0.4970000000000  0.5528170000000  0.5791650000000 1.0
C      1  0.5805720000000  0.5551430000000  0.5171060000000 1.0
C      1  0.5438690000000  0.5529850000000  0.4305240000000 1.0
C      1  0.4897940000000  0.5719410000000  0.4349140000000 1.0
C      1  0.4358650000000  0.5732230000000  0.4916270000000 1.0
C      1  0.4665110000000  0.5781110000000  0.5572210000000 1.0
C      1  0.5431580000000  0.5704750000000  0.5429050000000 1.0
C      1  0.5566560000000  0.5757670000000  0.4691520000000 1.0
C      1  0.4323910000000  0.4328930000000  0.4691700000000 1.0
C      1  0.4600500000000  0.4151150000000  0.5610020000000 1.0
C      1  0.5555820000000  0.4205350000000  0.5552710000000 1.0
C      1  0.5739400000000  0.4329950000000  0.4741750000000 1.0
C      1  0.4934720000000  0.4181330000000  0.4226140000000 1.0
C      1  0.4601640000000  0.5054250000000  0.4174090000000 1.0
C      1  0.4134960000000  0.5052060000000  0.5162230000000 1.0
C      1  0.4972830000000  0.5077490000000  0.5902270000000 1.0
C      1  0.5826100000000  0.5067590000000  0.5347440000000 1.0
C      1  0.5638550000000  0.5085930000000  0.4357490000000 1.0
C      1  0.4782000000000  0.4366960000000  0.5611580000000 1.0
C      1  0.5505770000000  0.4487760000000  0.5556140000000 1.0
C      1  0.5515920000000  0.4371020000000  0.4581000000000 1.0
C      1  0.4836290000000  0.4436690000000  0.4312000000000 1.0
C      1  0.4297810000000  0.4340280000000  0.4977580000000 1.0
C      1  0.4115400000000  0.4566480000000  0.5055020000000 1.0
C      1  0.4714700000000  0.4556810000000  0.5844200000000 1.0
C      1  0.5766010000000  0.4430260000000  0.5522650000000 1.0
C      1  0.5648580000000  0.4484040000000  0.4364290000000 1.0
C      1  0.4541470000000  0.4415670000000  0.4270020000000 1.0
C      1  0.4417920000000  0.4990380000000  0.4789340000000 1.0
C      1  0.4635200000000  0.4969050000000  0.5488280000000 1.0
C      1  0.5333250000000  0.5022970000000  0.5438370000000 1.0
C      1  0.5602330000000  0.5002070000000  0.4823930000000 1.0
C      1  0.5038420000000  0.4994510000000  0.4461350000000 1.0
C      1  0.5363350000000  0.4667750000000  0.5740360000000 1.0
C      1  0.5925860000000  0.4582310000000  0.4843740000000 1.0
C      1  0.5068540000000  0.4613760000000  0.4235000000000 1.0
C      1  0.4303180000000  0.4605410000000  0.4589610000000 1.0
C      1  0.4352000000000  0.4561820000000  0.5487340000000 1.0
C      1  0.4740360000000  0.4296680000000  0.4707910000000 1.0
C      1  0.4489570000000  0.4202100000000  0.5151490000000 1.0
C      1  0.5032540000000  0.4272770000000  0.5465650000000 1.0
C      1  0.5354390000000  0.4337680000000  0.5098720000000 1.0
C      1  0.5222090000000  0.4294410000000  0.4639860000000 1.0
C      1  0.4826410000000  0.4548890000000  0.4822360000000 1.0
C      1  0.4899940000000  0.5511340000000  0.5102420000000 1.0
END
