TITL C-2441166-8118-247 0.0221575937965414 125000 -13818.3657717168 0 0 97 (C1) n - 1
REM
REM in /home/bkarasulu/work/CARBON/AIRSS/Generating-Clusters/ReaxFF-fromJPCA2015/Units_Real/with-SteepDescent/Higher-Symm
REM
REM
REM
REM
REM
REM ./C.cell (1df0a924f5614ab8850e4351716899ee)
REM
REM compiler GCC version 9.2.1 20190827 (Red Hat 9.2.1-1)
REM options -cpp -mtune=generic -march=x86-64 -g -O0 -fpre-include=/usr/include/finclude/math-vector-fortran.h
REM seed 739348478 1786441011 1241408461 -644878844 -514937354 1892682199 1356381893 -682703401 -1822914872 -676827249 2072836162 -1298656464 1423009686 191180153 753065188 -663112625 107109991 1828754602 -545343799 2000120084 948471132 -1630608717 1321549160 -73602011 -1030979729 -1142043173 -891528685 -1418030695 -677878909 1256237764 -400741667 528146772 -1603818905
REM
CELL 1.54180   50.00000   50.00000   50.00000   90.00000   90.00000   90.00000
LATT -1
SFAC C  
C      1  0.5285860000000  0.4682920000000  0.5176440000000 1.0
C      1  0.5308930000000  0.4996950000000  0.4698080000000 1.0
C      1  0.5297700000000  0.5303990000000  0.5179830000000 1.0
C      1  0.4725790000000  0.5350700000000  0.5160750000000 1.0
C      1  0.4749920000000  0.4985550000000  0.4670520000000 1.0
C      1  0.4675010000000  0.4707490000000  0.5146380000000 1.0
C      1  0.5539280000000  0.5663970000000  0.4878590000000 1.0
C      1  0.5572660000000  0.4774720000000  0.5639000000000 1.0
C      1  0.5495920000000  0.4547290000000  0.4485580000000 1.0
C      1  0.4452020000000  0.4330430000000  0.4884370000000 1.0
C      1  0.4441070000000  0.5228260000000  0.5637620000000 1.0
C      1  0.4492920000000  0.5465450000000  0.4503150000000 1.0
C      1  0.4604250000000  0.4575470000000  0.5617970000000 1.0
C      1  0.4569530000000  0.4716000000000  0.4297440000000 1.0
C      1  0.4547600000000  0.5790420000000  0.5131400000000 1.0
C      1  0.5393980000000  0.5421400000000  0.5622550000000 1.0
C      1  0.5419840000000  0.5287130000000  0.4305760000000 1.0
C      1  0.5449290000000  0.4224670000000  0.5125070000000 1.0
C      1  0.5149540000000  0.4270100000000  0.4863970000000 1.0
C      1  0.5107050000000  0.5539270000000  0.4375830000000 1.0
C      1  0.5106140000000  0.5117730000000  0.5756620000000 1.0
C      1  0.4844350000000  0.5735420000000  0.4860180000000 1.0
C      1  0.4946820000000  0.4518690000000  0.4431230000000 1.0
C      1  0.4889650000000  0.4844470000000  0.5747160000000 1.0
C      1  0.5167850000000  0.4162220000000  0.5131360000000 1.0
C      1  0.5157450000000  0.5319900000000  0.4200840000000 1.0
C      1  0.5120530000000  0.5452550000000  0.5682210000000 1.0
C      1  0.4826660000000  0.5853840000000  0.5128840000000 1.0
C      1  0.4840310000000  0.4664150000000  0.4198170000000 1.0
C      1  0.4888700000000  0.4560620000000  0.5662460000000 1.0
C      1  0.5409920000000  0.5163590000000  0.5752620000000 1.0
C      1  0.5438890000000  0.4253310000000  0.4842970000000 1.0
C      1  0.5391680000000  0.5529350000000  0.4457150000000 1.0
C      1  0.4591750000000  0.4832310000000  0.5746880000000 1.0
C      1  0.4548240000000  0.5755300000000  0.4850300000000 1.0
C      1  0.4566670000000  0.4480220000000  0.4442890000000 1.0
C      1  0.5536060000000  0.4516980000000  0.5199940000000 1.0
C      1  0.5530430000000  0.5065340000000  0.4485930000000 1.0
C      1  0.5525350000000  0.5411170000000  0.5321490000000 1.0
C      1  0.4469700000000  0.5496800000000  0.5208810000000 1.0
C      1  0.4482460000000  0.4944260000000  0.4504030000000 1.0
C      1  0.4469740000000  0.4592880000000  0.5325460000000 1.0
C      1  0.5591890000000  0.5488180000000  0.4670150000000 1.0
C      1  0.5634040000000  0.5036240000000  0.5598820000000 1.0
C      1  0.5593490000000  0.4458250000000  0.4740160000000 1.0
C      1  0.4386830000000  0.4499350000000  0.4664800000000 1.0
C      1  0.4378430000000  0.4969000000000  0.5599100000000 1.0
C      1  0.4391900000000  0.5553010000000  0.4755680000000 1.0
C      1  0.5168220000000  0.5419130000000  0.4948300000000 1.0
C      1  0.5206340000000  0.4859220000000  0.5381890000000 1.0
C      1  0.5164150000000  0.4758080000000  0.4732520000000 1.0
C      1  0.4818670000000  0.4575790000000  0.4931360000000 1.0
C      1  0.4842350000000  0.5182070000000  0.5368040000000 1.0
C      1  0.4857170000000  0.5257540000000  0.4668730000000 1.0
C      1  0.5578480000000  0.4530230000000  0.5499930000000 1.0
C      1  0.5525900000000  0.4798030000000  0.4343340000000 1.0
C      1  0.5553990000000  0.5667530000000  0.5165130000000 1.0
C      1  0.4422150000000  0.5479610000000  0.5507960000000 1.0
C      1  0.4464900000000  0.5215000000000  0.4365010000000 1.0
C      1  0.4439560000000  0.4331890000000  0.5169790000000 1.0
C      1  0.5718830000000  0.5164170000000  0.5358900000000 1.0
C      1  0.5694770000000  0.4620400000000  0.4949380000000 1.0
C      1  0.5707060000000  0.5226070000000  0.4685720000000 1.0
C      1  0.4300770000000  0.4843720000000  0.5358790000000 1.0
C      1  0.4292780000000  0.5391080000000  0.4965940000000 1.0
C      1  0.4298230000000  0.4778350000000  0.4681560000000 1.0
C      1  0.4892610000000  0.4726130000000  0.4666030000000 1.0
C      1  0.4865570000000  0.5439300000000  0.4926760000000 1.0
C      1  0.4823680000000  0.4913520000000  0.5240270000000 1.0
C      1  0.5135870000000  0.5218160000000  0.4733420000000 1.0
C      1  0.5129280000000  0.4579560000000  0.4951340000000 1.0
C      1  0.5143030000000  0.5140330000000  0.5343100000000 1.0
C      1  0.4222540000000  0.5028550000000  0.5153460000000 1.0
C      1  0.4177850000000  0.4868160000000  0.4916980000000 1.0
C      1  0.4248700000000  0.5130450000000  0.4878630000000 1.0
C      1  0.5845280000000  0.5011210000000  0.5160380000000 1.0
C      1  0.5770650000000  0.5174040000000  0.4954640000000 1.0
C      1  0.5798680000000  0.4882920000000  0.4903600000000 1.0
C      1  0.5284060000000  0.4746020000000  0.4199470000000 1.0
C      1  0.5291230000000  0.5803730000000  0.5169950000000 1.0
C      1  0.5315310000000  0.4463770000000  0.5614590000000 1.0
C      1  0.4712090000000  0.5258190000000  0.4219000000000 1.0
C      1  0.4703540000000  0.4203830000000  0.5181710000000 1.0
C      1  0.4685810000000  0.5550700000000  0.5624170000000 1.0
C      1  0.4736280000000  0.4282280000000  0.4895840000000 1.0
C      1  0.4794250000000  0.5440570000000  0.4438840000000 1.0
C      1  0.4729200000000  0.5262240000000  0.5659590000000 1.0
C      1  0.5258400000000  0.5716660000000  0.4890610000000 1.0
C      1  0.5232620000000  0.4508010000000  0.4353060000000 1.0
C      1  0.5281460000000  0.4759010000000  0.5666000000000 1.0
C      1  0.4952760000000  0.5639460000000  0.5539140000000 1.0
C      1  0.4965190000000  0.4220180000000  0.5311950000000 1.0
C      1  0.4961480000000  0.5131320000000  0.4154000000000 1.0
C      1  0.5052960000000  0.4375560000000  0.5530330000000 1.0
C      1  0.5033590000000  0.5796100000000  0.5307580000000 1.0
C      1  0.5040690000000  0.4868880000000  0.4145940000000 1.0
C      1  0.4890080000000  0.5011160000000  0.4978200000000 1.0
END
