TITL C-2441157-2117-8 0.0010354156413458 125000 -1347.36913960783 0 0 11 (C3v) n - 1
REM
REM in /home/bkarasulu/work/CARBON/AIRSS/Generating-Clusters/ReaxFF-fromJPCA2015/Units_Real/with-SteepDescent/Higher-Symm
REM
REM
REM
REM
REM
REM ./C.cell (1df0a924f5614ab8850e4351716899ee)
REM
REM compiler GCC version 9.2.1 20190827 (Red Hat 9.2.1-1)
REM options -cpp -mtune=generic -march=x86-64 -g -O0 -fpre-include=/usr/include/finclude/math-vector-fortran.h
REM seed 791318982 1144010124 755415482 751793065 -645905662 1197118118 -1917852708 202442423 -1757167309 1523010143 828537831 209929579 1819250466 -270401440 -1688267043 -1512761670 48722177 1551566160 777208442 -149600968 -2138454529 1258791690 -1082413313 -1354818965 -1976058016 799441860 -357974482 -1963659352 1859105071 1251284035 -2124548000 1646008851 1404931360
REM
CELL 1.54180   50.00000   50.00000   50.00000   90.00000   90.00000   90.00000
LATT -1
SFAC C  
C      1  0.5329150000000  0.4921500000000  0.5039650000000 1.0
C      1  0.4939020000000  0.5311640000000  0.5039650000000 1.0
C      1  0.4964260000000  0.4946740000000  0.5376960000000 1.0
C      1  0.4601580000000  0.4946920000000  0.5014330000000 1.0
C      1  0.4964430000000  0.4584070000000  0.5014330000000 1.0
C      1  0.4939150000000  0.4921630000000  0.4649270000000 1.0
C      1  0.5131070000000  0.4771990000000  0.5189070000000 1.0
C      1  0.4789500000000  0.5113560000000  0.5189070000000 1.0
C      1  0.5296270000000  0.5278750000000  0.4681810000000 1.0
C      1  0.4789550000000  0.4772040000000  0.4847470000000 1.0
C      1  0.5136930000000  0.5119420000000  0.4841690000000 1.0
END
