TITL C-2441163-1170-190 0.139679437722545 125000 -26159.4633682187 0 0 198 (C1) n - 1
REM
REM in /home/bkarasulu/work/CARBON/AIRSS/Generating-Clusters/ReaxFF-fromJPCA2015/Units_Real/with-SteepDescent/Higher-Symm
REM
REM
REM
REM
REM
REM ./C.cell (1df0a924f5614ab8850e4351716899ee)
REM
REM compiler GCC version 9.2.1 20190827 (Red Hat 9.2.1-1)
REM options -cpp -mtune=generic -march=x86-64 -g -O0 -fpre-include=/usr/include/finclude/math-vector-fortran.h
REM seed 1885760947 -2107212147 1418086645 -1914310892 1358234349 -597704921 -863000509 -1491207425 -1600058433 -987444301 558844312 -777066833 1370310467 1789399582 -210037556 997438485 2065549720 1522392173 1338513354 2094797407 298498300 -290082482 1987978498 312881009 443537546 561607034 1508331446 1134285257 528314942 1264984033 1295737637 342628803 819068668
REM
CELL 1.54180   50.00000   50.00000   50.00000   90.00000   90.00000   90.00000
LATT -1
SFAC C  
C      1  0.5811550000000  0.5420840000000  0.5329060000000 1.0
C      1  0.4234510000000  0.5171890000000  0.5615680000000 1.0
C      1  0.4909920000000  0.4390320000000  0.4125190000000 1.0
C      1  0.5297610000000  0.6140420000000  0.4885970000000 1.0
C      1  0.4850450000000  0.5623840000000  0.4626910000000 1.0
C      1  0.6001850000000  0.4847440000000  0.5513500000000 1.0
C      1  0.4764820000000  0.5806750000000  0.4390500000000 1.0
C      1  0.5225500000000  0.4955780000000  0.3902600000000 1.0
C      1  0.5360070000000  0.6049540000000  0.5163190000000 1.0
C      1  0.4239020000000  0.5421170000000  0.4576140000000 1.0
C      1  0.5174620000000  0.4710170000000  0.6000820000000 1.0
C      1  0.5192250000000  0.5607890000000  0.4186170000000 1.0
C      1  0.4991130000000  0.5419860000000  0.4110340000000 1.0
C      1  0.4480030000000  0.5598180000000  0.5239780000000 1.0
C      1  0.4760880000000  0.5530380000000  0.3986920000000 1.0
C      1  0.4639250000000  0.5780730000000  0.5070710000000 1.0
C      1  0.4526420000000  0.4668100000000  0.5134960000000 1.0
C      1  0.4203890000000  0.5579540000000  0.5528320000000 1.0
C      1  0.3877720000000  0.5220880000000  0.4878770000000 1.0
C      1  0.3973810000000  0.4868670000000  0.5419380000000 1.0
C      1  0.5439740000000  0.4912790000000  0.4655780000000 1.0
C      1  0.5278160000000  0.4862700000000  0.5453630000000 1.0
C      1  0.4461050000000  0.5371590000000  0.4317430000000 1.0
C      1  0.4456460000000  0.4456780000000  0.5756730000000 1.0
C      1  0.4051080000000  0.4538590000000  0.4659200000000 1.0
C      1  0.5561160000000  0.4330870000000  0.4757630000000 1.0
C      1  0.3881300000000  0.4788250000000  0.4698690000000 1.0
C      1  0.4945040000000  0.4919790000000  0.5964940000000 1.0
C      1  0.5598000000000  0.5276890000000  0.4294810000000 1.0
C      1  0.5069470000000  0.5862200000000  0.4298740000000 1.0
C      1  0.5517540000000  0.5373800000000  0.5397140000000 1.0
C      1  0.6067470000000  0.4608910000000  0.5103270000000 1.0
C      1  0.5473160000000  0.4349080000000  0.5743650000000 1.0
C      1  0.5406400000000  0.5316340000000  0.3923570000000 1.0
C      1  0.5141490000000  0.4065450000000  0.4729500000000 1.0
C      1  0.5045510000000  0.4658170000000  0.5098580000000 1.0
C      1  0.5458760000000  0.5404180000000  0.5713840000000 1.0
C      1  0.4135590000000  0.4889940000000  0.5659410000000 1.0
C      1  0.4461060000000  0.4056660000000  0.5078080000000 1.0
C      1  0.4967560000000  0.4915170000000  0.4737790000000 1.0
C      1  0.5895930000000  0.5529550000000  0.5595520000000 1.0
C      1  0.5162730000000  0.4623140000000  0.4482790000000 1.0
C      1  0.4439080000000  0.5819990000000  0.4674250000000 1.0
C      1  0.5587780000000  0.4057740000000  0.4652000000000 1.0
C      1  0.4901620000000  0.4282370000000  0.5055590000000 1.0
C      1  0.4683110000000  0.5074330000000  0.3940610000000 1.0
C      1  0.4689820000000  0.4829840000000  0.6139900000000 1.0
C      1  0.5202620000000  0.4309500000000  0.5435440000000 1.0
C      1  0.5163000000000  0.4377550000000  0.5124350000000 1.0
C      1  0.3837220000000  0.4738430000000  0.4963320000000 1.0
C      1  0.4414230000000  0.5118060000000  0.4846460000000 1.0
C      1  0.5418220000000  0.5593040000000  0.3929620000000 1.0
C      1  0.5349920000000  0.5616430000000  0.4807160000000 1.0
C      1  0.4313070000000  0.4230380000000  0.4943210000000 1.0
C      1  0.4998460000000  0.4156220000000  0.5569380000000 1.0
C      1  0.4191550000000  0.5804820000000  0.4845670000000 1.0
C      1  0.4403580000000  0.5968510000000  0.5152330000000 1.0
C      1  0.6130090000000  0.5131600000000  0.5056100000000 1.0
C      1  0.5013580000000  0.5265800000000  0.5607950000000 1.0
C      1  0.4288140000000  0.5354470000000  0.4845980000000 1.0
C      1  0.5523280000000  0.4630830000000  0.5063520000000 1.0
C      1  0.4900370000000  0.4011500000000  0.4935120000000 1.0
C      1  0.4333210000000  0.5421610000000  0.5738920000000 1.0
C      1  0.4436590000000  0.4276540000000  0.4417310000000 1.0
C      1  0.5802800000000  0.5685050000000  0.5170540000000 1.0
C      1  0.4788390000000  0.4891680000000  0.5442010000000 1.0
C      1  0.5209240000000  0.4441250000000  0.5876400000000 1.0
C      1  0.5469240000000  0.4984140000000  0.4298810000000 1.0
C      1  0.4050960000000  0.5679590000000  0.4623980000000 1.0
C      1  0.5382730000000  0.4684740000000  0.4822420000000 1.0
C      1  0.4684680000000  0.5414210000000  0.5317610000000 1.0
C      1  0.5297680000000  0.5136690000000  0.4743310000000 1.0
C      1  0.4383260000000  0.5835830000000  0.5433020000000 1.0
C      1  0.4231710000000  0.4928360000000  0.4147440000000 1.0
C      1  0.5877660000000  0.4787280000000  0.4246710000000 1.0
C      1  0.5590840000000  0.4432330000000  0.4175200000000 1.0
C      1  0.4635740000000  0.5132740000000  0.5012850000000 1.0
C      1  0.4377560000000  0.4254290000000  0.5555390000000 1.0
C      1  0.4617910000000  0.3982390000000  0.4855940000000 1.0
C      1  0.5603330000000  0.5151840000000  0.5027630000000 1.0
C      1  0.5124400000000  0.4206970000000  0.4201030000000 1.0
C      1  0.4447450000000  0.4890140000000  0.5986680000000 1.0
C      1  0.4844840000000  0.5943300000000  0.5763160000000 1.0
C      1  0.4571980000000  0.4086990000000  0.4594550000000 1.0
C      1  0.4795750000000  0.4854130000000  0.5718820000000 1.0
C      1  0.4897410000000  0.5106150000000  0.4526000000000 1.0
C      1  0.4582550000000  0.5015140000000  0.5758080000000 1.0
C      1  0.4962140000000  0.3853390000000  0.5214150000000 1.0
C      1  0.4827550000000  0.5001460000000  0.4933960000000 1.0
C      1  0.6049550000000  0.5308170000000  0.4834790000000 1.0
C      1  0.5654990000000  0.4762270000000  0.5903430000000 1.0
C      1  0.4416460000000  0.4972830000000  0.4599780000000 1.0
C      1  0.5467170000000  0.4214280000000  0.5492330000000 1.0
C      1  0.5589070000000  0.5766560000000  0.4730140000000 1.0
C      1  0.5481580000000  0.3925840000000  0.5121360000000 1.0
C      1  0.5251750000000  0.5851750000000  0.5802470000000 1.0
C      1  0.5135840000000  0.5989560000000  0.5336120000000 1.0
C      1  0.3907590000000  0.5085870000000  0.4637490000000 1.0
C      1  0.5115960000000  0.5684160000000  0.5261250000000 1.0
C      1  0.4918420000000  0.4550140000000  0.4367350000000 1.0
C      1  0.5498580000000  0.5714260000000  0.5717980000000 1.0
C      1  0.4678230000000  0.4915100000000  0.4156090000000 1.0
C      1  0.4537960000000  0.4664250000000  0.4202830000000 1.0
C      1  0.4667920000000  0.4608640000000  0.4456190000000 1.0
C      1  0.4702180000000  0.4421770000000  0.5219490000000 1.0
C      1  0.4629140000000  0.5079920000000  0.4410280000000 1.0
C      1  0.5073960000000  0.4047720000000  0.4444920000000 1.0
C      1  0.5769100000000  0.5363770000000  0.4838580000000 1.0
C      1  0.4878450000000  0.5490810000000  0.6010460000000 1.0
C      1  0.5360620000000  0.5382510000000  0.4639510000000 1.0
C      1  0.5472980000000  0.4636640000000  0.3990440000000 1.0
C      1  0.4778900000000  0.4042670000000  0.4395960000000 1.0
C      1  0.4761380000000  0.6145000000000  0.4802570000000 1.0
C      1  0.4053540000000  0.5509190000000  0.5288550000000 1.0
C      1  0.5297260000000  0.5181070000000  0.5901060000000 1.0
C      1  0.5540670000000  0.4995570000000  0.5402930000000 1.0
C      1  0.5641200000000  0.4744340000000  0.5290580000000 1.0
C      1  0.5285090000000  0.4452820000000  0.4685270000000 1.0
C      1  0.5819550000000  0.4512530000000  0.4656150000000 1.0
C      1  0.5156580000000  0.4617860000000  0.5531570000000 1.0
C      1  0.5251700000000  0.5940850000000  0.4468260000000 1.0
C      1  0.4599590000000  0.5605110000000  0.4214150000000 1.0
C      1  0.5151780000000  0.4961610000000  0.5208940000000 1.0
C      1  0.4057450000000  0.4456120000000  0.5185660000000 1.0
C      1  0.5812860000000  0.5644810000000  0.4878900000000 1.0
C      1  0.5395120000000  0.4244860000000  0.4236810000000 1.0
C      1  0.5530120000000  0.5796810000000  0.5176390000000 1.0
C      1  0.5448040000000  0.6009290000000  0.4645640000000 1.0
C      1  0.4244150000000  0.5198390000000  0.4190160000000 1.0
C      1  0.5159640000000  0.5210340000000  0.4008410000000 1.0
C      1  0.5008750000000  0.5377810000000  0.4920920000000 1.0
C      1  0.4628770000000  0.5639380000000  0.4804250000000 1.0
C      1  0.5837430000000  0.4603950000000  0.5457530000000 1.0
C      1  0.4178450000000  0.5130050000000  0.4491220000000 1.0
C      1  0.5097280000000  0.6028300000000  0.5619780000000 1.0
C      1  0.4242240000000  0.5552700000000  0.5056880000000 1.0
C      1  0.4758340000000  0.5372400000000  0.5052020000000 1.0
C      1  0.4513010000000  0.4889150000000  0.5308330000000 1.0
C      1  0.5801370000000  0.4533200000000  0.4355680000000 1.0
C      1  0.4629550000000  0.6007890000000  0.4572360000000 1.0
C      1  0.4303670000000  0.4699270000000  0.5815650000000 1.0
C      1  0.5496100000000  0.4339950000000  0.5044910000000 1.0
C      1  0.4909380000000  0.4633850000000  0.5359140000000 1.0
C      1  0.5919620000000  0.4372790000000  0.5204490000000 1.0
C      1  0.5980470000000  0.4414060000000  0.4919580000000 1.0
C      1  0.6000300000000  0.5078870000000  0.5315500000000 1.0
C      1  0.4650140000000  0.6090020000000  0.5072500000000 1.0
C      1  0.5616660000000  0.4172590000000  0.5249430000000 1.0
C      1  0.4788520000000  0.4573080000000  0.6109110000000 1.0
C      1  0.5311940000000  0.5165460000000  0.5031470000000 1.0
C      1  0.4196220000000  0.4465060000000  0.4900660000000 1.0
C      1  0.5727490000000  0.5754670000000  0.5556600000000 1.0
C      1  0.4967080000000  0.4286810000000  0.5807390000000 1.0
C      1  0.5885990000000  0.4896870000000  0.5777490000000 1.0
C      1  0.3849120000000  0.4670530000000  0.5235630000000 1.0
C      1  0.5635570000000  0.4854440000000  0.4091360000000 1.0
C      1  0.5794500000000  0.5330670000000  0.4505470000000 1.0
C      1  0.5214360000000  0.4824940000000  0.4290610000000 1.0
C      1  0.5025500000000  0.6137430000000  0.4903300000000 1.0
C      1  0.5986600000000  0.4902680000000  0.5092630000000 1.0
C      1  0.5382990000000  0.5572220000000  0.5243190000000 1.0
C      1  0.5178870000000  0.4698270000000  0.4020960000000 1.0
C      1  0.4419990000000  0.4700590000000  0.4866280000000 1.0
C      1  0.4999790000000  0.5744710000000  0.5920910000000 1.0
C      1  0.6009200000000  0.4927270000000  0.4472380000000 1.0
C      1  0.5233050000000  0.3849980000000  0.5206160000000 1.0
C      1  0.5389400000000  0.4894990000000  0.5957170000000 1.0
C      1  0.4923060000000  0.4643780000000  0.4835910000000 1.0
C      1  0.5387580000000  0.3943460000000  0.4834100000000 1.0
C      1  0.4580540000000  0.4130560000000  0.5344040000000 1.0
C      1  0.4596730000000  0.5439490000000  0.5904910000000 1.0
C      1  0.5895920000000  0.4807210000000  0.4715120000000 1.0
C      1  0.4661770000000  0.4240960000000  0.4220440000000 1.0
C      1  0.4952670000000  0.5359170000000  0.4630320000000 1.0
C      1  0.4641590000000  0.5829420000000  0.5590740000000 1.0
C      1  0.4713120000000  0.5287790000000  0.3847910000000 1.0
C      1  0.4063280000000  0.5061580000000  0.5213160000000 1.0
C      1  0.4242990000000  0.4651010000000  0.4195450000000 1.0
C      1  0.5739500000000  0.5342240000000  0.5761340000000 1.0
C      1  0.5488850000000  0.4103800000000  0.4400950000000 1.0
C      1  0.4217320000000  0.4469900000000  0.4432700000000 1.0
C      1  0.4715710000000  0.5258010000000  0.5725300000000 1.0
C      1  0.4326000000000  0.5101520000000  0.5338890000000 1.0
C      1  0.4211610000000  0.4359230000000  0.5375410000000 1.0
C      1  0.4709350000000  0.4392080000000  0.5905200000000 1.0
C      1  0.4653140000000  0.4586940000000  0.4735920000000 1.0
C      1  0.5706100000000  0.5083800000000  0.5655280000000 1.0
C      1  0.6046780000000  0.5206900000000  0.4547880000000 1.0
C      1  0.4792020000000  0.5607340000000  0.5493320000000 1.0
C      1  0.4823980000000  0.3990270000000  0.5428910000000 1.0
C      1  0.5066200000000  0.5535530000000  0.5518970000000 1.0
C      1  0.5102330000000  0.5648780000000  0.4945700000000 1.0
C      1  0.5045880000000  0.5244710000000  0.6021910000000 1.0
C      1  0.5671960000000  0.4969270000000  0.4818390000000 1.0
C      1  0.5415220000000  0.5483900000000  0.4369880000000 1.0
C      1  0.4950020000000  0.5123400000000  0.5359140000000 1.0
C      1  0.3893370000000  0.5300770000000  0.5150360000000 1.0
C      1  0.5689340000000  0.4531420000000  0.5736720000000 1.0
END
