TITL C-2441156-4686-477 0.0983314360170612 125000 -20761.8062173686 0 0 153 (C1) n - 1
REM
REM in /home/bkarasulu/work/CARBON/AIRSS/Generating-Clusters/ReaxFF-fromJPCA2015/Units_Real/with-SteepDescent/Higher-Symm
REM
REM
REM
REM
REM
REM ./C.cell (1df0a924f5614ab8850e4351716899ee)
REM
REM compiler GCC version 9.2.1 20190827 (Red Hat 9.2.1-1)
REM options -cpp -mtune=generic -march=x86-64 -g -O0 -fpre-include=/usr/include/finclude/math-vector-fortran.h
REM seed -544231063 679426515 -1870793131 586855879 1330521279 -966216920 -1739462875 369211577 -1848104043 -39070712 -11417123 -1088512862 26079666 575030598 -1992877706 436334624 1996209746 1108916189 1050191268 -334291166 1074242720 1169060995 222347867 -67362374 1209459417 266336207 1704316562 278729308 -595503713 -1859528959 -1074759912 -397111192 1123379466
REM
CELL 1.54180   50.00000   50.00000   50.00000   90.00000   90.00000   90.00000
LATT -1
SFAC C  
C      1  0.5279230000000  0.4590470000000  0.4077890000000 1.0
C      1  0.4420710000000  0.5299400000000  0.5368120000000 1.0
C      1  0.4296220000000  0.5322210000000  0.4768890000000 1.0
C      1  0.4939620000000  0.4688740000000  0.5328530000000 1.0
C      1  0.4241230000000  0.5611350000000  0.4842990000000 1.0
C      1  0.4726070000000  0.4863480000000  0.5430810000000 1.0
C      1  0.5562170000000  0.5323360000000  0.5474500000000 1.0
C      1  0.4292170000000  0.4477080000000  0.4919030000000 1.0
C      1  0.5153250000000  0.4881740000000  0.4650650000000 1.0
C      1  0.4644450000000  0.4259490000000  0.5733420000000 1.0
C      1  0.5353910000000  0.4080890000000  0.5053410000000 1.0
C      1  0.4142120000000  0.4681470000000  0.4784410000000 1.0
C      1  0.4937280000000  0.4558320000000  0.4767740000000 1.0
C      1  0.5569730000000  0.5755190000000  0.4854040000000 1.0
C      1  0.4922060000000  0.5145550000000  0.3964330000000 1.0
C      1  0.4542730000000  0.4552860000000  0.4804580000000 1.0
C      1  0.4661130000000  0.4148630000000  0.5462940000000 1.0
C      1  0.5795900000000  0.5411440000000  0.5326560000000 1.0
C      1  0.4508410000000  0.4713880000000  0.5635280000000 1.0
C      1  0.5499560000000  0.5222330000000  0.5901320000000 1.0
C      1  0.5010950000000  0.4469390000000  0.4102200000000 1.0
C      1  0.4514520000000  0.5755040000000  0.5275700000000 1.0
C      1  0.5056580000000  0.5342220000000  0.4088260000000 1.0
C      1  0.4879690000000  0.5884490000000  0.5004620000000 1.0
C      1  0.4179280000000  0.5318060000000  0.4472310000000 1.0
C      1  0.5027040000000  0.5851440000000  0.5244180000000 1.0
C      1  0.4870620000000  0.4090220000000  0.4689120000000 1.0
C      1  0.5976420000000  0.4773070000000  0.5344620000000 1.0
C      1  0.5609310000000  0.4696090000000  0.5770840000000 1.0
C      1  0.5594370000000  0.4723730000000  0.4348000000000 1.0
C      1  0.5880610000000  0.5267670000000  0.5089180000000 1.0
C      1  0.4469710000000  0.5492900000000  0.5161500000000 1.0
C      1  0.5284910000000  0.5666430000000  0.4264260000000 1.0
C      1  0.5685810000000  0.4205160000000  0.4830430000000 1.0
C      1  0.4882210000000  0.5436260000000  0.4291840000000 1.0
C      1  0.5114900000000  0.4955190000000  0.6027100000000 1.0
C      1  0.4755220000000  0.4202970000000  0.4453630000000 1.0
C      1  0.5546200000000  0.5002700000000  0.4192290000000 1.0
C      1  0.4916580000000  0.4925600000000  0.4489840000000 1.0
C      1  0.4697410000000  0.5399450000000  0.4975090000000 1.0
C      1  0.5273150000000  0.5984610000000  0.4675040000000 1.0
C      1  0.5154730000000  0.4665140000000  0.5994190000000 1.0
C      1  0.4842100000000  0.5854250000000  0.4484130000000 1.0
C      1  0.4517250000000  0.4143530000000  0.5001300000000 1.0
C      1  0.4914610000000  0.5063600000000  0.5034170000000 1.0
C      1  0.5208610000000  0.5418860000000  0.4944180000000 1.0
C      1  0.5421670000000  0.4430650000000  0.5347780000000 1.0
C      1  0.5140310000000  0.4383500000000  0.5645390000000 1.0
C      1  0.5222940000000  0.5223660000000  0.5994720000000 1.0
C      1  0.5857520000000  0.5411060000000  0.4835710000000 1.0
C      1  0.5408190000000  0.5222220000000  0.4936520000000 1.0
C      1  0.5134550000000  0.4158630000000  0.4663890000000 1.0
C      1  0.4414940000000  0.4626570000000  0.4339010000000 1.0
C      1  0.4295370000000  0.4817580000000  0.4559270000000 1.0
C      1  0.5012580000000  0.5841580000000  0.4731810000000 1.0
C      1  0.5703680000000  0.5218090000000  0.4324700000000 1.0
C      1  0.4455460000000  0.5231620000000  0.4076130000000 1.0
C      1  0.5267850000000  0.4898870000000  0.5540630000000 1.0
C      1  0.5231470000000  0.5313810000000  0.5351800000000 1.0
C      1  0.4605110000000  0.4462900000000  0.4484700000000 1.0
C      1  0.4680610000000  0.5158160000000  0.5973980000000 1.0
C      1  0.4584040000000  0.5792600000000  0.4553190000000 1.0
C      1  0.4540640000000  0.4854400000000  0.4731280000000 1.0
C      1  0.4837040000000  0.5359360000000  0.5979890000000 1.0
C      1  0.5774370000000  0.4651250000000  0.4566890000000 1.0
C      1  0.4978710000000  0.4239660000000  0.4275610000000 1.0
C      1  0.4648070000000  0.5346500000000  0.5556020000000 1.0
C      1  0.4659190000000  0.4955500000000  0.4969640000000 1.0
C      1  0.4596880000000  0.5292770000000  0.4745540000000 1.0
C      1  0.4614710000000  0.4530780000000  0.5839090000000 1.0
C      1  0.5487070000000  0.5606190000000  0.4620080000000 1.0
C      1  0.4846390000000  0.4649170000000  0.4518600000000 1.0
C      1  0.4559050000000  0.4749860000000  0.4139400000000 1.0
C      1  0.4991170000000  0.5697450000000  0.4292390000000 1.0
C      1  0.5120030000000  0.4717380000000  0.4885890000000 1.0
C      1  0.5728850000000  0.5679900000000  0.5270680000000 1.0
C      1  0.4684960000000  0.5243910000000  0.3964250000000 1.0
C      1  0.4082410000000  0.4672860000000  0.5528310000000 1.0
C      1  0.5753430000000  0.4463630000000  0.5128550000000 1.0
C      1  0.4971380000000  0.5341090000000  0.5084180000000 1.0
C      1  0.5118520000000  0.5643160000000  0.5711570000000 1.0
C      1  0.5078370000000  0.4864490000000  0.5136770000000 1.0
C      1  0.5304690000000  0.4876020000000  0.4075540000000 1.0
C      1  0.5649080000000  0.4172050000000  0.5106360000000 1.0
C      1  0.4813080000000  0.4140130000000  0.4979780000000 1.0
C      1  0.3942430000000  0.4794440000000  0.5166250000000 1.0
C      1  0.5676960000000  0.5069640000000  0.5508110000000 1.0
C      1  0.4153270000000  0.5357980000000  0.5490840000000 1.0
C      1  0.4764180000000  0.4442730000000  0.4953440000000 1.0
C      1  0.5392710000000  0.5669470000000  0.5648110000000 1.0
C      1  0.4221010000000  0.5182410000000  0.5709120000000 1.0
C      1  0.3991140000000  0.4899030000000  0.4915830000000 1.0
C      1  0.5812660000000  0.4629640000000  0.5553410000000 1.0
C      1  0.5695270000000  0.4357770000000  0.4589810000000 1.0
C      1  0.5211700000000  0.4245870000000  0.5399020000000 1.0
C      1  0.5340470000000  0.5111420000000  0.5182730000000 1.0
C      1  0.4550700000000  0.4884700000000  0.5211740000000 1.0
C      1  0.5022090000000  0.4896480000000  0.4006150000000 1.0
C      1  0.4481610000000  0.5265500000000  0.5813560000000 1.0
C      1  0.4520790000000  0.5632230000000  0.4363650000000 1.0
C      1  0.4605630000000  0.5875240000000  0.5034680000000 1.0
C      1  0.5289820000000  0.4280940000000  0.4849740000000 1.0
C      1  0.4679550000000  0.5654250000000  0.5489150000000 1.0
C      1  0.5742470000000  0.4882560000000  0.4736560000000 1.0
C      1  0.5634370000000  0.4991200000000  0.5783680000000 1.0
C      1  0.5093350000000  0.4105680000000  0.5180840000000 1.0
C      1  0.5396720000000  0.5970080000000  0.4935920000000 1.0
C      1  0.4835510000000  0.4684240000000  0.4051010000000 1.0
C      1  0.4357500000000  0.5449030000000  0.4262360000000 1.0
C      1  0.5328810000000  0.5368780000000  0.4240200000000 1.0
C      1  0.4172660000000  0.5591770000000  0.5120780000000 1.0
C      1  0.5174490000000  0.5539940000000  0.4705390000000 1.0
C      1  0.4131140000000  0.5146880000000  0.5028130000000 1.0
C      1  0.5498700000000  0.4283650000000  0.4380220000000 1.0
C      1  0.4851290000000  0.4645580000000  0.5947490000000 1.0
C      1  0.5688470000000  0.4393250000000  0.5453820000000 1.0
C      1  0.4234710000000  0.4929870000000  0.5556220000000 1.0
C      1  0.4434960000000  0.4164720000000  0.5265410000000 1.0
C      1  0.5950730000000  0.4846350000000  0.4939710000000 1.0
C      1  0.5487110000000  0.4920440000000  0.5337450000000 1.0
C      1  0.5228970000000  0.4182270000000  0.4410770000000 1.0
C      1  0.5121480000000  0.4658660000000  0.5541980000000 1.0
C      1  0.5059400000000  0.5437200000000  0.5904100000000 1.0
C      1  0.5524120000000  0.5092400000000  0.4702290000000 1.0
C      1  0.3981380000000  0.4545170000000  0.5284120000000 1.0
C      1  0.5408890000000  0.5845470000000  0.4455850000000 1.0
C      1  0.4037730000000  0.5354930000000  0.5224500000000 1.0
C      1  0.5364930000000  0.4547430000000  0.5839790000000 1.0
C      1  0.4804410000000  0.5225910000000  0.4507420000000 1.0
C      1  0.4938220000000  0.5756390000000  0.5509290000000 1.0
C      1  0.5366790000000  0.4709690000000  0.4588050000000 1.0
C      1  0.5993220000000  0.5016120000000  0.5167210000000 1.0
C      1  0.4846370000000  0.4359430000000  0.5543780000000 1.0
C      1  0.5302710000000  0.5881660000000  0.5203350000000 1.0
C      1  0.4333450000000  0.4534360000000  0.5492490000000 1.0
C      1  0.5497770000000  0.4634550000000  0.5144000000000 1.0
C      1  0.4440820000000  0.4983420000000  0.4143030000000 1.0
C      1  0.4449760000000  0.5805940000000  0.4812300000000 1.0
C      1  0.5505060000000  0.4499420000000  0.4203520000000 1.0
C      1  0.5104520000000  0.5141030000000  0.5542770000000 1.0
C      1  0.5981160000000  0.4614010000000  0.5103120000000 1.0
C      1  0.5090210000000  0.5284650000000  0.4600090000000 1.0
C      1  0.4283250000000  0.4435860000000  0.5214370000000 1.0
C      1  0.5741250000000  0.5402720000000  0.4558660000000 1.0
C      1  0.4845830000000  0.4924740000000  0.5956530000000 1.0
C      1  0.4823300000000  0.5129410000000  0.5505880000000 1.0
C      1  0.5330230000000  0.5194920000000  0.4483340000000 1.0
C      1  0.4102090000000  0.5056690000000  0.4431120000000 1.0
C      1  0.5370750000000  0.4560290000000  0.4861180000000 1.0
C      1  0.5781780000000  0.5650000000000  0.4988010000000 1.0
C      1  0.5485390000000  0.5776740000000  0.5397590000000 1.0
C      1  0.5539350000000  0.5448940000000  0.5730580000000 1.0
C      1  0.4325330000000  0.5030860000000  0.5275380000000 1.0
END
