TITL C-2441168-9922-838 0.0118596178551549 125000 -8794.33066126951 0 0 63 (C1) n - 1
REM
REM in /home/bkarasulu/work/CARBON/AIRSS/Generating-Clusters/ReaxFF-fromJPCA2015/Units_Real/with-SteepDescent/Higher-Symm
REM
REM
REM
REM
REM
REM ./C.cell (1df0a924f5614ab8850e4351716899ee)
REM
REM compiler GCC version 9.2.1 20190827 (Red Hat 9.2.1-1)
REM options -cpp -mtune=generic -march=x86-64 -g -O0 -fpre-include=/usr/include/finclude/math-vector-fortran.h
REM seed 1662567900 -1031655120 -1386195468 1342773505 1379173961 -1598538313 1800201990 -1547809967 448525915 1950208387 698949488 1343462464 1467419745 -2016241833 2034879946 -1649475140 1453109606 1494412311 -2137037399 -1021275637 -137701669 1148623526 848361104 1453244881 -1341951925 -1608286432 -1992541730 -1889937416 1075823355 -74327844 -2030400970 1876923188 -2121713050
REM
CELL 1.54180   50.00000   50.00000   50.00000   90.00000   90.00000   90.00000
LATT -1
SFAC C  
C      1  0.4605090000000  0.4390010000000  0.5025970000000 1.0
C      1  0.4665260000000  0.5652780000000  0.5029170000000 1.0
C      1  0.5718620000000  0.4957530000000  0.5024780000000 1.0
C      1  0.5062960000000  0.4207620000000  0.4936970000000 1.0
C      1  0.4282100000000  0.5342330000000  0.4932030000000 1.0
C      1  0.5653900000000  0.5444840000000  0.4929370000000 1.0
C      1  0.4245910000000  0.5377780000000  0.5217540000000 1.0
C      1  0.5698360000000  0.5454060000000  0.5214640000000 1.0
C      1  0.5046080000000  0.4180760000000  0.5214080000000 1.0
C      1  0.5546990000000  0.4795330000000  0.4587920000000 1.0
C      1  0.4558830000000  0.4586270000000  0.4575510000000 1.0
C      1  0.4874200000000  0.5609560000000  0.4579980000000 1.0
C      1  0.5038130000000  0.4611310000000  0.4444890000000 1.0
C      1  0.4651540000000  0.5201100000000  0.4463230000000 1.0
C      1  0.5348030000000  0.5194640000000  0.4460070000000 1.0
C      1  0.5143170000000  0.4747390000000  0.5155590000000 1.0
C      1  0.4766290000000  0.5006760000000  0.5147150000000 1.0
C      1  0.5090260000000  0.5225410000000  0.5140430000000 1.0
C      1  0.5693190000000  0.5423600000000  0.5508530000000 1.0
C      1  0.5025410000000  0.4177370000000  0.5504760000000 1.0
C      1  0.4285730000000  0.5386680000000  0.5511620000000 1.0
C      1  0.4805520000000  0.4299670000000  0.4822520000000 1.0
C      1  0.4488260000000  0.5526730000000  0.4827080000000 1.0
C      1  0.5706410000000  0.5173120000000  0.4824640000000 1.0
C      1  0.5416050000000  0.4914410000000  0.5505500000000 1.0
C      1  0.4709330000000  0.4676280000000  0.5518910000000 1.0
C      1  0.4863080000000  0.5414830000000  0.5513680000000 1.0
C      1  0.5589260000000  0.4849000000000  0.5282830000000 1.0
C      1  0.4578700000000  0.4566690000000  0.5285330000000 1.0
C      1  0.4832710000000  0.5591510000000  0.5286930000000 1.0
C      1  0.5267900000000  0.4699500000000  0.5630410000000 1.0
C      1  0.4605510000000  0.4923730000000  0.5622220000000 1.0
C      1  0.5128460000000  0.5376830000000  0.5620310000000 1.0
C      1  0.4396860000000  0.5064250000000  0.4539530000000 1.0
C      1  0.5362080000000  0.5481880000000  0.4538260000000 1.0
C      1  0.5245210000000  0.4445990000000  0.4550480000000 1.0
C      1  0.5224740000000  0.4437130000000  0.4833120000000 1.0
C      1  0.4395030000000  0.5087510000000  0.4841130000000 1.0
C      1  0.5375620000000  0.5477380000000  0.4840920000000 1.0
C      1  0.5243890000000  0.5166580000000  0.5419800000000 1.0
C      1  0.5014930000000  0.4695430000000  0.5440460000000 1.0
C      1  0.4735760000000  0.5138730000000  0.5429050000000 1.0
C      1  0.5426400000000  0.4670100000000  0.5111850000000 1.0
C      1  0.4542480000000  0.4796880000000  0.5105080000000 1.0
C      1  0.5057140000000  0.5525010000000  0.5105810000000 1.0
C      1  0.4810850000000  0.5082230000000  0.4666380000000 1.0
C      1  0.5207700000000  0.5067790000000  0.4672900000000 1.0
C      1  0.5003510000000  0.4872650000000  0.4666300000000 1.0
C      1  0.4433120000000  0.5117380000000  0.5496660000000 1.0
C      1  0.5384230000000  0.5428660000000  0.5496090000000 1.0
C      1  0.5180620000000  0.4448440000000  0.5518580000000 1.0
C      1  0.5596600000000  0.5081300000000  0.4567880000000 1.0
C      1  0.4812760000000  0.4442700000000  0.4570600000000 1.0
C      1  0.4613060000000  0.5472900000000  0.4569330000000 1.0
C      1  0.5056210000000  0.4670420000000  0.4900370000000 1.0
C      1  0.4679820000000  0.5126230000000  0.4900510000000 1.0
C      1  0.5249210000000  0.5218710000000  0.4901460000000 1.0
C      1  0.4910060000000  0.5665030000000  0.4881870000000 1.0
C      1  0.5601080000000  0.4740600000000  0.4874880000000 1.0
C      1  0.4486550000000  0.4603850000000  0.4879260000000 1.0
C      1  0.5353350000000  0.4650750000000  0.4433820000000 1.0
C      1  0.4508060000000  0.4828920000000  0.4448340000000 1.0
C      1  0.5101860000000  0.5509150000000  0.4454640000000 1.0
END
