TITL C-2441165-58-364 0.0530099216198315 125000 -18673.8575618652 0 0 133 (C1) n - 1
REM
REM in /home/bkarasulu/work/CARBON/AIRSS/Generating-Clusters/ReaxFF-fromJPCA2015/Units_Real/with-SteepDescent/Higher-Symm
REM
REM
REM
REM
REM
REM ./C.cell (1df0a924f5614ab8850e4351716899ee)
REM
REM compiler GCC version 9.2.1 20190827 (Red Hat 9.2.1-1)
REM options -cpp -mtune=generic -march=x86-64 -g -O0 -fpre-include=/usr/include/finclude/math-vector-fortran.h
REM seed -1662188420 -762975515 -269695532 -226318084 1660759842 -228642709 -1070779178 -381760822 1889828456 2117079656 -1427988048 790652025 1850571677 -1197847383 331424945 1997052418 -410395087 1753925654 189635945 509517374 -144597797 -1691524771 718698870 1316526437 -360820418 303026869 826539016 -247987887 -933932459 1319118512 -440584842 1227541884 -522263080
REM
CELL 1.54180   50.00000   50.00000   50.00000   90.00000   90.00000   90.00000
LATT -1
SFAC C  
C      1  0.5152840000000  0.5697050000000  0.5542270000000 1.0
C      1  0.5210700000000  0.4655180000000  0.5829710000000 1.0
C      1  0.5185410000000  0.4107070000000  0.4939190000000 1.0
C      1  0.5178310000000  0.4793220000000  0.4162030000000 1.0
C      1  0.5241620000000  0.5747330000000  0.4511960000000 1.0
C      1  0.4721650000000  0.5034260000000  0.5244620000000 1.0
C      1  0.4872280000000  0.4499200000000  0.5091280000000 1.0
C      1  0.4717520000000  0.4767940000000  0.4805340000000 1.0
C      1  0.4784580000000  0.5228770000000  0.4798400000000 1.0
C      1  0.4844780000000  0.5467970000000  0.5192790000000 1.0
C      1  0.4287160000000  0.5097990000000  0.5677490000000 1.0
C      1  0.4316000000000  0.4408860000000  0.5296350000000 1.0
C      1  0.4300410000000  0.4530280000000  0.4495650000000 1.0
C      1  0.4279900000000  0.5308660000000  0.4396790000000 1.0
C      1  0.4250630000000  0.5610510000000  0.5116120000000 1.0
C      1  0.5646670000000  0.4890470000000  0.4720750000000 1.0
C      1  0.5661090000000  0.5496250000000  0.4615030000000 1.0
C      1  0.5626990000000  0.5379090000000  0.5272850000000 1.0
C      1  0.5641390000000  0.4885960000000  0.5262930000000 1.0
C      1  0.5629030000000  0.4565710000000  0.4972610000000 1.0
C      1  0.5394800000000  0.4182520000000  0.5397150000000 1.0
C      1  0.5391440000000  0.4367660000000  0.4333100000000 1.0
C      1  0.5411260000000  0.5407980000000  0.4210610000000 1.0
C      1  0.5388800000000  0.5914340000000  0.5156370000000 1.0
C      1  0.5387700000000  0.5134230000000  0.5903590000000 1.0
C      1  0.4571700000000  0.3985520000000  0.5016050000000 1.0
C      1  0.4571390000000  0.4687450000000  0.3995770000000 1.0
C      1  0.4685350000000  0.5812690000000  0.4550340000000 1.0
C      1  0.4596310000000  0.5827320000000  0.5554970000000 1.0
C      1  0.4597860000000  0.4680230000000  0.5952130000000 1.0
C      1  0.4936770000000  0.4220730000000  0.5054030000000 1.0
C      1  0.4924580000000  0.4744150000000  0.4265240000000 1.0
C      1  0.5050760000000  0.5525020000000  0.4534680000000 1.0
C      1  0.4913740000000  0.5628240000000  0.5406020000000 1.0
C      1  0.4981760000000  0.4767060000000  0.5691660000000 1.0
C      1  0.4790130000000  0.4528590000000  0.4121020000000 1.0
C      1  0.4852480000000  0.5651140000000  0.4361570000000 1.0
C      1  0.4829140000000  0.5902870000000  0.5380830000000 1.0
C      1  0.4822730000000  0.4873320000000  0.5929910000000 1.0
C      1  0.4794670000000  0.4016780000000  0.5211890000000 1.0
C      1  0.5135380000000  0.4242840000000  0.4416690000000 1.0
C      1  0.5150850000000  0.5321470000000  0.4116760000000 1.0
C      1  0.5150900000000  0.5987710000000  0.4996410000000 1.0
C      1  0.5125180000000  0.5279430000000  0.5891860000000 1.0
C      1  0.5144880000000  0.4219310000000  0.5552220000000 1.0
C      1  0.4634560000000  0.5644090000000  0.4978860000000 1.0
C      1  0.4570890000000  0.5272840000000  0.5425210000000 1.0
C      1  0.4746280000000  0.4659750000000  0.5540010000000 1.0
C      1  0.4584980000000  0.4516500000000  0.4807620000000 1.0
C      1  0.4754590000000  0.4960650000000  0.4381500000000 1.0
C      1  0.4880940000000  0.5426050000000  0.4165230000000 1.0
C      1  0.4878050000000  0.5969800000000  0.5076080000000 1.0
C      1  0.4856820000000  0.5163240000000  0.5891320000000 1.0
C      1  0.4873790000000  0.4154040000000  0.5469920000000 1.0
C      1  0.4864280000000  0.4347170000000  0.4355150000000 1.0
C      1  0.4697880000000  0.4363180000000  0.5565370000000 1.0
C      1  0.4685980000000  0.4326210000000  0.4591830000000 1.0
C      1  0.4699490000000  0.5200810000000  0.4184400000000 1.0
C      1  0.4797570000000  0.5829060000000  0.4830900000000 1.0
C      1  0.4669490000000  0.5300650000000  0.5705340000000 1.0
C      1  0.5894010000000  0.5328180000000  0.4656820000000 1.0
C      1  0.5887410000000  0.5366950000000  0.5183720000000 1.0
C      1  0.5932070000000  0.4939300000000  0.5306670000000 1.0
C      1  0.5905700000000  0.4535960000000  0.5064300000000 1.0
C      1  0.5938750000000  0.4845980000000  0.4710190000000 1.0
C      1  0.5353560000000  0.5696650000000  0.5334220000000 1.0
C      1  0.5384800000000  0.4879790000000  0.5759320000000 1.0
C      1  0.5373650000000  0.4234530000000  0.5115680000000 1.0
C      1  0.5364230000000  0.4661200000000  0.4327120000000 1.0
C      1  0.5465950000000  0.5571540000000  0.4423920000000 1.0
C      1  0.5369620000000  0.5444850000000  0.5174400000000 1.0
C      1  0.5233890000000  0.4907750000000  0.5509850000000 1.0
C      1  0.5360910000000  0.4528040000000  0.5052760000000 1.0
C      1  0.5277070000000  0.4763610000000  0.4581320000000 1.0
C      1  0.5235860000000  0.5313660000000  0.4637200000000 1.0
C      1  0.4405790000000  0.4343310000000  0.5566850000000 1.0
C      1  0.4407790000000  0.4256830000000  0.4560080000000 1.0
C      1  0.4412260000000  0.5205940000000  0.4153980000000 1.0
C      1  0.4397920000000  0.5799030000000  0.4950250000000 1.0
C      1  0.4396760000000  0.5357030000000  0.5787260000000 1.0
C      1  0.5961000000000  0.4639160000000  0.5333900000000 1.0
C      1  0.5971620000000  0.4560530000000  0.4774560000000 1.0
C      1  0.5948990000000  0.5075890000000  0.4514290000000 1.0
C      1  0.5930700000000  0.5462290000000  0.4918970000000 1.0
C      1  0.5956200000000  0.5205060000000  0.5424370000000 1.0
C      1  0.4386410000000  0.4143170000000  0.4845540000000 1.0
C      1  0.4398090000000  0.4897390000000  0.4112450000000 1.0
C      1  0.4415060000000  0.5769120000000  0.4645270000000 1.0
C      1  0.4395200000000  0.5617510000000  0.5618720000000 1.0
C      1  0.4385820000000  0.4569520000000  0.5772190000000 1.0
C      1  0.5665880000000  0.5033890000000  0.4449460000000 1.0
C      1  0.5706800000000  0.5638350000000  0.4848150000000 1.0
C      1  0.5688190000000  0.5282130000000  0.5532850000000 1.0
C      1  0.5675910000000  0.4623580000000  0.5414400000000 1.0
C      1  0.5693190000000  0.4468070000000  0.4714530000000 1.0
C      1  0.4421260000000  0.4814930000000  0.4395960000000 1.0
C      1  0.4286550000000  0.5513730000000  0.4608570000000 1.0
C      1  0.4391660000000  0.5487880000000  0.5353000000000 1.0
C      1  0.4407150000000  0.4803740000000  0.5593410000000 1.0
C      1  0.4417140000000  0.4383880000000  0.5013970000000 1.0
C      1  0.4221160000000  0.5107220000000  0.5205340000000 1.0
C      1  0.4232600000000  0.4836010000000  0.5159540000000 1.0
C      1  0.4237390000000  0.4767590000000  0.4886800000000 1.0
C      1  0.4239980000000  0.5012500000000  0.4763190000000 1.0
C      1  0.4218210000000  0.5207550000000  0.4948390000000 1.0
C      1  0.5252920000000  0.5492580000000  0.5734260000000 1.0
C      1  0.5282250000000  0.4428030000000  0.5700750000000 1.0
C      1  0.5270930000000  0.4138690000000  0.4660670000000 1.0
C      1  0.5257490000000  0.5045240000000  0.4105500000000 1.0
C      1  0.5300870000000  0.5909560000000  0.4750170000000 1.0
C      1  0.5162920000000  0.5022480000000  0.4674540000000 1.0
C      1  0.5232550000000  0.5441230000000  0.4894690000000 1.0
C      1  0.5217070000000  0.5191430000000  0.5247210000000 1.0
C      1  0.5192110000000  0.4765940000000  0.5253060000000 1.0
C      1  0.5228000000000  0.4581540000000  0.4792590000000 1.0
C      1  0.5511880000000  0.5140250000000  0.4221990000000 1.0
C      1  0.5533730000000  0.5853390000000  0.4914050000000 1.0
C      1  0.5516840000000  0.5356630000000  0.5757200000000 1.0
C      1  0.5515260000000  0.4412710000000  0.5537440000000 1.0
C      1  0.5527610000000  0.4268400000000  0.4575170000000 1.0
C      1  0.4244240000000  0.5037880000000  0.4488530000000 1.0
C      1  0.4189760000000  0.5458370000000  0.4879220000000 1.0
C      1  0.4095150000000  0.5186870000000  0.5472840000000 1.0
C      1  0.4238740000000  0.4670890000000  0.5384350000000 1.0
C      1  0.4099080000000  0.4560760000000  0.4709850000000 1.0
C      1  0.4892000000000  0.5064460000000  0.4603380000000 1.0
C      1  0.4956060000000  0.5413290000000  0.4942250000000 1.0
C      1  0.4945670000000  0.5220260000000  0.5293500000000 1.0
C      1  0.4876090000000  0.4719810000000  0.5282160000000 1.0
C      1  0.4966500000000  0.4632120000000  0.4866820000000 1.0
C      1  0.5545980000000  0.4957880000000  0.4988940000000 1.0
C      1  0.5256800000000  0.4982210000000  0.5033480000000 1.0
C      1  0.4669800000000  0.5017820000000  0.4955100000000 1.0
END
