TITL C-2441167-4473-1018 0.098065522220332 125000 -16339.7538043389 0 0 128 (C1) n - 1
REM
REM in /home/bkarasulu/work/CARBON/AIRSS/Generating-Clusters/ReaxFF-fromJPCA2015/Units_Real/with-SteepDescent/Higher-Symm
REM
REM
REM
REM
REM
REM ./C.cell (1df0a924f5614ab8850e4351716899ee)
REM
REM compiler GCC version 9.2.1 20190827 (Red Hat 9.2.1-1)
REM options -cpp -mtune=generic -march=x86-64 -g -O0 -fpre-include=/usr/include/finclude/math-vector-fortran.h
REM seed 582452525 593311394 -1164457459 -268016030 809571042 -504597546 -709739603 564718772 128230222 -265925207 -27359391 -1125902926 1579995096 -156667297 -1287273628 -282351285 1101578782 -381811860 779598096 2041858776 1933462791 1068944948 -1239119318 -498624661 718345517 -83263485 451719258 -1246573788 -45557508 -1024648649 1540840346 -128244742 -46396821
REM
CELL 1.54180   50.00000   50.00000   50.00000   90.00000   90.00000   90.00000
LATT -1
SFAC C  
C      1  0.5908880000000  0.4903630000000  0.5356780000000 1.0
C      1  0.5798210000000  0.4944870000000  0.4665420000000 1.0
C      1  0.5684680000000  0.5651670000000  0.4739620000000 1.0
C      1  0.5704440000000  0.5651760000000  0.5247650000000 1.0
C      1  0.5596860000000  0.4765990000000  0.4543870000000 1.0
C      1  0.5666220000000  0.4740630000000  0.5340760000000 1.0
C      1  0.4731620000000  0.5126330000000  0.4639810000000 1.0
C      1  0.4715740000000  0.5098510000000  0.5284270000000 1.0
C      1  0.5303010000000  0.4405850000000  0.4666200000000 1.0
C      1  0.5259540000000  0.4383950000000  0.5349940000000 1.0
C      1  0.4334570000000  0.4862330000000  0.5584360000000 1.0
C      1  0.4308410000000  0.4853700000000  0.4380960000000 1.0
C      1  0.5300820000000  0.4140060000000  0.5315720000000 1.0
C      1  0.5341620000000  0.4133900000000  0.4761670000000 1.0
C      1  0.4971620000000  0.5091840000000  0.4369240000000 1.0
C      1  0.4978580000000  0.5082340000000  0.5663300000000 1.0
C      1  0.5473140000000  0.4692180000000  0.4291060000000 1.0
C      1  0.5436710000000  0.4705820000000  0.5672760000000 1.0
C      1  0.4574660000000  0.4892580000000  0.4687030000000 1.0
C      1  0.4566560000000  0.4895040000000  0.5363820000000 1.0
C      1  0.5309740000000  0.4470300000000  0.4373680000000 1.0
C      1  0.5316520000000  0.4434520000000  0.5606620000000 1.0
C      1  0.5355810000000  0.5176550000000  0.5813190000000 1.0
C      1  0.5372240000000  0.5180440000000  0.4229850000000 1.0
C      1  0.4791420000000  0.4896840000000  0.4240580000000 1.0
C      1  0.4800370000000  0.4910390000000  0.5760920000000 1.0
C      1  0.5889230000000  0.5426200000000  0.5267320000000 1.0
C      1  0.5879430000000  0.5440560000000  0.4698580000000 1.0
C      1  0.4315920000000  0.4547880000000  0.5519230000000 1.0
C      1  0.4313640000000  0.4558750000000  0.4465160000000 1.0
C      1  0.5006960000000  0.4471720000000  0.4704730000000 1.0
C      1  0.5004930000000  0.4498790000000  0.5268940000000 1.0
C      1  0.4196090000000  0.5243890000000  0.5255510000000 1.0
C      1  0.4197330000000  0.5255540000000  0.4730400000000 1.0
C      1  0.4988130000000  0.5769670000000  0.4583510000000 1.0
C      1  0.4994760000000  0.5768930000000  0.5409890000000 1.0
C      1  0.5439930000000  0.5516110000000  0.4646790000000 1.0
C      1  0.5441000000000  0.5525230000000  0.5311910000000 1.0
C      1  0.5513530000000  0.5226470000000  0.4501100000000 1.0
C      1  0.5518420000000  0.5154960000000  0.5366070000000 1.0
C      1  0.4514710000000  0.5301000000000  0.5669690000000 1.0
C      1  0.4510030000000  0.5303220000000  0.4318320000000 1.0
C      1  0.4018160000000  0.4772640000000  0.4724570000000 1.0
C      1  0.3985730000000  0.4758940000000  0.5290780000000 1.0
C      1  0.4851600000000  0.4388760000000  0.4447960000000 1.0
C      1  0.4842830000000  0.4403100000000  0.5531260000000 1.0
C      1  0.4979480000000  0.5326170000000  0.5788870000000 1.0
C      1  0.4986610000000  0.5333920000000  0.4193690000000 1.0
C      1  0.5298760000000  0.4900320000000  0.4167080000000 1.0
C      1  0.5289680000000  0.4887150000000  0.5851000000000 1.0
C      1  0.5811830000000  0.5207710000000  0.4540990000000 1.0
C      1  0.5808360000000  0.5177780000000  0.5405310000000 1.0
C      1  0.4568600000000  0.5564400000000  0.5268920000000 1.0
C      1  0.4576790000000  0.5574870000000  0.4716450000000 1.0
C      1  0.4571280000000  0.4432690000000  0.5455800000000 1.0
C      1  0.4574870000000  0.4423540000000  0.4512400000000 1.0
C      1  0.4840910000000  0.5533380000000  0.4578300000000 1.0
C      1  0.4829280000000  0.5535310000000  0.5427500000000 1.0
C      1  0.5097380000000  0.5030420000000  0.5419050000000 1.0
C      1  0.5122610000000  0.5009220000000  0.4604540000000 1.0
C      1  0.5399300000000  0.4966870000000  0.4633000000000 1.0
C      1  0.5459350000000  0.4873580000000  0.5451220000000 1.0
C      1  0.4594260000000  0.4617270000000  0.4738040000000 1.0
C      1  0.4559880000000  0.4641840000000  0.5214920000000 1.0
C      1  0.4142850000000  0.4985390000000  0.4575400000000 1.0
C      1  0.4127710000000  0.4990410000000  0.5403000000000 1.0
C      1  0.5239580000000  0.5638780000000  0.5499690000000 1.0
C      1  0.5232570000000  0.5638460000000  0.4485620000000 1.0
C      1  0.4855390000000  0.5935890000000  0.5216620000000 1.0
C      1  0.4861720000000  0.5939310000000  0.4783530000000 1.0
C      1  0.4519800000000  0.5011960000000  0.4252060000000 1.0
C      1  0.4529660000000  0.5021540000000  0.5755450000000 1.0
C      1  0.4389990000000  0.5415030000000  0.4565410000000 1.0
C      1  0.4390190000000  0.5396790000000  0.5419600000000 1.0
C      1  0.5036070000000  0.5296740000000  0.4743970000000 1.0
C      1  0.5048370000000  0.5302910000000  0.5295970000000 1.0
C      1  0.5243400000000  0.5439630000000  0.4259890000000 1.0
C      1  0.5245860000000  0.5443490000000  0.5728180000000 1.0
C      1  0.5040730000000  0.4487600000000  0.5723380000000 1.0
C      1  0.5043660000000  0.4498890000000  0.4260580000000 1.0
C      1  0.4164580000000  0.4524960000000  0.4716220000000 1.0
C      1  0.4155720000000  0.4515550000000  0.5283640000000 1.0
C      1  0.4997480000000  0.4766880000000  0.4718230000000 1.0
C      1  0.5014530000000  0.4794310000000  0.5265470000000 1.0
C      1  0.4752210000000  0.5455280000000  0.4305380000000 1.0
C      1  0.4751950000000  0.5458360000000  0.5694150000000 1.0
C      1  0.5020240000000  0.4746420000000  0.5858180000000 1.0
C      1  0.5034090000000  0.4769060000000  0.4138530000000 1.0
C      1  0.5170210000000  0.4129800000000  0.4983230000000 1.0
C      1  0.4198870000000  0.5648510000000  0.4997100000000 1.0
C      1  0.4082340000000  0.5401490000000  0.4992830000000 1.0
C      1  0.5001910000000  0.4891570000000  0.4986510000000 1.0
C      1  0.5928150000000  0.5345680000000  0.4978470000000 1.0
C      1  0.5468650000000  0.5106600000000  0.5066880000000 1.0
C      1  0.5378450000000  0.4598940000000  0.4936260000000 1.0
C      1  0.5898050000000  0.4601240000000  0.4970450000000 1.0
C      1  0.5579740000000  0.4115460000000  0.4925790000000 1.0
C      1  0.5684730000000  0.4982450000000  0.4927630000000 1.0
C      1  0.5548240000000  0.4370280000000  0.5051220000000 1.0
C      1  0.6048510000000  0.5098860000000  0.5025140000000 1.0
C      1  0.4375650000000  0.5849530000000  0.4999550000000 1.0
C      1  0.4833070000000  0.5115420000000  0.5042830000000 1.0
C      1  0.5350350000000  0.5528130000000  0.5025840000000 1.0
C      1  0.5470350000000  0.6006630000000  0.5000290000000 1.0
C      1  0.5821910000000  0.4334060000000  0.4989020000000 1.0
C      1  0.5655180000000  0.4738960000000  0.5040980000000 1.0
C      1  0.4998830000000  0.5832800000000  0.5000240000000 1.0
C      1  0.6051340000000  0.4827940000000  0.5099990000000 1.0
C      1  0.5303980000000  0.4890640000000  0.4952230000000 1.0
C      1  0.4461040000000  0.4942420000000  0.4938600000000 1.0
C      1  0.5186120000000  0.6053120000000  0.5006490000000 1.0
C      1  0.4664180000000  0.4187490000000  0.4974510000000 1.0
C      1  0.5288750000000  0.5788650000000  0.4920210000000 1.0
C      1  0.5677630000000  0.5803210000000  0.4997470000000 1.0
C      1  0.4957470000000  0.3868590000000  0.5012280000000 1.0
C      1  0.4401020000000  0.4184790000000  0.4999840000000 1.0
C      1  0.4702940000000  0.3925660000000  0.4998120000000 1.0
C      1  0.4639290000000  0.5964670000000  0.4999240000000 1.0
C      1  0.4215260000000  0.4393370000000  0.4998260000000 1.0
C      1  0.5264870000000  0.3944330000000  0.5110770000000 1.0
C      1  0.4014760000000  0.4865520000000  0.5012670000000 1.0
C      1  0.4646560000000  0.5549170000000  0.4990310000000 1.0
C      1  0.4292430000000  0.4804050000000  0.5046760000000 1.0
C      1  0.4404580000000  0.5183740000000  0.4979000000000 1.0
C      1  0.5113490000000  0.5376620000000  0.5013420000000 1.0
C      1  0.4664220000000  0.5262010000000  0.4928410000000 1.0
C      1  0.4887030000000  0.4407850000000  0.4987790000000 1.0
C      1  0.4692010000000  0.4581870000000  0.4984200000000 1.0
END
