TITL C-2441160-1326-27 0.0252889740035455 125000 -18378.0534405338 0 0 130 (C1) n - 1
REM
REM in /home/bkarasulu/work/CARBON/AIRSS/Generating-Clusters/ReaxFF-fromJPCA2015/Units_Real/with-SteepDescent/Higher-Symm
REM
REM
REM
REM
REM
REM ./C.cell (1df0a924f5614ab8850e4351716899ee)
REM
REM compiler GCC version 9.2.1 20190827 (Red Hat 9.2.1-1)
REM options -cpp -mtune=generic -march=x86-64 -g -O0 -fpre-include=/usr/include/finclude/math-vector-fortran.h
REM seed -2044302298 -1980084833 1295867617 274868683 -979889913 -1519928542 824560241 1002585021 1690147096 1935738849 -1464540524 1963829385 -1297089239 286163601 116918664 877503659 -651594847 1217920497 -1828709804 1408777256 -872648467 1542205380 -566078456 -1618545644 2135038854 -1031955699 552248878 58424750 2099273051 -2109847236 1523048500 1202305585 -606462150
REM
CELL 1.54180   50.00000   50.00000   50.00000   90.00000   90.00000   90.00000
LATT -1
SFAC C  
C      1  0.4772060000000  0.4921090000000  0.5334480000000 1.0
C      1  0.4994390000000  0.5255850000000  0.4570890000000 1.0
C      1  0.5259450000000  0.5016160000000  0.5435830000000 1.0
C      1  0.5101510000000  0.4824190000000  0.4610050000000 1.0
C      1  0.4238240000000  0.5101720000000  0.5489840000000 1.0
C      1  0.5113510000000  0.5715890000000  0.4543220000000 1.0
C      1  0.5735130000000  0.4869150000000  0.5488710000000 1.0
C      1  0.4923930000000  0.4230180000000  0.4504710000000 1.0
C      1  0.4659450000000  0.4957640000000  0.4234220000000 1.0
C      1  0.4958090000000  0.5325200000000  0.5786480000000 1.0
C      1  0.5346150000000  0.4998950000000  0.4117550000000 1.0
C      1  0.4998400000000  0.4639230000000  0.5852990000000 1.0
C      1  0.4887870000000  0.4252980000000  0.5578340000000 1.0
C      1  0.4247630000000  0.5090180000000  0.4403600000000 1.0
C      1  0.5116660000000  0.5738860000000  0.5622560000000 1.0
C      1  0.5731970000000  0.4864050000000  0.4394380000000 1.0
C      1  0.4884910000000  0.5082080000000  0.4116970000000 1.0
C      1  0.5079250000000  0.5093930000000  0.5894350000000 1.0
C      1  0.5095540000000  0.4885300000000  0.4123300000000 1.0
C      1  0.4882780000000  0.4887600000000  0.5877520000000 1.0
C      1  0.5651180000000  0.4360730000000  0.5681430000000 1.0
C      1  0.4442900000000  0.4280680000000  0.4436010000000 1.0
C      1  0.4337040000000  0.5583560000000  0.5495960000000 1.0
C      1  0.5619830000000  0.5658660000000  0.4306760000000 1.0
C      1  0.5856020000000  0.5588700000000  0.4811840000000 1.0
C      1  0.5602960000000  0.4179390000000  0.5140410000000 1.0
C      1  0.4073220000000  0.4491770000000  0.4794840000000 1.0
C      1  0.4637950000000  0.5952750000000  0.5185470000000 1.0
C      1  0.4299250000000  0.4999470000000  0.5202750000000 1.0
C      1  0.5003990000000  0.5686200000000  0.4807920000000 1.0
C      1  0.5727650000000  0.5005060000000  0.5227580000000 1.0
C      1  0.5017270000000  0.4319750000000  0.4794710000000 1.0
C      1  0.5680970000000  0.4590900000000  0.4463540000000 1.0
C      1  0.4616520000000  0.4319660000000  0.5511180000000 1.0
C      1  0.4381560000000  0.5329530000000  0.4352970000000 1.0
C      1  0.5371000000000  0.5617480000000  0.5678440000000 1.0
C      1  0.5541420000000  0.4848720000000  0.5084610000000 1.0
C      1  0.4840430000000  0.4520960000000  0.4904570000000 1.0
C      1  0.4463500000000  0.5253730000000  0.5082750000000 1.0
C      1  0.5223030000000  0.5554560000000  0.4957510000000 1.0
C      1  0.5065860000000  0.4130410000000  0.5084160000000 1.0
C      1  0.4095050000000  0.4964000000000  0.4950040000000 1.0
C      1  0.4948020000000  0.5890640000000  0.5184360000000 1.0
C      1  0.5899740000000  0.5059430000000  0.4868250000000 1.0
C      1  0.4904170000000  0.5297550000000  0.5271940000000 1.0
C      1  0.5247100000000  0.5304070000000  0.4747060000000 1.0
C      1  0.5303260000000  0.4762170000000  0.5233050000000 1.0
C      1  0.4726150000000  0.4760150000000  0.4782840000000 1.0
C      1  0.5265180000000  0.4411110000000  0.4733680000000 1.0
C      1  0.4388290000000  0.4739680000000  0.5224650000000 1.0
C      1  0.4755220000000  0.5544050000000  0.4843250000000 1.0
C      1  0.5624760000000  0.5263820000000  0.5276580000000 1.0
C      1  0.4711670000000  0.5346300000000  0.4639040000000 1.0
C      1  0.5356530000000  0.5275150000000  0.5340070000000 1.0
C      1  0.5314440000000  0.4686190000000  0.4682140000000 1.0
C      1  0.4636220000000  0.4679430000000  0.5347340000000 1.0
C      1  0.4190420000000  0.5427740000000  0.4986080000000 1.0
C      1  0.5430630000000  0.5780650000000  0.5046930000000 1.0
C      1  0.5806460000000  0.4531910000000  0.4753680000000 1.0
C      1  0.4555600000000  0.4212130000000  0.5218800000000 1.0
C      1  0.4913060000000  0.4456550000000  0.4327030000000 1.0
C      1  0.4456760000000  0.5070310000000  0.5667420000000 1.0
C      1  0.5091850000000  0.5466280000000  0.4355290000000 1.0
C      1  0.5490670000000  0.4896640000000  0.5657210000000 1.0
C      1  0.5959290000000  0.4747250000000  0.4891250000000 1.0
C      1  0.4766940000000  0.4049990000000  0.5073190000000 1.0
C      1  0.3961390000000  0.5224180000000  0.4986240000000 1.0
C      1  0.5203120000000  0.5994150000000  0.5081330000000 1.0
C      1  0.4959610000000  0.5610820000000  0.5830270000000 1.0
C      1  0.5628780000000  0.4978520000000  0.4151230000000 1.0
C      1  0.4988200000000  0.4354430000000  0.5826950000000 1.0
C      1  0.4369330000000  0.4937300000000  0.4188180000000 1.0
C      1  0.5419320000000  0.5379160000000  0.5758920000000 1.0
C      1  0.5433510000000  0.4564210000000  0.4309850000000 1.0
C      1  0.4554130000000  0.4578630000000  0.5627720000000 1.0
C      1  0.4629310000000  0.5445270000000  0.4339230000000 1.0
C      1  0.4584470000000  0.6016200000000  0.4914610000000 1.0
C      1  0.5947190000000  0.5338080000000  0.4951030000000 1.0
C      1  0.5356100000000  0.4073170000000  0.5022720000000 1.0
C      1  0.3996530000000  0.4677560000000  0.4989840000000 1.0
C      1  0.5163340000000  0.5473860000000  0.5239580000000 1.0
C      1  0.5524850000000  0.4856850000000  0.4814120000000 1.0
C      1  0.4869730000000  0.4519720000000  0.5182590000000 1.0
C      1  0.4505080000000  0.5178960000000  0.4805940000000 1.0
C      1  0.5150740000000  0.4613160000000  0.4229630000000 1.0
C      1  0.4610810000000  0.4840040000000  0.5756000000000 1.0
C      1  0.4866870000000  0.5362400000000  0.4189970000000 1.0
C      1  0.5366490000000  0.5111900000000  0.5832680000000 1.0
C      1  0.5498260000000  0.5318140000000  0.4583500000000 1.0
C      1  0.5322820000000  0.4509840000000  0.5402010000000 1.0
C      1  0.4475230000000  0.4698880000000  0.4648790000000 1.0
C      1  0.4657650000000  0.5410760000000  0.5304340000000 1.0
C      1  0.5423190000000  0.5403480000000  0.4308400000000 1.0
C      1  0.5411520000000  0.4574450000000  0.5683510000000 1.0
C      1  0.4626380000000  0.4538530000000  0.4354490000000 1.0
C      1  0.4555920000000  0.5388850000000  0.5579670000000 1.0
C      1  0.5054900000000  0.4335080000000  0.5331450000000 1.0
C      1  0.4324250000000  0.4976140000000  0.4687650000000 1.0
C      1  0.4969260000000  0.5670080000000  0.5371150000000 1.0
C      1  0.5692550000000  0.5052480000000  0.4646980000000 1.0
C      1  0.4352380000000  0.4325180000000  0.5056930000000 1.0
C      1  0.4304520000000  0.5710540000000  0.5021040000000 1.0
C      1  0.5738300000000  0.5694460000000  0.5050760000000 1.0
C      1  0.5698400000000  0.4288390000000  0.4878010000000 1.0
C      1  0.4545820000000  0.4724200000000  0.4165080000000 1.0
C      1  0.4720190000000  0.5464890000000  0.5802710000000 1.0
C      1  0.5494150000000  0.5223760000000  0.4115280000000 1.0
C      1  0.5225430000000  0.4501800000000  0.5873250000000 1.0
C      1  0.3978170000000  0.5394410000000  0.5213000000000 1.0
C      1  0.5366930000000  0.5992590000000  0.4839100000000 1.0
C      1  0.5922130000000  0.4642190000000  0.5138470000000 1.0
C      1  0.4704870000000  0.4040110000000  0.4804590000000 1.0
C      1  0.5598860000000  0.4375850000000  0.5380270000000 1.0
C      1  0.4342170000000  0.4421090000000  0.4730320000000 1.0
C      1  0.4405460000000  0.5774060000000  0.5282140000000 1.0
C      1  0.5616980000000  0.5606200000000  0.4604560000000 1.0
C      1  0.4529270000000  0.5750830000000  0.4826180000000 1.0
C      1  0.5827970000000  0.5461510000000  0.5201780000000 1.0
C      1  0.5443710000000  0.4186730000000  0.4762810000000 1.0
C      1  0.4189500000000  0.4537010000000  0.5179850000000 1.0
C      1  0.5833450000000  0.4607120000000  0.5399240000000 1.0
C      1  0.4676550000000  0.4083530000000  0.4535200000000 1.0
C      1  0.4131630000000  0.5375970000000  0.5459380000000 1.0
C      1  0.5372430000000  0.5826420000000  0.4599420000000 1.0
C      1  0.4893600000000  0.5209510000000  0.5001680000000 1.0
C      1  0.5164100000000  0.5098130000000  0.4956140000000 1.0
C      1  0.5091190000000  0.4825590000000  0.5032480000000 1.0
C      1  0.4802670000000  0.4938000000000  0.5050620000000 1.0
C      1  0.4909910000000  0.4947310000000  0.4546130000000 1.0
C      1  0.4967810000000  0.5070320000000  0.5476410000000 1.0
END
