TITL C-2441156-4686-183 0.123141907853931 125000 -26223.6543454157 0 0 195 (C1) n - 1
REM
REM in /home/bkarasulu/work/CARBON/AIRSS/Generating-Clusters/ReaxFF-fromJPCA2015/Units_Real/with-SteepDescent/Higher-Symm
REM
REM
REM
REM
REM
REM ./C.cell (1df0a924f5614ab8850e4351716899ee)
REM
REM compiler GCC version 9.2.1 20190827 (Red Hat 9.2.1-1)
REM options -cpp -mtune=generic -march=x86-64 -g -O0 -fpre-include=/usr/include/finclude/math-vector-fortran.h
REM seed -1500135720 -538347070 918285632 1495359875 1793289674 798408386 1652663107 -618434349 -1535306941 -28401710 468817891 -519715041 -131483718 -401447956 -161684376 -785751895 -1790264373 -1376661166 -778050091 169921465 339787004 -1723667584 128208200 -178993567 104238305 1748763736 -533684335 -1242740289 -262311285 -696815756 -1435300714 1970747969 -354862926
REM
CELL 1.54180   50.00000   50.00000   50.00000   90.00000   90.00000   90.00000
LATT -1
SFAC C  
C      1  0.5735550000000  0.4820690000000  0.5786380000000 1.0
C      1  0.5758700000000  0.4172930000000  0.5097570000000 1.0
C      1  0.5742860000000  0.4659710000000  0.4252910000000 1.0
C      1  0.5742570000000  0.5614780000000  0.4441080000000 1.0
C      1  0.5781600000000  0.5709560000000  0.5446590000000 1.0
C      1  0.5227650000000  0.5543570000000  0.5849120000000 1.0
C      1  0.5209290000000  0.4287130000000  0.5790170000000 1.0
C      1  0.5237590000000  0.4053560000000  0.4675150000000 1.0
C      1  0.5219230000000  0.5083430000000  0.3949620000000 1.0
C      1  0.5214230000000  0.6015440000000  0.4796870000000 1.0
C      1  0.4753100000000  0.5383020000000  0.5221030000000 1.0
C      1  0.4804910000000  0.4909010000000  0.5504490000000 1.0
C      1  0.4816840000000  0.4523530000000  0.5084720000000 1.0
C      1  0.4798400000000  0.4791850000000  0.4534090000000 1.0
C      1  0.4785550000000  0.5342960000000  0.4680900000000 1.0
C      1  0.5227670000000  0.6072190000000  0.5085030000000 1.0
C      1  0.5230090000000  0.5309990000000  0.6028330000000 1.0
C      1  0.5216770000000  0.4076500000000  0.5596200000000 1.0
C      1  0.5224290000000  0.4137680000000  0.4372700000000 1.0
C      1  0.5266590000000  0.5375390000000  0.3926600000000 1.0
C      1  0.5642050000000  0.5789180000000  0.4653020000000 1.0
C      1  0.5683720000000  0.5548490000000  0.5658910000000 1.0
C      1  0.5628260000000  0.4554440000000  0.5745590000000 1.0
C      1  0.5701340000000  0.4213230000000  0.4822260000000 1.0
C      1  0.5634240000000  0.4900560000000  0.4134170000000 1.0
C      1  0.4524050000000  0.5234120000000  0.5121520000000 1.0
C      1  0.4504620000000  0.4958020000000  0.5209170000000 1.0
C      1  0.4468060000000  0.4818590000000  0.4980810000000 1.0
C      1  0.4501260000000  0.4963890000000  0.4770630000000 1.0
C      1  0.4534380000000  0.5215850000000  0.4830860000000 1.0
C      1  0.4307020000000  0.5250200000000  0.5871160000000 1.0
C      1  0.4294230000000  0.4322250000000  0.5503270000000 1.0
C      1  0.4316380000000  0.4293020000000  0.4521300000000 1.0
C      1  0.4266900000000  0.5225000000000  0.4184360000000 1.0
C      1  0.4311210000000  0.5861040000000  0.4947240000000 1.0
C      1  0.5476790000000  0.4111770000000  0.5476440000000 1.0
C      1  0.5496500000000  0.4231130000000  0.4342570000000 1.0
C      1  0.5531270000000  0.5406840000000  0.4063780000000 1.0
C      1  0.5489560000000  0.5938370000000  0.5110260000000 1.0
C      1  0.5511250000000  0.5216470000000  0.6006390000000 1.0
C      1  0.4108060000000  0.5451860000000  0.4919420000000 1.0
C      1  0.4108880000000  0.5220730000000  0.5437240000000 1.0
C      1  0.4117330000000  0.4673000000000  0.5325830000000 1.0
C      1  0.4101680000000  0.4573830000000  0.4793100000000 1.0
C      1  0.4100310000000  0.5052970000000  0.4535730000000 1.0
C      1  0.4261220000000  0.4188220000000  0.5106490000000 1.0
C      1  0.4271520000000  0.4636950000000  0.4273910000000 1.0
C      1  0.4240700000000  0.5587000000000  0.4473040000000 1.0
C      1  0.4277910000000  0.5675820000000  0.5333670000000 1.0
C      1  0.4270740000000  0.4834090000000  0.5799600000000 1.0
C      1  0.4685630000000  0.3949260000000  0.4723100000000 1.0
C      1  0.4746330000000  0.4927130000000  0.3874530000000 1.0
C      1  0.4766980000000  0.6082050000000  0.4634830000000 1.0
C      1  0.4720810000000  0.5697310000000  0.5880870000000 1.0
C      1  0.4746530000000  0.4377490000000  0.5948730000000 1.0
C      1  0.4973930000000  0.4851360000000  0.4758550000000 1.0
C      1  0.5015790000000  0.5178360000000  0.4813500000000 1.0
C      1  0.5000040000000  0.5244030000000  0.5111730000000 1.0
C      1  0.4985780000000  0.4985290000000  0.5285140000000 1.0
C      1  0.4983330000000  0.4772400000000  0.5082610000000 1.0
C      1  0.4661010000000  0.5631830000000  0.4305510000000 1.0
C      1  0.4750700000000  0.5926530000000  0.5341580000000 1.0
C      1  0.4784900000000  0.4946010000000  0.5995310000000 1.0
C      1  0.4780030000000  0.4043690000000  0.5266670000000 1.0
C      1  0.4791140000000  0.4442340000000  0.4170600000000 1.0
C      1  0.4325700000000  0.4132280000000  0.4770500000000 1.0
C      1  0.4280350000000  0.4941240000000  0.4124320000000 1.0
C      1  0.4322100000000  0.5821400000000  0.4655750000000 1.0
C      1  0.4274630000000  0.5482730000000  0.5712620000000 1.0
C      1  0.4291850000000  0.4522800000000  0.5727860000000 1.0
C      1  0.5161930000000  0.3821500000000  0.4894500000000 1.0
C      1  0.5206830000000  0.4676780000000  0.3898530000000 1.0
C      1  0.5249140000000  0.5964300000000  0.4362490000000 1.0
C      1  0.5161340000000  0.5910920000000  0.5679290000000 1.0
C      1  0.5205090000000  0.4591480000000  0.6071650000000 1.0
C      1  0.5197660000000  0.4678870000000  0.5557710000000 1.0
C      1  0.5088530000000  0.4410980000000  0.4924490000000 1.0
C      1  0.5175940000000  0.4926790000000  0.4348970000000 1.0
C      1  0.5183600000000  0.5568130000000  0.4680940000000 1.0
C      1  0.5069540000000  0.5598100000000  0.5398390000000 1.0
C      1  0.4776100000000  0.5224120000000  0.3926970000000 1.0
C      1  0.4764810000000  0.6064210000000  0.4930480000000 1.0
C      1  0.4776650000000  0.5430750000000  0.5996640000000 1.0
C      1  0.4769870000000  0.4189430000000  0.5719790000000 1.0
C      1  0.4762160000000  0.4062260000000  0.4451220000000 1.0
C      1  0.6056410000000  0.5275180000000  0.4837270000000 1.0
C      1  0.6018490000000  0.5327140000000  0.5239780000000 1.0
C      1  0.6067540000000  0.4840970000000  0.5248790000000 1.0
C      1  0.6061000000000  0.4713650000000  0.4994390000000 1.0
C      1  0.6085990000000  0.5007110000000  0.4717710000000 1.0
C      1  0.5347170000000  0.5137300000000  0.5628600000000 1.0
C      1  0.5331130000000  0.4522360000000  0.5342270000000 1.0
C      1  0.5393100000000  0.4576820000000  0.4588770000000 1.0
C      1  0.5314800000000  0.5173830000000  0.4412250000000 1.0
C      1  0.5359360000000  0.5549910000000  0.4900830000000 1.0
C      1  0.4922290000000  0.4018100000000  0.5537030000000 1.0
C      1  0.4950700000000  0.4185820000000  0.4256610000000 1.0
C      1  0.4987510000000  0.5410960000000  0.3903910000000 1.0
C      1  0.4932740000000  0.6091000000000  0.5163610000000 1.0
C      1  0.4952850000000  0.5218610000000  0.6087630000000 1.0
C      1  0.4855420000000  0.4536480000000  0.4438620000000 1.0
C      1  0.4853230000000  0.5414070000000  0.4384090000000 1.0
C      1  0.4861120000000  0.5657380000000  0.5212570000000 1.0
C      1  0.4872100000000  0.5040630000000  0.5732820000000 1.0
C      1  0.4859620000000  0.4321820000000  0.5277880000000 1.0
C      1  0.4504230000000  0.5647510000000  0.5688280000000 1.0
C      1  0.4556560000000  0.4548840000000  0.5826070000000 1.0
C      1  0.4582890000000  0.4160200000000  0.4882450000000 1.0
C      1  0.4541790000000  0.4861630000000  0.4056960000000 1.0
C      1  0.4591370000000  0.5830160000000  0.4532960000000 1.0
C      1  0.5597580000000  0.5937410000000  0.5373760000000 1.0
C      1  0.5593920000000  0.4939070000000  0.6021060000000 1.0
C      1  0.5566090000000  0.3981290000000  0.5233440000000 1.0
C      1  0.5586240000000  0.4424220000000  0.4149970000000 1.0
C      1  0.5578440000000  0.5653240000000  0.4200910000000 1.0
C      1  0.4373390000000  0.4942090000000  0.4531560000000 1.0
C      1  0.4360340000000  0.5431790000000  0.4764340000000 1.0
C      1  0.4355340000000  0.5365410000000  0.5331050000000 1.0
C      1  0.4376560000000  0.4789840000000  0.5395370000000 1.0
C      1  0.4352570000000  0.4560450000000  0.4938110000000 1.0
C      1  0.3913690000000  0.4769750000000  0.4901260000000 1.0
C      1  0.3925880000000  0.5026590000000  0.4770850000000 1.0
C      1  0.3938230000000  0.5233130000000  0.4964210000000 1.0
C      1  0.3935070000000  0.5121180000000  0.5225480000000 1.0
C      1  0.3920260000000  0.4833740000000  0.5186180000000 1.0
C      1  0.4458080000000  0.4150500000000  0.5303030000000 1.0
C      1  0.4476180000000  0.4444230000000  0.4291900000000 1.0
C      1  0.4411930000000  0.5520890000000  0.4236030000000 1.0
C      1  0.4466030000000  0.5868260000000  0.5222890000000 1.0
C      1  0.4480480000000  0.4987900000000  0.5920310000000 1.0
C      1  0.5924700000000  0.5191210000000  0.4607330000000 1.0
C      1  0.5887830000000  0.5446550000000  0.5007640000000 1.0
C      1  0.5965210000000  0.5076500000000  0.5379140000000 1.0
C      1  0.5906280000000  0.4623950000000  0.5199470000000 1.0
C      1  0.5911570000000  0.4774270000000  0.4740120000000 1.0
C      1  0.5001700000000  0.4195250000000  0.4780900000000 1.0
C      1  0.5022630000000  0.4985400000000  0.4145130000000 1.0
C      1  0.5038090000000  0.5791900000000  0.4758360000000 1.0
C      1  0.5006630000000  0.5549140000000  0.5663070000000 1.0
C      1  0.5023310000000  0.4513360000000  0.5700860000000 1.0
C      1  0.5409620000000  0.4453410000000  0.5908980000000 1.0
C      1  0.5422580000000  0.4199450000000  0.4871270000000 1.0
C      1  0.5417900000000  0.4876930000000  0.3944390000000 1.0
C      1  0.5427470000000  0.5980040000000  0.4595870000000 1.0
C      1  0.5417720000000  0.5614070000000  0.5652450000000 1.0
C      1  0.5639280000000  0.5264290000000  0.5714500000000 1.0
C      1  0.5619710000000  0.4381110000000  0.5496900000000 1.0
C      1  0.5652960000000  0.4388380000000  0.4594360000000 1.0
C      1  0.5617770000000  0.5183210000000  0.4249410000000 1.0
C      1  0.5607260000000  0.5698160000000  0.4931190000000 1.0
C      1  0.5171830000000  0.5471280000000  0.4398500000000 1.0
C      1  0.5333100000000  0.5554190000000  0.5374590000000 1.0
C      1  0.5260850000000  0.4887470000000  0.5744940000000 1.0
C      1  0.5299240000000  0.4310790000000  0.5102500000000 1.0
C      1  0.5279280000000  0.4667440000000  0.4345650000000 1.0
C      1  0.4110070000000  0.4377080000000  0.5284320000000 1.0
C      1  0.4121710000000  0.4508070000000  0.4505090000000 1.0
C      1  0.4094930000000  0.5309220000000  0.4394550000000 1.0
C      1  0.4112490000000  0.5692340000000  0.5081770000000 1.0
C      1  0.4129000000000  0.5091830000000  0.5702630000000 1.0
C      1  0.5303260000000  0.5391870000000  0.5128790000000 1.0
C      1  0.5272600000000  0.5038900000000  0.5375950000000 1.0
C      1  0.5249060000000  0.4699010000000  0.5131820000000 1.0
C      1  0.5183050000000  0.4632570000000  0.4754680000000 1.0
C      1  0.5284230000000  0.5171370000000  0.4693740000000 1.0
C      1  0.5291890000000  0.5703060000000  0.4238160000000 1.0
C      1  0.5341760000000  0.5990460000000  0.5486460000000 1.0
C      1  0.5316000000000  0.4852200000000  0.6035080000000 1.0
C      1  0.5361080000000  0.3860250000000  0.5075540000000 1.0
C      1  0.5309330000000  0.4503690000000  0.4098090000000 1.0
C      1  0.4628230000000  0.5584700000000  0.4754050000000 1.0
C      1  0.4611080000000  0.5405840000000  0.5497010000000 1.0
C      1  0.4615240000000  0.4694570000000  0.5548860000000 1.0
C      1  0.4607010000000  0.4441070000000  0.4896400000000 1.0
C      1  0.4614850000000  0.4942060000000  0.4360560000000 1.0
C      1  0.5819720000000  0.5045090000000  0.5619470000000 1.0
C      1  0.5816830000000  0.4377640000000  0.5282410000000 1.0
C      1  0.5840500000000  0.4589740000000  0.4510060000000 1.0
C      1  0.5803240000000  0.5333690000000  0.4413740000000 1.0
C      1  0.5948190000000  0.5591610000000  0.5245800000000 1.0
C      1  0.4875270000000  0.5856760000000  0.5676530000000 1.0
C      1  0.4915850000000  0.4621110000000  0.6004840000000 1.0
C      1  0.4889630000000  0.3924100000000  0.4953360000000 1.0
C      1  0.4921470000000  0.4707970000000  0.3975820000000 1.0
C      1  0.4979180000000  0.6071090000000  0.4442040000000 1.0
C      1  0.5513660000000  0.5220120000000  0.5082920000000 1.0
C      1  0.5513900000000  0.4996830000000  0.5235550000000 1.0
C      1  0.5511160000000  0.4769860000000  0.5047150000000 1.0
C      1  0.5626620000000  0.4866130000000  0.4802520000000 1.0
C      1  0.5537160000000  0.5140920000000  0.4813640000000 1.0
C      1  0.4797310000000  0.5164790000000  0.4225390000000 1.0
C      1  0.4803300000000  0.5751040000000  0.4920910000000 1.0
C      1  0.4811040000000  0.5327850000000  0.5706670000000 1.0
C      1  0.4798080000000  0.4419530000000  0.5532870000000 1.0
C      1  0.4819040000000  0.4303750000000  0.4605680000000 1.0
END
