TITL C-2441165-58-1416 7.07952821527812e-06 125000 -3928.60840690157 0 0 28 (C1) n - 1
REM
REM in /home/bkarasulu/work/CARBON/AIRSS/Generating-Clusters/ReaxFF-fromJPCA2015/Units_Real/with-SteepDescent/Higher-Symm
REM
REM
REM
REM
REM
REM ./C.cell (1df0a924f5614ab8850e4351716899ee)
REM
REM compiler GCC version 9.2.1 20190827 (Red Hat 9.2.1-1)
REM options -cpp -mtune=generic -march=x86-64 -g -O0 -fpre-include=/usr/include/finclude/math-vector-fortran.h
REM seed 252333715 -1592898498 -53401154 1901331460 424280523 -844432756 161020864 790684985 813349267 -1381727587 -1058444126 1125783552 1175348764 -1536741365 -277918673 1832224133 896613353 114485859 -1797597267 955710432 -1475146081 169774359 -463586826 -1813157281 1298750918 242232364 -457892884 -1603014304 538596921 1835325940 -508222125 1584251607 948180481
REM
CELL 1.54180   50.00000   50.00000   50.00000   90.00000   90.00000   90.00000
LATT -1
SFAC C  
C      1  0.4447700000000  0.5269530000000  0.4846100000000 1.0
C      1  0.4849750000000  0.5653310000000  0.4883740000000 1.0
C      1  0.5384280000000  0.5497990000000  0.4840100000000 1.0
C      1  0.5624730000000  0.4993840000000  0.4855900000000 1.0
C      1  0.5407150000000  0.4490780000000  0.4861850000000 1.0
C      1  0.4860380000000  0.4372280000000  0.4874680000000 1.0
C      1  0.4431070000000  0.4711070000000  0.4847260000000 1.0
C      1  0.4477510000000  0.4991520000000  0.4785250000000 1.0
C      1  0.4599240000000  0.5516480000000  0.4852390000000 1.0
C      1  0.5140480000000  0.5647980000000  0.4861480000000 1.0
C      1  0.5471960000000  0.5225180000000  0.4786270000000 1.0
C      1  0.5598570000000  0.4705990000000  0.4863230000000 1.0
C      1  0.5123490000000  0.4459990000000  0.4805540000000 1.0
C      1  0.4588820000000  0.4471030000000  0.4867810000000 1.0
C      1  0.4998880000000  0.5334280000000  0.5234160000000 1.0
C      1  0.5253500000000  0.5203020000000  0.5223430000000 1.0
C      1  0.5323920000000  0.4924530000000  0.5235590000000 1.0
C      1  0.5143140000000  0.4701780000000  0.5231830000000 1.0
C      1  0.4855880000000  0.4698800000000  0.5239720000000 1.0
C      1  0.4682550000000  0.4927200000000  0.5224600000000 1.0
C      1  0.4740170000000  0.5208490000000  0.5232130000000 1.0
C      1  0.4462220000000  0.4884760000000  0.5050280000000 1.0
C      1  0.4544030000000  0.5356940000000  0.5082790000000 1.0
C      1  0.5001510000000  0.5589110000000  0.5101960000000 1.0
C      1  0.5433750000000  0.5334140000000  0.5047760000000 1.0
C      1  0.5569730000000  0.4874440000000  0.5092520000000 1.0
C      1  0.5234590000000  0.4488430000000  0.5068090000000 1.0
C      1  0.4751020000000  0.4467090000000  0.5103520000000 1.0
END
