TITL C-2441167-4473-1093 0.00117806884575975 125000 -4519.50237759323 0 0 32 (C2) n - 1
REM
REM in /home/bkarasulu/work/CARBON/AIRSS/Generating-Clusters/ReaxFF-fromJPCA2015/Units_Real/with-SteepDescent/Higher-Symm
REM
REM
REM
REM
REM
REM ./C.cell (1df0a924f5614ab8850e4351716899ee)
REM
REM compiler GCC version 9.2.1 20190827 (Red Hat 9.2.1-1)
REM options -cpp -mtune=generic -march=x86-64 -g -O0 -fpre-include=/usr/include/finclude/math-vector-fortran.h
REM seed -1444920733 -892489897 -1806711137 1771144844 1918295178 510306728 -950654712 1104570097 1477527239 2001262859 453543661 -1901260083 1161400635 -656809823 -900496577 48948800 609692059 1894927069 1450836964 -400447705 875357204 1826610450 -1967296217 -1089820954 1264657335 343365477 1993840496 -306624021 1776821112 1807275342 1955900412 -136073066 1769371007
REM
CELL 1.54180   50.00000   50.00000   50.00000   90.00000   90.00000   90.00000
LATT -1
SFAC C  
C      1  0.4554390000000  0.4852790000000  0.4979490000000 1.0
C      1  0.5445170000000  0.4853350000000  0.5021710000000 1.0
C      1  0.4647530000000  0.5235820000000  0.5084960000000 1.0
C      1  0.5352710000000  0.5235810000000  0.4914730000000 1.0
C      1  0.5068360000000  0.4864050000000  0.5631660000000 1.0
C      1  0.4933820000000  0.4867470000000  0.4366340000000 1.0
C      1  0.4874290000000  0.4570560000000  0.5270980000000 1.0
C      1  0.5131340000000  0.4563540000000  0.4724910000000 1.0
C      1  0.5285190000000  0.4612140000000  0.4966500000000 1.0
C      1  0.4712980000000  0.4612040000000  0.5037330000000 1.0
C      1  0.4939490000000  0.5440310000000  0.4648090000000 1.0
C      1  0.5060970000000  0.5441080000000  0.5351680000000 1.0
C      1  0.5211740000000  0.4921780000000  0.4379270000000 1.0
C      1  0.4788330000000  0.4918490000000  0.5624300000000 1.0
C      1  0.4637760000000  0.5111190000000  0.5470520000000 1.0
C      1  0.5357750000000  0.5107310000000  0.4530960000000 1.0
C      1  0.4495900000000  0.5033460000000  0.5210080000000 1.0
C      1  0.5501620000000  0.5031900000000  0.4788890000000 1.0
C      1  0.5217460000000  0.5324850000000  0.4675370000000 1.0
C      1  0.4781830000000  0.5326570000000  0.5323980000000 1.0
C      1  0.4886820000000  0.4677000000000  0.5526260000000 1.0
C      1  0.5118070000000  0.4680390000000  0.4467920000000 1.0
C      1  0.5085160000000  0.4455600000000  0.5119480000000 1.0
C      1  0.4910160000000  0.4451210000000  0.4883010000000 1.0
C      1  0.5296390000000  0.5006700000000  0.5521690000000 1.0
C      1  0.4703590000000  0.5006480000000  0.4478910000000 1.0
C      1  0.4565460000000  0.5035020000000  0.4741620000000 1.0
C      1  0.5435010000000  0.5036300000000  0.5259110000000 1.0
C      1  0.5294480000000  0.5263650000000  0.5390660000000 1.0
C      1  0.4705260000000  0.5263120000000  0.4609850000000 1.0
C      1  0.5021890000000  0.5600330000000  0.5127100000000 1.0
C      1  0.4979050000000  0.5599710000000  0.4872630000000 1.0
END
