TITL C-2441165-58-406 0.0533281298904785 125000 -19647.8313014554 0 0 141 (C1) n - 1
REM
REM in /home/bkarasulu/work/CARBON/AIRSS/Generating-Clusters/ReaxFF-fromJPCA2015/Units_Real/with-SteepDescent/Higher-Symm
REM
REM
REM
REM
REM
REM ./C.cell (1df0a924f5614ab8850e4351716899ee)
REM
REM compiler GCC version 9.2.1 20190827 (Red Hat 9.2.1-1)
REM options -cpp -mtune=generic -march=x86-64 -g -O0 -fpre-include=/usr/include/finclude/math-vector-fortran.h
REM seed -1309724809 1585559513 -1381512206 1286264610 -985843378 163038870 -487611244 -98726563 440017019 1578402613 647518538 -1320444467 -1674913682 -1664699345 440230335 -963145154 -2120315298 -2128181253 251142945 1495865926 -1143270009 719469511 741619810 397671336 -1409042409 -1029263878 -634373073 3321528 -104508017 -522603410 1952745760 1630376225 -1906540002
REM
CELL 1.54180   50.00000   50.00000   50.00000   90.00000   90.00000   90.00000
LATT -1
SFAC C  
C      1  0.5842960000000  0.5271070000000  0.5272550000000 1.0
C      1  0.5724890000000  0.4981280000000  0.5600400000000 1.0
C      1  0.4807170000000  0.5541510000000  0.5035070000000 1.0
C      1  0.4302480000000  0.4844390000000  0.4484240000000 1.0
C      1  0.5219260000000  0.5421580000000  0.5116460000000 1.0
C      1  0.5758230000000  0.4889320000000  0.4365260000000 1.0
C      1  0.4810410000000  0.4507470000000  0.4906250000000 1.0
C      1  0.5702730000000  0.5167810000000  0.4304580000000 1.0
C      1  0.5215300000000  0.5884320000000  0.4578900000000 1.0
C      1  0.5485460000000  0.5891660000000  0.4637410000000 1.0
C      1  0.5610350000000  0.5634480000000  0.4557000000000 1.0
C      1  0.5417450000000  0.5905550000000  0.4928920000000 1.0
C      1  0.4808580000000  0.4193160000000  0.4490810000000 1.0
C      1  0.4907360000000  0.4234380000000  0.5002600000000 1.0
C      1  0.4106750000000  0.5102370000000  0.5000490000000 1.0
C      1  0.5355510000000  0.5325380000000  0.5344850000000 1.0
C      1  0.4828950000000  0.5787780000000  0.4493100000000 1.0
C      1  0.4889240000000  0.4426530000000  0.4644160000000 1.0
C      1  0.4698510000000  0.4727620000000  0.5852380000000 1.0
C      1  0.5431140000000  0.5119740000000  0.5908360000000 1.0
C      1  0.5125820000000  0.5229740000000  0.4059350000000 1.0
C      1  0.5267680000000  0.5168860000000  0.4515630000000 1.0
C      1  0.4218880000000  0.5131350000000  0.4504730000000 1.0
C      1  0.4911170000000  0.4485340000000  0.4139090000000 1.0
C      1  0.4931450000000  0.5367180000000  0.4842190000000 1.0
C      1  0.4471820000000  0.5487550000000  0.4634860000000 1.0
C      1  0.5302390000000  0.4838720000000  0.5136220000000 1.0
C      1  0.4694450000000  0.5022660000000  0.4695390000000 1.0
C      1  0.4545640000000  0.5250090000000  0.4784480000000 1.0
C      1  0.4373340000000  0.4382700000000  0.4645030000000 1.0
C      1  0.5677770000000  0.4545350000000  0.5388740000000 1.0
C      1  0.4237430000000  0.4751950000000  0.5675410000000 1.0
C      1  0.5550450000000  0.4705530000000  0.4257050000000 1.0
C      1  0.4330120000000  0.5284990000000  0.4280780000000 1.0
C      1  0.5718360000000  0.5260330000000  0.5547570000000 1.0
C      1  0.5332510000000  0.4088020000000  0.5461560000000 1.0
C      1  0.5143270000000  0.4707130000000  0.5349690000000 1.0
C      1  0.4465100000000  0.5295850000000  0.5065050000000 1.0
C      1  0.5145720000000  0.5083650000000  0.5974410000000 1.0
C      1  0.4462490000000  0.4821580000000  0.5143620000000 1.0
C      1  0.4615930000000  0.4989430000000  0.5986180000000 1.0
C      1  0.5108630000000  0.4968350000000  0.3941210000000 1.0
C      1  0.4862960000000  0.4819580000000  0.5372310000000 1.0
C      1  0.5532190000000  0.4436380000000  0.4353950000000 1.0
C      1  0.5811220000000  0.5266690000000  0.4545650000000 1.0
C      1  0.4475160000000  0.4749940000000  0.4258820000000 1.0
C      1  0.4706770000000  0.5839120000000  0.5298670000000 1.0
C      1  0.4939000000000  0.4495540000000  0.5836250000000 1.0
C      1  0.5094930000000  0.4938590000000  0.4949530000000 1.0
C      1  0.5232690000000  0.5823530000000  0.5352030000000 1.0
C      1  0.4321780000000  0.5756210000000  0.4963440000000 1.0
C      1  0.5880010000000  0.4855940000000  0.4636360000000 1.0
C      1  0.4633540000000  0.4095350000000  0.5026560000000 1.0
C      1  0.5808160000000  0.5007990000000  0.4881230000000 1.0
C      1  0.5222210000000  0.5472820000000  0.5763920000000 1.0
C      1  0.4947260000000  0.4270310000000  0.5281580000000 1.0
C      1  0.5626350000000  0.5638040000000  0.5192970000000 1.0
C      1  0.5452580000000  0.5093510000000  0.5195380000000 1.0
C      1  0.4758670000000  0.5253380000000  0.5949950000000 1.0
C      1  0.4493440000000  0.5517880000000  0.4345690000000 1.0
C      1  0.4214420000000  0.4801730000000  0.4970810000000 1.0
C      1  0.4285040000000  0.4663360000000  0.4697480000000 1.0
C      1  0.4653870000000  0.4376440000000  0.5346660000000 1.0
C      1  0.5270850000000  0.4258410000000  0.4708140000000 1.0
C      1  0.5010770000000  0.5023390000000  0.5717390000000 1.0
C      1  0.5443660000000  0.4998740000000  0.4686640000000 1.0
C      1  0.4114400000000  0.4616650000000  0.5204160000000 1.0
C      1  0.5269690000000  0.4794730000000  0.4209090000000 1.0
C      1  0.4654010000000  0.4529850000000  0.4270240000000 1.0
C      1  0.4132480000000  0.5269190000000  0.4753400000000 1.0
C      1  0.5550000000000  0.4892610000000  0.5808660000000 1.0
C      1  0.5611470000000  0.4443220000000  0.5659570000000 1.0
C      1  0.4712020000000  0.4958720000000  0.5163160000000 1.0
C      1  0.5783340000000  0.5467000000000  0.4737730000000 1.0
C      1  0.5214820000000  0.4805510000000  0.4704390000000 1.0
C      1  0.5756860000000  0.4496520000000  0.4983630000000 1.0
C      1  0.5465450000000  0.4628910000000  0.5832280000000 1.0
C      1  0.5128700000000  0.4945830000000  0.5493140000000 1.0
C      1  0.5084460000000  0.4683710000000  0.4002290000000 1.0
C      1  0.5038550000000  0.5210690000000  0.5042810000000 1.0
C      1  0.4979080000000  0.5548780000000  0.5616920000000 1.0
C      1  0.4633690000000  0.5921420000000  0.5008040000000 1.0
C      1  0.5455150000000  0.5537580000000  0.4326020000000 1.0
C      1  0.5409420000000  0.5609170000000  0.4991140000000 1.0
C      1  0.4468590000000  0.5762150000000  0.5449290000000 1.0
C      1  0.5041500000000  0.4122980000000  0.5501170000000 1.0
C      1  0.4465200000000  0.4173700000000  0.5260280000000 1.0
C      1  0.4751780000000  0.5925830000000  0.4736010000000 1.0
C      1  0.5454180000000  0.4190290000000  0.5216250000000 1.0
C      1  0.5096950000000  0.4905210000000  0.4456900000000 1.0
C      1  0.4459230000000  0.4577280000000  0.5738340000000 1.0
C      1  0.4480130000000  0.5080340000000  0.5611490000000 1.0
C      1  0.4769680000000  0.5094720000000  0.4180260000000 1.0
C      1  0.5435360000000  0.4468240000000  0.5249240000000 1.0
C      1  0.4519960000000  0.4549210000000  0.5125420000000 1.0
C      1  0.5886310000000  0.5000510000000  0.5167520000000 1.0
C      1  0.4117350000000  0.4820510000000  0.5410790000000 1.0
C      1  0.4909520000000  0.5837520000000  0.4946440000000 1.0
C      1  0.5811540000000  0.5466920000000  0.5057390000000 1.0
C      1  0.4507070000000  0.4179560000000  0.4792310000000 1.0
C      1  0.5286070000000  0.4274230000000  0.4414680000000 1.0
C      1  0.5416050000000  0.5260730000000  0.4250330000000 1.0
C      1  0.4831900000000  0.5010170000000  0.4446430000000 1.0
C      1  0.5868400000000  0.4577010000000  0.4727230000000 1.0
C      1  0.4977630000000  0.5481410000000  0.4122060000000 1.0
C      1  0.5043240000000  0.5356650000000  0.5984990000000 1.0
C      1  0.5084530000000  0.5672010000000  0.4515880000000 1.0
C      1  0.5023020000000  0.4255140000000  0.4284080000000 1.0
C      1  0.4960850000000  0.5783000000000  0.5440130000000 1.0
C      1  0.4574480000000  0.4333940000000  0.5619300000000 1.0
C      1  0.5667840000000  0.4218360000000  0.5017120000000 1.0
C      1  0.4540870000000  0.4297520000000  0.4408860000000 1.0
C      1  0.4129260000000  0.5101030000000  0.5293090000000 1.0
C      1  0.4819800000000  0.4851240000000  0.4913730000000 1.0
C      1  0.5498830000000  0.5347850000000  0.5738050000000 1.0
C      1  0.4511150000000  0.5177390000000  0.4080870000000 1.0
C      1  0.5713830000000  0.4372790000000  0.4576570000000 1.0
C      1  0.4303780000000  0.5264410000000  0.5476770000000 1.0
C      1  0.5789750000000  0.4815950000000  0.5370320000000 1.0
C      1  0.4726780000000  0.5309220000000  0.5199970000000 1.0
C      1  0.5223550000000  0.4461550000000  0.5823420000000 1.0
C      1  0.4717410000000  0.5436160000000  0.5721420000000 1.0
C      1  0.5182430000000  0.5942260000000  0.5094510000000 1.0
C      1  0.4253370000000  0.5770760000000  0.5252540000000 1.0
C      1  0.5440330000000  0.5605020000000  0.5427590000000 1.0
C      1  0.4744460000000  0.4931130000000  0.5614570000000 1.0
C      1  0.4587880000000  0.4920170000000  0.4076500000000 1.0
C      1  0.5443050000000  0.4602550000000  0.5010040000000 1.0
C      1  0.4352560000000  0.4971310000000  0.5851090000000 1.0
C      1  0.5402270000000  0.4242360000000  0.5696890000000 1.0
C      1  0.5558690000000  0.4184830000000  0.4745230000000 1.0
C      1  0.5187590000000  0.5614110000000  0.4263190000000 1.0
C      1  0.4279280000000  0.4380910000000  0.5169470000000 1.0
C      1  0.4850910000000  0.4267720000000  0.5700300000000 1.0
C      1  0.4755150000000  0.5607130000000  0.4275210000000 1.0
C      1  0.5242530000000  0.4528900000000  0.4813760000000 1.0
C      1  0.5546670000000  0.5121660000000  0.4920540000000 1.0
C      1  0.4472510000000  0.5492960000000  0.5567190000000 1.0
C      1  0.5119730000000  0.5399860000000  0.4636830000000 1.0
C      1  0.4262570000000  0.5508870000000  0.5131640000000 1.0
C      1  0.4210370000000  0.5558080000000  0.4738490000000 1.0
END
