TITL C-2441160-1326-1406 0.0618482030452894 125000 -27008.1843009176 0 0 188 (C1) n - 1
REM
REM in /home/bkarasulu/work/CARBON/AIRSS/Generating-Clusters/ReaxFF-fromJPCA2015/Units_Real/with-SteepDescent/Higher-Symm
REM
REM
REM
REM
REM
REM ./C.cell (1df0a924f5614ab8850e4351716899ee)
REM
REM compiler GCC version 9.2.1 20190827 (Red Hat 9.2.1-1)
REM options -cpp -mtune=generic -march=x86-64 -g -O0 -fpre-include=/usr/include/finclude/math-vector-fortran.h
REM seed -1281214611 499256990 -2060821024 1119804454 1705238296 828616056 -1089893203 -301229645 840203101 -1138190053 -1652322930 -1374074708 538569778 -747274822 -1404062360 1809005314 952008698 -313491363 -541361846 -1390094048 762255819 -521957862 -479483802 -1002233045 492163623 -574615205 -591101472 897051863 960177915 2045522279 -268326107 2043226430 860048568
REM
CELL 1.54180   50.00000   50.00000   50.00000   90.00000   90.00000   90.00000
LATT -1
SFAC C  
C      1  0.5222090000000  0.4446550000000  0.4083750000000 1.0
C      1  0.5391310000000  0.4825370000000  0.5997820000000 1.0
C      1  0.5488500000000  0.5862440000000  0.5093380000000 1.0
C      1  0.4971040000000  0.4263950000000  0.5171090000000 1.0
C      1  0.4610590000000  0.4836290000000  0.5152580000000 1.0
C      1  0.5013290000000  0.4435880000000  0.5896030000000 1.0
C      1  0.5801780000000  0.4103930000000  0.5314690000000 1.0
C      1  0.4638140000000  0.4055990000000  0.4367500000000 1.0
C      1  0.5455530000000  0.5633170000000  0.4922590000000 1.0
C      1  0.4004320000000  0.5236580000000  0.5499430000000 1.0
C      1  0.4385560000000  0.5553950000000  0.4264840000000 1.0
C      1  0.5429680000000  0.4150900000000  0.5676900000000 1.0
C      1  0.5339270000000  0.4067250000000  0.5404420000000 1.0
C      1  0.4798920000000  0.5283790000000  0.6021540000000 1.0
C      1  0.4795060000000  0.3939630000000  0.4819790000000 1.0
C      1  0.4835160000000  0.6115930000000  0.5290890000000 1.0
C      1  0.5127190000000  0.5587080000000  0.5231850000000 1.0
C      1  0.4201160000000  0.5111670000000  0.4146100000000 1.0
C      1  0.4291530000000  0.4102540000000  0.5254620000000 1.0
C      1  0.5191640000000  0.6043490000000  0.4827230000000 1.0
C      1  0.4966020000000  0.4367900000000  0.4168060000000 1.0
C      1  0.4626440000000  0.5383370000000  0.4215770000000 1.0
C      1  0.5671620000000  0.5929970000000  0.4718500000000 1.0
C      1  0.5879670000000  0.4556770000000  0.5209040000000 1.0
C      1  0.5632170000000  0.5488280000000  0.5856760000000 1.0
C      1  0.5266560000000  0.5428200000000  0.4580030000000 1.0
C      1  0.4998410000000  0.5793740000000  0.4833460000000 1.0
C      1  0.5553760000000  0.5561930000000  0.5423270000000 1.0
C      1  0.5100760000000  0.4915710000000  0.4921970000000 1.0
C      1  0.4491680000000  0.4031250000000  0.4813920000000 1.0
C      1  0.5798030000000  0.5595140000000  0.4492400000000 1.0
C      1  0.5046030000000  0.5144640000000  0.3955680000000 1.0
C      1  0.5685000000000  0.5791000000000  0.5292330000000 1.0
C      1  0.4249340000000  0.5820860000000  0.5171890000000 1.0
C      1  0.4851350000000  0.4752560000000  0.4516110000000 1.0
C      1  0.4827660000000  0.5278420000000  0.4951400000000 1.0
C      1  0.4789920000000  0.5400730000000  0.4479430000000 1.0
C      1  0.5558080000000  0.4589880000000  0.4648370000000 1.0
C      1  0.5556430000000  0.5344470000000  0.4928590000000 1.0
C      1  0.5949810000000  0.5444130000000  0.5276940000000 1.0
C      1  0.4439940000000  0.4710870000000  0.3965890000000 1.0
C      1  0.4587220000000  0.5659070000000  0.5732640000000 1.0
C      1  0.5404360000000  0.4399160000000  0.5359540000000 1.0
C      1  0.5246490000000  0.5659190000000  0.5548130000000 1.0
C      1  0.5596290000000  0.5156600000000  0.5644700000000 1.0
C      1  0.5842130000000  0.4862280000000  0.5721160000000 1.0
C      1  0.4884180000000  0.4888090000000  0.5499870000000 1.0
C      1  0.4342490000000  0.5513030000000  0.5711900000000 1.0
C      1  0.4404900000000  0.4068430000000  0.4540890000000 1.0
C      1  0.4979870000000  0.5887570000000  0.4374170000000 1.0
C      1  0.4502060000000  0.5196750000000  0.5450550000000 1.0
C      1  0.4283200000000  0.5847810000000  0.4894180000000 1.0
C      1  0.5109210000000  0.4891910000000  0.6115890000000 1.0
C      1  0.5317670000000  0.5140500000000  0.5633780000000 1.0
C      1  0.4091560000000  0.4776260000000  0.4600370000000 1.0
C      1  0.5396930000000  0.5717810000000  0.4200070000000 1.0
C      1  0.5660870000000  0.5015710000000  0.5911940000000 1.0
C      1  0.5951480000000  0.5527410000000  0.4716850000000 1.0
C      1  0.4511380000000  0.4948620000000  0.4591530000000 1.0
C      1  0.5091250000000  0.4422990000000  0.4730480000000 1.0
C      1  0.5217610000000  0.4642790000000  0.5344130000000 1.0
C      1  0.5355200000000  0.4872100000000  0.4199680000000 1.0
C      1  0.4664700000000  0.4824890000000  0.5922330000000 1.0
C      1  0.5636990000000  0.5038760000000  0.5375650000000 1.0
C      1  0.5045190000000  0.4642310000000  0.5071480000000 1.0
C      1  0.5760510000000  0.5093680000000  0.4307970000000 1.0
C      1  0.4900730000000  0.5731930000000  0.5127700000000 1.0
C      1  0.4037940000000  0.5480140000000  0.4586030000000 1.0
C      1  0.5432280000000  0.4386300000000  0.5080450000000 1.0
C      1  0.5234930000000  0.5634030000000  0.4763450000000 1.0
C      1  0.4980820000000  0.4865170000000  0.3891540000000 1.0
C      1  0.5866290000000  0.5302660000000  0.4898110000000 1.0
C      1  0.5454860000000  0.4829960000000  0.5237760000000 1.0
C      1  0.3942360000000  0.5313620000000  0.4795770000000 1.0
C      1  0.4155330000000  0.5047140000000  0.5646740000000 1.0
C      1  0.4719690000000  0.4734510000000  0.3973930000000 1.0
C      1  0.5298820000000  0.6086270000000  0.5086420000000 1.0
C      1  0.4693840000000  0.4324060000000  0.4247770000000 1.0
C      1  0.4328750000000  0.4749130000000  0.4417040000000 1.0
C      1  0.5269530000000  0.5911720000000  0.4371620000000 1.0
C      1  0.5401930000000  0.6011970000000  0.4625840000000 1.0
C      1  0.4224670000000  0.4820170000000  0.4120000000000 1.0
C      1  0.5216860000000  0.4732120000000  0.3985350000000 1.0
C      1  0.5905210000000  0.4280060000000  0.5098740000000 1.0
C      1  0.4466320000000  0.5157640000000  0.4048930000000 1.0
C      1  0.5713310000000  0.4346050000000  0.4617800000000 1.0
C      1  0.5047910000000  0.3996480000000  0.5260000000000 1.0
C      1  0.4072200000000  0.5026200000000  0.4777540000000 1.0
C      1  0.4828210000000  0.5536140000000  0.5863050000000 1.0
C      1  0.4838070000000  0.5717350000000  0.4591020000000 1.0
C      1  0.4104720000000  0.4611700000000  0.5393640000000 1.0
C      1  0.5094580000000  0.4727270000000  0.5596280000000 1.0
C      1  0.5259080000000  0.5380080000000  0.6005240000000 1.0
C      1  0.4590770000000  0.4107550000000  0.5262060000000 1.0
C      1  0.5568000000000  0.3984880000000  0.4931370000000 1.0
C      1  0.5477530000000  0.4559890000000  0.5916500000000 1.0
C      1  0.4639420000000  0.5816860000000  0.5491500000000 1.0
C      1  0.5313400000000  0.5250190000000  0.4047370000000 1.0
C      1  0.5614920000000  0.4790450000000  0.4848120000000 1.0
C      1  0.4844870000000  0.4143310000000  0.5657930000000 1.0
C      1  0.5307060000000  0.3948650000000  0.4798030000000 1.0
C      1  0.4802690000000  0.3989870000000  0.5440440000000 1.0
C      1  0.5167990000000  0.4328940000000  0.4981530000000 1.0
C      1  0.4919980000000  0.4704580000000  0.6004810000000 1.0
C      1  0.5905180000000  0.4873960000000  0.4891050000000 1.0
C      1  0.4112600000000  0.4969360000000  0.5083760000000 1.0
C      1  0.4115380000000  0.4506150000000  0.4675820000000 1.0
C      1  0.5996070000000  0.5207080000000  0.5137350000000 1.0
C      1  0.5279870000000  0.4597030000000  0.4610310000000 1.0
C      1  0.5759650000000  0.5444030000000  0.5610380000000 1.0
C      1  0.5863820000000  0.4843140000000  0.4353980000000 1.0
C      1  0.5889680000000  0.5787640000000  0.4850390000000 1.0
C      1  0.4279050000000  0.4335700000000  0.4492870000000 1.0
C      1  0.5121690000000  0.6139090000000  0.5337800000000 1.0
C      1  0.4206010000000  0.4778550000000  0.5596250000000 1.0
C      1  0.4350340000000  0.4300050000000  0.5603310000000 1.0
C      1  0.4200170000000  0.5337790000000  0.4369880000000 1.0
C      1  0.5384680000000  0.4944290000000  0.4984480000000 1.0
C      1  0.4724030000000  0.5607140000000  0.5317310000000 1.0
C      1  0.5547580000000  0.5292740000000  0.6019170000000 1.0
C      1  0.5050800000000  0.3925000000000  0.4950260000000 1.0
C      1  0.4089040000000  0.5600910000000  0.5252400000000 1.0
C      1  0.5914270000000  0.5700030000000  0.5153720000000 1.0
C      1  0.5040530000000  0.5278220000000  0.4492360000000 1.0
C      1  0.5642380000000  0.5561610000000  0.4266440000000 1.0
C      1  0.5914520000000  0.4942350000000  0.5439720000000 1.0
C      1  0.5552830000000  0.4221330000000  0.4408060000000 1.0
C      1  0.4676630000000  0.4725630000000  0.4737460000000 1.0
C      1  0.5609420000000  0.4617320000000  0.5078890000000 1.0
C      1  0.4935670000000  0.5611970000000  0.4008940000000 1.0
C      1  0.5563870000000  0.3970780000000  0.5220660000000 1.0
C      1  0.3942300000000  0.5167650000000  0.5227220000000 1.0
C      1  0.5071920000000  0.5380460000000  0.5055050000000 1.0
C      1  0.4122010000000  0.5505890000000  0.5524380000000 1.0
C      1  0.5210020000000  0.5936370000000  0.5516220000000 1.0
C      1  0.5594380000000  0.4710480000000  0.4232730000000 1.0
C      1  0.4552170000000  0.5316490000000  0.5023570000000 1.0
C      1  0.4771490000000  0.4300830000000  0.5844040000000 1.0
C      1  0.5692150000000  0.4476190000000  0.5484340000000 1.0
C      1  0.4703690000000  0.4328820000000  0.5116850000000 1.0
C      1  0.4240060000000  0.4486940000000  0.4947970000000 1.0
C      1  0.5938060000000  0.4897830000000  0.4620350000000 1.0
C      1  0.4606580000000  0.5890640000000  0.4591860000000 1.0
C      1  0.5586040000000  0.5270380000000  0.4181910000000 1.0
C      1  0.4455690000000  0.5962540000000  0.5323250000000 1.0
C      1  0.5496050000000  0.4435170000000  0.4216140000000 1.0
C      1  0.4293390000000  0.4171910000000  0.4974290000000 1.0
C      1  0.5779440000000  0.4183920000000  0.4855340000000 1.0
C      1  0.4156870000000  0.4321640000000  0.5422820000000 1.0
C      1  0.5224140000000  0.5533130000000  0.4051060000000 1.0
C      1  0.5163520000000  0.4798090000000  0.4461430000000 1.0
C      1  0.4382960000000  0.5208700000000  0.5727340000000 1.0
C      1  0.3941520000000  0.5408500000000  0.5071860000000 1.0
C      1  0.4251190000000  0.5618630000000  0.4731880000000 1.0
C      1  0.5293020000000  0.4353630000000  0.5847980000000 1.0
C      1  0.6014380000000  0.4842220000000  0.5175020000000 1.0
C      1  0.5172420000000  0.5039530000000  0.4623210000000 1.0
C      1  0.5259830000000  0.4898680000000  0.5740240000000 1.0
C      1  0.5702690000000  0.4617970000000  0.5745850000000 1.0
C      1  0.4835480000000  0.5351800000000  0.3965370000000 1.0
C      1  0.4486340000000  0.4699110000000  0.5684190000000 1.0
C      1  0.4525340000000  0.5797670000000  0.4325890000000 1.0
C      1  0.4742640000000  0.5338950000000  0.5411080000000 1.0
C      1  0.4871420000000  0.5026490000000  0.5071140000000 1.0
C      1  0.4679370000000  0.4976360000000  0.4150070000000 1.0
C      1  0.5418660000000  0.5207080000000  0.4687480000000 1.0
C      1  0.4860470000000  0.3997130000000  0.4542860000000 1.0
C      1  0.5331410000000  0.4064710000000  0.4527320000000 1.0
C      1  0.4420190000000  0.5099510000000  0.5186940000000 1.0
C      1  0.5111110000000  0.5545690000000  0.5815650000000 1.0
C      1  0.5489000000000  0.5300230000000  0.5247490000000 1.0
C      1  0.4408640000000  0.5392150000000  0.4790520000000 1.0
C      1  0.4572180000000  0.4570520000000  0.4967650000000 1.0
C      1  0.4946420000000  0.5132000000000  0.5340370000000 1.0
C      1  0.4742930000000  0.5007250000000  0.4429530000000 1.0
C      1  0.4788110000000  0.5811100000000  0.4177900000000 1.0
C      1  0.4320170000000  0.5161900000000  0.4642960000000 1.0
C      1  0.5700140000000  0.4198570000000  0.5574860000000 1.0
C      1  0.4491510000000  0.4488480000000  0.4396510000000 1.0
C      1  0.5058710000000  0.5175800000000  0.6102780000000 1.0
C      1  0.5237260000000  0.5216030000000  0.5382350000000 1.0
C      1  0.4600110000000  0.5093060000000  0.5941690000000 1.0
C      1  0.4657680000000  0.4741370000000  0.5421520000000 1.0
C      1  0.4511380000000  0.5990390000000  0.4840390000000 1.0
C      1  0.5074380000000  0.4204040000000  0.4526380000000 1.0
C      1  0.4617410000000  0.6084200000000  0.5114330000000 1.0
C      1  0.4503070000000  0.4417120000000  0.5780120000000 1.0
C      1  0.4104630000000  0.4684240000000  0.5133230000000 1.0
END
