TITL C-2441154-10-330 0.217735012654472 125000 -20682.705068505 0 0 172 (C1) n - 1
REM
REM in /home/bkarasulu/work/CARBON/AIRSS/Generating-Clusters/ReaxFF-fromJPCA2015/Units_Real/with-SteepDescent/Higher-Symm
REM
REM
REM
REM
REM
REM ./C.cell (1df0a924f5614ab8850e4351716899ee)
REM
REM compiler GCC version 9.2.1 20190827 (Red Hat 9.2.1-1)
REM options -cpp -mtune=generic -march=x86-64 -g -O0 -fpre-include=/usr/include/finclude/math-vector-fortran.h
REM seed 1843910701 918619675 1999815276 -1530604486 2029559088 -327759334 1677597759 -401240905 -1866590721 233406774 -533115548 770472715 1437459563 -1337054284 -959630092 -1995575889 -612064031 -50588278 -686582072 2093029914 611373329 301670619 -1190686669 1433149880 -812534348 1886403067 1217079768 1981506356 1950618693 -1061935238 1903242805 -932360418 454416312
REM
CELL 1.54180   50.00000   50.00000   50.00000   90.00000   90.00000   90.00000
LATT -1
SFAC C  
C      1  0.4188630000000  0.5511030000000  0.4714230000000 1.0
C      1  0.4697140000000  0.5492120000000  0.4187820000000 1.0
C      1  0.5406240000000  0.5494930000000  0.4281850000000 1.0
C      1  0.5754060000000  0.5444230000000  0.4855600000000 1.0
C      1  0.5594300000000  0.5496690000000  0.5577840000000 1.0
C      1  0.5015880000000  0.5403830000000  0.5757320000000 1.0
C      1  0.4385450000000  0.5450310000000  0.5429880000000 1.0
C      1  0.4703650000000  0.4808500000000  0.5919210000000 1.0
C      1  0.4094010000000  0.4849850000000  0.5414920000000 1.0
C      1  0.4127250000000  0.4790900000000  0.4616120000000 1.0
C      1  0.4716670000000  0.4772950000000  0.4042390000000 1.0
C      1  0.5588200000000  0.4880090000000  0.4125070000000 1.0
C      1  0.5977740000000  0.4820140000000  0.4990810000000 1.0
C      1  0.5611890000000  0.4844690000000  0.5768770000000 1.0
C      1  0.5351290000000  0.5092860000000  0.5173970000000 1.0
C      1  0.5082200000000  0.5096130000000  0.5383240000000 1.0
C      1  0.4784340000000  0.5075680000000  0.5351690000000 1.0
C      1  0.4511990000000  0.5152840000000  0.4908780000000 1.0
C      1  0.4873850000000  0.5156080000000  0.4651680000000 1.0
C      1  0.5281480000000  0.5190980000000  0.4658190000000 1.0
C      1  0.5294750000000  0.5007260000000  0.4886470000000 1.0
C      1  0.5305880000000  0.4194500000000  0.5112580000000 1.0
C      1  0.5103840000000  0.4175540000000  0.5318270000000 1.0
C      1  0.4817080000000  0.4188320000000  0.5276720000000 1.0
C      1  0.4668120000000  0.4199870000000  0.5018500000000 1.0
C      1  0.4760680000000  0.4215310000000  0.4738880000000 1.0
C      1  0.5043760000000  0.4211600000000  0.4648780000000 1.0
C      1  0.5273650000000  0.4205010000000  0.4828690000000 1.0
C      1  0.4553350000000  0.5346540000000  0.5098300000000 1.0
C      1  0.4626280000000  0.5294350000000  0.4687420000000 1.0
C      1  0.5063970000000  0.5307270000000  0.4512720000000 1.0
C      1  0.5420040000000  0.5400340000000  0.4801490000000 1.0
C      1  0.5400460000000  0.5353500000000  0.5080500000000 1.0
C      1  0.5101380000000  0.5351510000000  0.5507190000000 1.0
C      1  0.4632720000000  0.5306470000000  0.5344040000000 1.0
C      1  0.5141970000000  0.4783670000000  0.4428250000000 1.0
C      1  0.5501720000000  0.4767480000000  0.4750830000000 1.0
C      1  0.5515260000000  0.4851470000000  0.5255000000000 1.0
C      1  0.5124050000000  0.4815140000000  0.5564300000000 1.0
C      1  0.4685490000000  0.4826940000000  0.5444210000000 1.0
C      1  0.4440790000000  0.4884930000000  0.5011860000000 1.0
C      1  0.4635800000000  0.4785440000000  0.4581950000000 1.0
C      1  0.4293730000000  0.4366520000000  0.4599570000000 1.0
C      1  0.4888800000000  0.4367460000000  0.4195340000000 1.0
C      1  0.5519050000000  0.4314560000000  0.4460110000000 1.0
C      1  0.5797880000000  0.4355560000000  0.5058230000000 1.0
C      1  0.5451450000000  0.4351690000000  0.5643440000000 1.0
C      1  0.4778380000000  0.4328930000000  0.5764480000000 1.0
C      1  0.4291430000000  0.4334080000000  0.5286410000000 1.0
C      1  0.5954070000000  0.4591050000000  0.5169200000000 1.0
C      1  0.5581320000000  0.4561760000000  0.5805600000000 1.0
C      1  0.4791050000000  0.4522380000000  0.5988410000000 1.0
C      1  0.3974860000000  0.4662100000000  0.5257050000000 1.0
C      1  0.4187860000000  0.4588450000000  0.4433980000000 1.0
C      1  0.4923410000000  0.4583510000000  0.4009020000000 1.0
C      1  0.5665890000000  0.4643230000000  0.4247110000000 1.0
C      1  0.4624050000000  0.5586310000000  0.5739270000000 1.0
C      1  0.4210250000000  0.5539250000000  0.5172970000000 1.0
C      1  0.4345860000000  0.5542790000000  0.4471590000000 1.0
C      1  0.4983870000000  0.5523470000000  0.4136810000000 1.0
C      1  0.5637730000000  0.5524010000000  0.4452830000000 1.0
C      1  0.5762550000000  0.5622010000000  0.5108290000000 1.0
C      1  0.5387060000000  0.5535280000000  0.5781030000000 1.0
C      1  0.4699400000000  0.6014010000000  0.5148460000000 1.0
C      1  0.4678900000000  0.6012380000000  0.4851970000000 1.0
C      1  0.4901450000000  0.6011590000000  0.4658470000000 1.0
C      1  0.5195900000000  0.6039680000000  0.4703400000000 1.0
C      1  0.5373030000000  0.5993540000000  0.4952060000000 1.0
C      1  0.5262860000000  0.6021200000000  0.5230970000000 1.0
C      1  0.4964840000000  0.6025610000000  0.5282050000000 1.0
C      1  0.5044260000000  0.3895660000000  0.4663540000000 1.0
C      1  0.5278170000000  0.3893030000000  0.4828580000000 1.0
C      1  0.5306630000000  0.3888860000000  0.5113410000000 1.0
C      1  0.5098110000000  0.3870840000000  0.5311220000000 1.0
C      1  0.4814310000000  0.3885390000000  0.5265650000000 1.0
C      1  0.4669980000000  0.3890490000000  0.5015810000000 1.0
C      1  0.4774010000000  0.3893660000000  0.4750180000000 1.0
C      1  0.4976030000000  0.5578150000000  0.4571290000000 1.0
C      1  0.5238910000000  0.5640480000000  0.4712360000000 1.0
C      1  0.5288330000000  0.5589710000000  0.5157980000000 1.0
C      1  0.5167580000000  0.5619570000000  0.5398670000000 1.0
C      1  0.4926080000000  0.5781110000000  0.5421720000000 1.0
C      1  0.4663610000000  0.5585980000000  0.5052290000000 1.0
C      1  0.4665010000000  0.5575560000000  0.4746790000000 1.0
C      1  0.5058950000000  0.4631010000000  0.4683820000000 1.0
C      1  0.5278730000000  0.4608300000000  0.4860230000000 1.0
C      1  0.5331140000000  0.4635930000000  0.5139580000000 1.0
C      1  0.5098440000000  0.4610400000000  0.5334540000000 1.0
C      1  0.4797440000000  0.4612570000000  0.5283150000000 1.0
C      1  0.4648640000000  0.4657990000000  0.5031740000000 1.0
C      1  0.4789540000000  0.4669740000000  0.4779380000000 1.0
C      1  0.4435350000000  0.4378660000000  0.5050700000000 1.0
C      1  0.4566840000000  0.4319440000000  0.4550750000000 1.0
C      1  0.5088730000000  0.4343800000000  0.4394170000000 1.0
C      1  0.5516350000000  0.4298840000000  0.4699950000000 1.0
C      1  0.5537100000000  0.4368650000000  0.5186180000000 1.0
C      1  0.5187420000000  0.4356040000000  0.5536020000000 1.0
C      1  0.4701890000000  0.4352050000000  0.5487480000000 1.0
C      1  0.4811280000000  0.5092400000000  0.4213460000000 1.0
C      1  0.5544580000000  0.5095960000000  0.4289360000000 1.0
C      1  0.5900660000000  0.5089380000000  0.5005660000000 1.0
C      1  0.5514120000000  0.5091540000000  0.5653220000000 1.0
C      1  0.4779350000000  0.5096510000000  0.5883010000000 1.0
C      1  0.4255280000000  0.5057780000000  0.5322090000000 1.0
C      1  0.4165450000000  0.5083540000000  0.4588210000000 1.0
C      1  0.5909240000000  0.5214370000000  0.4772370000000 1.0
C      1  0.5746140000000  0.5249940000000  0.5598230000000 1.0
C      1  0.5000180000000  0.5212610000000  0.5953450000000 1.0
C      1  0.4259400000000  0.5216280000000  0.5565290000000 1.0
C      1  0.4056000000000  0.5250690000000  0.4760110000000 1.0
C      1  0.4593520000000  0.5220850000000  0.4129200000000 1.0
C      1  0.5399500000000  0.5234700000000  0.4151460000000 1.0
C      1  0.5657310000000  0.4332140000000  0.5444880000000 1.0
C      1  0.5063020000000  0.4305270000000  0.5780370000000 1.0
C      1  0.4434940000000  0.4314210000000  0.5550160000000 1.0
C      1  0.4205240000000  0.4366540000000  0.4879150000000 1.0
C      1  0.4621220000000  0.4348150000000  0.4278220000000 1.0
C      1  0.5345430000000  0.4324420000000  0.4251680000000 1.0
C      1  0.5778940000000  0.4320420000000  0.4764970000000 1.0
C      1  0.3986370000000  0.5085420000000  0.4982590000000 1.0
C      1  0.4384230000000  0.5046350000000  0.4220580000000 1.0
C      1  0.5217360000000  0.5055390000000  0.4024900000000 1.0
C      1  0.5883520000000  0.5048090000000  0.4541760000000 1.0
C      1  0.5876750000000  0.5077170000000  0.5413110000000 1.0
C      1  0.5227640000000  0.5038550000000  0.5973820000000 1.0
C      1  0.4377860000000  0.5080230000000  0.5781120000000 1.0
C      1  0.5395410000000  0.5854410000000  0.5422980000000 1.0
C      1  0.4857550000000  0.5758520000000  0.5696480000000 1.0
C      1  0.4529400000000  0.5805420000000  0.5260120000000 1.0
C      1  0.4478300000000  0.5811130000000  0.4762880000000 1.0
C      1  0.4840330000000  0.5812690000000  0.4444910000000 1.0
C      1  0.5289610000000  0.5858230000000  0.4499940000000 1.0
C      1  0.5618570000000  0.5819580000000  0.4929490000000 1.0
C      1  0.4119100000000  0.5260570000000  0.5164110000000 1.0
C      1  0.4303770000000  0.5241780000000  0.4410100000000 1.0
C      1  0.5010380000000  0.5237690000000  0.4077610000000 1.0
C      1  0.5713910000000  0.5245070000000  0.4426280000000 1.0
C      1  0.5841460000000  0.5254520000000  0.5211860000000 1.0
C      1  0.5380670000000  0.5250330000000  0.5842820000000 1.0
C      1  0.4591430000000  0.5284520000000  0.5790800000000 1.0
C      1  0.5173940000000  0.4741870000000  0.4071600000000 1.0
C      1  0.5866450000000  0.4763970000000  0.4455480000000 1.0
C      1  0.5847130000000  0.4760700000000  0.5395510000000 1.0
C      1  0.5233010000000  0.4758360000000  0.5895540000000 1.0
C      1  0.4411980000000  0.4788800000000  0.5813210000000 1.0
C      1  0.3956230000000  0.4789950000000  0.5006720000000 1.0
C      1  0.4336810000000  0.4747150000000  0.4238300000000 1.0
C      1  0.5403850000000  0.4555950000000  0.4075430000000 1.0
C      1  0.5907350000000  0.4553950000000  0.4646230000000 1.0
C      1  0.5810820000000  0.4540010000000  0.5594710000000 1.0
C      1  0.5083540000000  0.4526260000000  0.5979350000000 1.0
C      1  0.4328410000000  0.4557170000000  0.5675700000000 1.0
C      1  0.4022210000000  0.4592910000000  0.4808380000000 1.0
C      1  0.4524260000000  0.4568580000000  0.4109400000000 1.0
C      1  0.5794470000000  0.4710460000000  0.4834590000000 1.0
C      1  0.5451170000000  0.4845020000000  0.5531900000000 1.0
C      1  0.4850190000000  0.4775500000000  0.5663480000000 1.0
C      1  0.4245610000000  0.4617720000000  0.5379000000000 1.0
C      1  0.4394900000000  0.4795870000000  0.4737580000000 1.0
C      1  0.4804270000000  0.4833790000000  0.4333570000000 1.0
C      1  0.5418730000000  0.4735830000000  0.4462350000000 1.0
C      1  0.5120580000000  0.5669400000000  0.5809130000000 1.0
C      1  0.4475950000000  0.5712890000000  0.5529420000000 1.0
C      1  0.4247570000000  0.5693930000000  0.4928140000000 1.0
C      1  0.4577110000000  0.5691000000000  0.4354770000000 1.0
C      1  0.5198370000000  0.5700390000000  0.4256990000000 1.0
C      1  0.5722350000000  0.5688780000000  0.4688160000000 1.0
C      1  0.5631710000000  0.5695530000000  0.5374200000000 1.0
C      1  0.4925700000000  0.5486040000000  0.5061520000000 1.0
C      1  0.4945300000000  0.5210850000000  0.4948140000000 1.0
C      1  0.5012430000000  0.4932200000000  0.5002130000000 1.0
C      1  0.5100180000000  0.5694000000000  0.4968940000000 1.0
END
