TITL C-2441160-1326-1211 8.3927313497359e-08 125000 -4820.62192565428 0 0 35 (D5) n - 1
REM
REM in /home/bkarasulu/work/CARBON/AIRSS/Generating-Clusters/ReaxFF-fromJPCA2015/Units_Real/with-SteepDescent/Higher-Symm
REM
REM
REM
REM
REM
REM ./C.cell (1df0a924f5614ab8850e4351716899ee)
REM
REM compiler GCC version 9.2.1 20190827 (Red Hat 9.2.1-1)
REM options -cpp -mtune=generic -march=x86-64 -g -O0 -fpre-include=/usr/include/finclude/math-vector-fortran.h
REM seed -1638327742 -905269453 2130869082 173478855 1275038408 1400489731 -1940282841 1222862755 -1264981087 -159672957 261983311 -750441164 228156754 1359169481 -641763339 -2146310412 -1776383181 927937099 -742995988 -2131784895 -91904840 1062925311 -229575664 905021921 252512537 1811110387 442935031 -538375944 -1764789410 -677291623 -1675961978 -1132859438 -1076653914
REM
CELL 1.54180   50.00000   50.00000   50.00000   90.00000   90.00000   90.00000
LATT -1
SFAC C  
C      1  0.5294840000000  0.4894910000000  0.5624180000000 1.0
C      1  0.5684740000000  0.4894920000000  0.4912470000000 1.0
C      1  0.5128360000000  0.4894920000000  0.4321730000000 1.0
C      1  0.4394590000000  0.4894920000000  0.4668330000000 1.0
C      1  0.4497480000000  0.4894910000000  0.5473290000000 1.0
C      1  0.5294830000000  0.5126500000000  0.4375820000000 1.0
C      1  0.5684740000000  0.5126490000000  0.5087520000000 1.0
C      1  0.5128360000000  0.5126490000000  0.5678270000000 1.0
C      1  0.4394590000000  0.5126490000000  0.5331680000000 1.0
C      1  0.4497470000000  0.5126500000000  0.4526720000000 1.0
C      1  0.4587810000000  0.5368990000000  0.5232670000000 1.0
C      1  0.5093900000000  0.5368990000000  0.5463910000000 1.0
C      1  0.5470220000000  0.5368990000000  0.5054050000000 1.0
C      1  0.5196710000000  0.5369000000000  0.4569500000000 1.0
C      1  0.4651350000000  0.5369000000000  0.4679890000000 1.0
C      1  0.4587810000000  0.4652420000000  0.4767340000000 1.0
C      1  0.5093900000000  0.4652420000000  0.4536090000000 1.0
C      1  0.5470220000000  0.4652420000000  0.4945940000000 1.0
C      1  0.5196710000000  0.4652410000000  0.5430500000000 1.0
C      1  0.4651350000000  0.4652420000000  0.5320120000000 1.0
C      1  0.5312580000000  0.4632490000000  0.5176520000000 1.0
C      1  0.5264470000000  0.4632500000000  0.4757260000000 1.0
C      1  0.4850870000000  0.4632500000000  0.4673460000000 1.0
C      1  0.4643360000000  0.4632490000000  0.5040920000000 1.0
C      1  0.4928710000000  0.4632490000000  0.5351820000000 1.0
C      1  0.5312580000000  0.5388920000000  0.4823480000000 1.0
C      1  0.5264480000000  0.5388910000000  0.5242730000000 1.0
C      1  0.4850880000000  0.5388910000000  0.5326540000000 1.0
C      1  0.4643360000000  0.5388920000000  0.4959090000000 1.0
C      1  0.4928710000000  0.5388920000000  0.4648180000000 1.0
C      1  0.5283500000000  0.5010710000000  0.4127470000000 1.0
C      1  0.5283510000000  0.5010690000000  0.5872530000000 1.0
C      1  0.4257780000000  0.5010710000000  0.4460750000000 1.0
C      1  0.4257790000000  0.5010700000000  0.5539260000000 1.0
C      1  0.5917430000000  0.5010700000000  0.5000000000000 1.0
END
