TITL C-2441167-4473-939 0.0920528571784339 125000 -22826.729365111 0 0 162 (C1) n - 1
REM
REM in /home/bkarasulu/work/CARBON/AIRSS/Generating-Clusters/ReaxFF-fromJPCA2015/Units_Real/with-SteepDescent/Higher-Symm
REM
REM
REM
REM
REM
REM ./C.cell (1df0a924f5614ab8850e4351716899ee)
REM
REM compiler GCC version 9.2.1 20190827 (Red Hat 9.2.1-1)
REM options -cpp -mtune=generic -march=x86-64 -g -O0 -fpre-include=/usr/include/finclude/math-vector-fortran.h
REM seed 1226482680 -544963167 -1436643278 -898728154 -1414852781 1183003114 1947825203 -882215115 1441128319 534674394 509533254 297057146 -2002101781 -15514082 -842198069 -2046673639 -573125156 1531513249 350463955 2129008062 634000523 566210013 459431372 -1641529510 1300934489 1418874539 -1374582134 -1124980597 397268744 1274418298 -1217720764 -881053052 -1305481619
REM
CELL 1.54180   50.00000   50.00000   50.00000   90.00000   90.00000   90.00000
LATT -1
SFAC C  
C      1  0.4231630000000  0.5674520000000  0.5155140000000 1.0
C      1  0.4417380000000  0.5669610000000  0.4480670000000 1.0
C      1  0.5002140000000  0.5677890000000  0.4223830000000 1.0
C      1  0.5622760000000  0.5658520000000  0.4520820000000 1.0
C      1  0.5783950000000  0.5673420000000  0.5193470000000 1.0
C      1  0.5323890000000  0.5674040000000  0.5721610000000 1.0
C      1  0.4640550000000  0.5677590000000  0.5697750000000 1.0
C      1  0.4686640000000  0.5061790000000  0.6025220000000 1.0
C      1  0.3977980000000  0.5090400000000  0.5420170000000 1.0
C      1  0.4052830000000  0.5085790000000  0.4470880000000 1.0
C      1  0.4839070000000  0.5085870000000  0.3881800000000 1.0
C      1  0.5744280000000  0.5064540000000  0.4196410000000 1.0
C      1  0.6084860000000  0.5069350000000  0.5069270000000 1.0
C      1  0.5631250000000  0.5087860000000  0.5892720000000 1.0
C      1  0.4667520000000  0.4042150000000  0.5171890000000 1.0
C      1  0.4665900000000  0.4081770000000  0.4875520000000 1.0
C      1  0.4912970000000  0.4124410000000  0.4720650000000 1.0
C      1  0.5198300000000  0.4076030000000  0.4713840000000 1.0
C      1  0.5323110000000  0.4104960000000  0.4982990000000 1.0
C      1  0.5204630000000  0.4099510000000  0.5257970000000 1.0
C      1  0.4911740000000  0.4102620000000  0.5311740000000 1.0
C      1  0.5933890000000  0.5453840000000  0.4771890000000 1.0
C      1  0.5759010000000  0.5458860000000  0.5590540000000 1.0
C      1  0.5005910000000  0.5428770000000  0.5913120000000 1.0
C      1  0.4287110000000  0.5436320000000  0.5569120000000 1.0
C      1  0.4085980000000  0.5455600000000  0.4795220000000 1.0
C      1  0.4620630000000  0.5398700000000  0.4209530000000 1.0
C      1  0.5381090000000  0.5437690000000  0.4185920000000 1.0
C      1  0.4731970000000  0.4584130000000  0.5537460000000 1.0
C      1  0.4385990000000  0.4455360000000  0.5075180000000 1.0
C      1  0.4521640000000  0.4527840000000  0.4601800000000 1.0
C      1  0.5093670000000  0.4433560000000  0.4363230000000 1.0
C      1  0.5550650000000  0.4486620000000  0.4691110000000 1.0
C      1  0.5597860000000  0.4484080000000  0.5193440000000 1.0
C      1  0.5231770000000  0.4426920000000  0.5620570000000 1.0
C      1  0.5148940000000  0.5289540000000  0.5296240000000 1.0
C      1  0.4863980000000  0.5329710000000  0.5380800000000 1.0
C      1  0.4643810000000  0.5349270000000  0.5135440000000 1.0
C      1  0.4713300000000  0.5311320000000  0.4841660000000 1.0
C      1  0.4951670000000  0.5365120000000  0.4675380000000 1.0
C      1  0.5233900000000  0.5367350000000  0.4757060000000 1.0
C      1  0.5313620000000  0.5370560000000  0.5046030000000 1.0
C      1  0.5057050000000  0.5809930000000  0.5310530000000 1.0
C      1  0.4784850000000  0.5840490000000  0.5235190000000 1.0
C      1  0.4674670000000  0.5838160000000  0.4969200000000 1.0
C      1  0.4824120000000  0.5838440000000  0.4726610000000 1.0
C      1  0.5108640000000  0.5850000000000  0.4690010000000 1.0
C      1  0.5322280000000  0.5835590000000  0.4877920000000 1.0
C      1  0.5287060000000  0.5724080000000  0.5144180000000 1.0
C      1  0.5468630000000  0.5161800000000  0.4145690000000 1.0
C      1  0.6046410000000  0.5189750000000  0.4810790000000 1.0
C      1  0.5796430000000  0.5194580000000  0.5692520000000 1.0
C      1  0.4953030000000  0.5176590000000  0.6034650000000 1.0
C      1  0.4151260000000  0.5197680000000  0.5608000000000 1.0
C      1  0.4001800000000  0.5196320000000  0.4720210000000 1.0
C      1  0.4642160000000  0.5136410000000  0.4098620000000 1.0
C      1  0.5579860000000  0.5190740000000  0.5057950000000 1.0
C      1  0.5287720000000  0.5110770000000  0.5450420000000 1.0
C      1  0.4791420000000  0.5075250000000  0.5513530000000 1.0
C      1  0.4465550000000  0.5111110000000  0.5132260000000 1.0
C      1  0.4574940000000  0.5092410000000  0.4676840000000 1.0
C      1  0.5028090000000  0.5071720000000  0.4427870000000 1.0
C      1  0.5432150000000  0.5117590000000  0.4655360000000 1.0
C      1  0.4026300000000  0.5491170000000  0.5073870000000 1.0
C      1  0.4363010000000  0.5470480000000  0.4285660000000 1.0
C      1  0.5144790000000  0.5489540000000  0.4045810000000 1.0
C      1  0.5847810000000  0.5482500000000  0.4500590000000 1.0
C      1  0.5924240000000  0.5487270000000  0.5358550000000 1.0
C      1  0.5280940000000  0.5484350000000  0.5924720000000 1.0
C      1  0.4449730000000  0.5486400000000  0.5797400000000 1.0
C      1  0.5535540000000  0.5752350000000  0.5305280000000 1.0
C      1  0.5089520000000  0.5749680000000  0.5586390000000 1.0
C      1  0.4587560000000  0.5774080000000  0.5435430000000 1.0
C      1  0.4390680000000  0.5779140000000  0.4944440000000 1.0
C      1  0.4690690000000  0.5754470000000  0.4481070000000 1.0
C      1  0.5182880000000  0.5766750000000  0.4428570000000 1.0
C      1  0.5584990000000  0.5777450000000  0.4774650000000 1.0
C      1  0.4821530000000  0.4955440000000  0.4261590000000 1.0
C      1  0.5322230000000  0.5008320000000  0.4389040000000 1.0
C      1  0.5641970000000  0.5015550000000  0.4849510000000 1.0
C      1  0.5434040000000  0.4920290000000  0.5538750000000 1.0
C      1  0.4874640000000  0.4826440000000  0.5641100000000 1.0
C      1  0.4339380000000  0.4935340000000  0.5321310000000 1.0
C      1  0.4399210000000  0.4857990000000  0.4664610000000 1.0
C      1  0.4375710000000  0.4791550000000  0.5803770000000 1.0
C      1  0.3993730000000  0.4795060000000  0.5026140000000 1.0
C      1  0.4305770000000  0.4787530000000  0.4208740000000 1.0
C      1  0.5231480000000  0.4781940000000  0.4006430000000 1.0
C      1  0.5903080000000  0.4795420000000  0.4520090000000 1.0
C      1  0.5929160000000  0.4795900000000  0.5420260000000 1.0
C      1  0.5271970000000  0.4805520000000  0.5983810000000 1.0
C      1  0.5557400000000  0.4252480000000  0.5365950000000 1.0
C      1  0.5021160000000  0.4255680000000  0.5767040000000 1.0
C      1  0.4504370000000  0.4172460000000  0.5401420000000 1.0
C      1  0.4399720000000  0.4212130000000  0.4878640000000 1.0
C      1  0.4594510000000  0.4418780000000  0.4347890000000 1.0
C      1  0.5280590000000  0.4221600000000  0.4457920000000 1.0
C      1  0.5677920000000  0.4237130000000  0.4828420000000 1.0
C      1  0.5290470000000  0.5051250000000  0.3935640000000 1.0
C      1  0.6016340000000  0.5052380000000  0.4557510000000 1.0
C      1  0.5968160000000  0.5055580000000  0.5516560000000 1.0
C      1  0.5208830000000  0.5059100000000  0.6076330000000 1.0
C      1  0.4275260000000  0.5058520000000  0.5815220000000 1.0
C      1  0.3915510000000  0.5061820000000  0.4954190000000 1.0
C      1  0.4339810000000  0.5047490000000  0.4113490000000 1.0
C      1  0.5419000000000  0.5241110000000  0.6011130000000 1.0
C      1  0.4468720000000  0.5229130000000  0.5937940000000 1.0
C      1  0.3923940000000  0.5238680000000  0.5177420000000 1.0
C      1  0.4186840000000  0.5233490000000  0.4264050000000 1.0
C      1  0.5080470000000  0.5243270000000  0.3895930000000 1.0
C      1  0.5901980000000  0.5229500000000  0.4364150000000 1.0
C      1  0.6051030000000  0.5228740000000  0.5307530000000 1.0
C      1  0.4738490000000  0.4504840000000  0.4789560000000 1.0
C      1  0.4987970000000  0.4421360000000  0.4677990000000 1.0
C      1  0.5230220000000  0.4526780000000  0.4828680000000 1.0
C      1  0.5343960000000  0.4401080000000  0.5062660000000 1.0
C      1  0.5171860000000  0.4402570000000  0.5303060000000 1.0
C      1  0.4866460000000  0.4420690000000  0.5288520000000 1.0
C      1  0.4684310000000  0.4501580000000  0.5060440000000 1.0
C      1  0.4926260000000  0.4825910000000  0.3993660000000 1.0
C      1  0.5760370000000  0.4790850000000  0.4271510000000 1.0
C      1  0.6041130000000  0.4793680000000  0.5149050000000 1.0
C      1  0.5535040000000  0.4812990000000  0.5852850000000 1.0
C      1  0.4612580000000  0.4782970000000  0.5978470000000 1.0
C      1  0.4066880000000  0.4818270000000  0.5326990000000 1.0
C      1  0.4150220000000  0.4809610000000  0.4464270000000 1.0
C      1  0.5815870000000  0.4358600000000  0.5071290000000 1.0
C      1  0.5527130000000  0.4354970000000  0.5627740000000 1.0
C      1  0.4750460000000  0.4374170000000  0.5761200000000 1.0
C      1  0.4283860000000  0.4360220000000  0.5357310000000 1.0
C      1  0.4274720000000  0.4362260000000  0.4666630000000 1.0
C      1  0.4847880000000  0.4380920000000  0.4203010000000 1.0
C      1  0.5517400000000  0.4383120000000  0.4416000000000 1.0
C      1  0.4086610000000  0.4581330000000  0.4684570000000 1.0
C      1  0.4757460000000  0.4585980000000  0.4014290000000 1.0
C      1  0.5538240000000  0.4605360000000  0.4219230000000 1.0
C      1  0.5941030000000  0.4598960000000  0.4968380000000 1.0
C      1  0.5671150000000  0.4607950000000  0.5675530000000 1.0
C      1  0.4812610000000  0.4569430000000  0.5967690000000 1.0
C      1  0.4181890000000  0.4590250000000  0.5502750000000 1.0
C      1  0.5063820000000  0.4807790000000  0.5248100000000 1.0
C      1  0.4821750000000  0.4923400000000  0.5261610000000 1.0
C      1  0.4678150000000  0.4933800000000  0.5043620000000 1.0
C      1  0.4773580000000  0.4913300000000  0.4793700000000 1.0
C      1  0.5020460000000  0.4928770000000  0.4685720000000 1.0
C      1  0.5250250000000  0.4973120000000  0.4815750000000 1.0
C      1  0.5274620000000  0.4886890000000  0.5076950000000 1.0
C      1  0.5648080000000  0.4732310000000  0.5416860000000 1.0
C      1  0.5065840000000  0.4682170000000  0.5817620000000 1.0
C      1  0.4425830000000  0.4733230000000  0.5518950000000 1.0
C      1  0.4223350000000  0.4697990000000  0.4902570000000 1.0
C      1  0.4543070000000  0.4639090000000  0.4193390000000 1.0
C      1  0.5286800000000  0.4713600000000  0.4274360000000 1.0
C      1  0.5771520000000  0.4721360000000  0.4765320000000 1.0
C      1  0.4820000000000  0.5514380000000  0.4377990000000 1.0
C      1  0.5377550000000  0.5561070000000  0.4439350000000 1.0
C      1  0.5787370000000  0.5645370000000  0.4924370000000 1.0
C      1  0.5541550000000  0.5639650000000  0.5565380000000 1.0
C      1  0.4893170000000  0.5549060000000  0.5665760000000 1.0
C      1  0.4414340000000  0.5562230000000  0.5332910000000 1.0
C      1  0.4289520000000  0.5640710000000  0.4718260000000 1.0
C      1  0.5086270000000  0.4685740000000  0.5014630000000 1.0
END
