TITL C-2441167-4473-1305 0.0484181626664623 125000 -18425.2163172025 0 0 133 (C1) n - 1
REM
REM in /home/bkarasulu/work/CARBON/AIRSS/Generating-Clusters/ReaxFF-fromJPCA2015/Units_Real/with-SteepDescent/Higher-Symm
REM
REM
REM
REM
REM
REM ./C.cell (1df0a924f5614ab8850e4351716899ee)
REM
REM compiler GCC version 9.2.1 20190827 (Red Hat 9.2.1-1)
REM options -cpp -mtune=generic -march=x86-64 -g -O0 -fpre-include=/usr/include/finclude/math-vector-fortran.h
REM seed 29853395 -1969148896 -1608159245 -464242768 -519502551 -1193344501 -1695729106 1661823169 -1742962549 -124908063 -553501226 137762385 -334886508 798119105 381600701 -108133133 1803903600 -1605500589 -1386884643 -986627040 -1410329493 -86586610 -137706545 591462769 10310698 -1530136040 -1021962888 1705417230 665697667 -667840877 2099987131 -1970570815 272338670
REM
CELL 1.54180   50.00000   50.00000   50.00000   90.00000   90.00000   90.00000
LATT -1
SFAC C  
C      1  0.4945930000000  0.5568560000000  0.5673140000000 1.0
C      1  0.4964860000000  0.4701560000000  0.5700040000000 1.0
C      1  0.4996170000000  0.4148710000000  0.4849780000000 1.0
C      1  0.4983560000000  0.4809350000000  0.4049270000000 1.0
C      1  0.4992090000000  0.5790950000000  0.4593220000000 1.0
C      1  0.4982400000000  0.5119310000000  0.5954180000000 1.0
C      1  0.5057680000000  0.4132230000000  0.5343440000000 1.0
C      1  0.5017220000000  0.4334310000000  0.4362730000000 1.0
C      1  0.5070750000000  0.5411760000000  0.4239450000000 1.0
C      1  0.4995330000000  0.5880870000000  0.5274350000000 1.0
C      1  0.4654730000000  0.4578420000000  0.5086620000000 1.0
C      1  0.4724100000000  0.4780020000000  0.4588820000000 1.0
C      1  0.4708240000000  0.5292310000000  0.4616730000000 1.0
C      1  0.4534010000000  0.5312620000000  0.5070620000000 1.0
C      1  0.4479580000000  0.4991560000000  0.5335300000000 1.0
C      1  0.4942900000000  0.4244460000000  0.5587930000000 1.0
C      1  0.5183530000000  0.4151360000000  0.4476850000000 1.0
C      1  0.5077030000000  0.5208420000000  0.4048580000000 1.0
C      1  0.5247700000000  0.6006140000000  0.4959280000000 1.0
C      1  0.5200630000000  0.5307750000000  0.5961730000000 1.0
C      1  0.5256840000000  0.5287380000000  0.5287730000000 1.0
C      1  0.5352410000000  0.4869700000000  0.5284570000000 1.0
C      1  0.5413410000000  0.4585910000000  0.4920960000000 1.0
C      1  0.5201230000000  0.4852290000000  0.4529340000000 1.0
C      1  0.5357180000000  0.5272130000000  0.4871750000000 1.0
C      1  0.4895130000000  0.5047290000000  0.4182900000000 1.0
C      1  0.4984280000000  0.5618360000000  0.4827790000000 1.0
C      1  0.4855670000000  0.5316540000000  0.5546940000000 1.0
C      1  0.4849610000000  0.4733310000000  0.5433600000000 1.0
C      1  0.4968680000000  0.4439190000000  0.4830430000000 1.0
C      1  0.4233580000000  0.4446810000000  0.4853050000000 1.0
C      1  0.4232300000000  0.4999270000000  0.4374950000000 1.0
C      1  0.4214200000000  0.5600690000000  0.4870950000000 1.0
C      1  0.4222380000000  0.5456130000000  0.5457080000000 1.0
C      1  0.4321360000000  0.4539550000000  0.5474730000000 1.0
C      1  0.4376270000000  0.5639890000000  0.5591100000000 1.0
C      1  0.4467720000000  0.4627170000000  0.5844620000000 1.0
C      1  0.4391950000000  0.4199970000000  0.4933680000000 1.0
C      1  0.4402530000000  0.4847010000000  0.4208200000000 1.0
C      1  0.4384030000000  0.5674880000000  0.4643520000000 1.0
C      1  0.4572370000000  0.5815900000000  0.5122740000000 1.0
C      1  0.4490000000000  0.5146990000000  0.5795990000000 1.0
C      1  0.4661510000000  0.4268350000000  0.5508610000000 1.0
C      1  0.4547510000000  0.4403060000000  0.4457790000000 1.0
C      1  0.4525300000000  0.5356240000000  0.4245530000000 1.0
C      1  0.5707750000000  0.4590420000000  0.4963040000000 1.0
C      1  0.5822300000000  0.4857110000000  0.4530410000000 1.0
C      1  0.5835380000000  0.5391910000000  0.4715990000000 1.0
C      1  0.5825310000000  0.5367300000000  0.5268750000000 1.0
C      1  0.5843560000000  0.4863770000000  0.5510510000000 1.0
C      1  0.4379800000000  0.5832530000000  0.4896510000000 1.0
C      1  0.4305570000000  0.5354380000000  0.5714800000000 1.0
C      1  0.4445000000000  0.4390960000000  0.5694950000000 1.0
C      1  0.4358370000000  0.4283450000000  0.4643060000000 1.0
C      1  0.4352670000000  0.5135890000000  0.4169610000000 1.0
C      1  0.5246300000000  0.4030570000000  0.4723260000000 1.0
C      1  0.5223310000000  0.4962190000000  0.3966060000000 1.0
C      1  0.5220180000000  0.5971500000000  0.4672340000000 1.0
C      1  0.5217450000000  0.5542870000000  0.5782960000000 1.0
C      1  0.5093090000000  0.4439130000000  0.5753880000000 1.0
C      1  0.5242170000000  0.5024570000000  0.5985710000000 1.0
C      1  0.5334900000000  0.4124510000000  0.5270120000000 1.0
C      1  0.5218350000000  0.4412440000000  0.4162180000000 1.0
C      1  0.5230960000000  0.5609990000000  0.4243530000000 1.0
C      1  0.5275930000000  0.5950880000000  0.5231190000000 1.0
C      1  0.5396750000000  0.4465590000000  0.4657310000000 1.0
C      1  0.5332170000000  0.5089620000000  0.4438780000000 1.0
C      1  0.5304850000000  0.5560750000000  0.4934150000000 1.0
C      1  0.5371040000000  0.5225570000000  0.5541180000000 1.0
C      1  0.5316640000000  0.4590680000000  0.5330140000000 1.0
C      1  0.5573300000000  0.4157770000000  0.5121090000000 1.0
C      1  0.5479800000000  0.4602090000000  0.4220020000000 1.0
C      1  0.5446280000000  0.5570750000000  0.4433990000000 1.0
C      1  0.5482460000000  0.5733740000000  0.5358620000000 1.0
C      1  0.5417530000000  0.4832140000000  0.5813150000000 1.0
C      1  0.4417420000000  0.4661480000000  0.4945430000000 1.0
C      1  0.4489730000000  0.4900890000000  0.4793970000000 1.0
C      1  0.4284810000000  0.5044850000000  0.4643320000000 1.0
C      1  0.4267210000000  0.5429520000000  0.5129320000000 1.0
C      1  0.4255450000000  0.4810950000000  0.5409910000000 1.0
C      1  0.4617450000000  0.4516460000000  0.5362450000000 1.0
C      1  0.4733920000000  0.4493960000000  0.4672210000000 1.0
C      1  0.4710110000000  0.5162170000000  0.4363140000000 1.0
C      1  0.4845520000000  0.5784230000000  0.5037490000000 1.0
C      1  0.4631510000000  0.5143650000000  0.5542870000000 1.0
C      1  0.5344720000000  0.4953370000000  0.5548730000000 1.0
C      1  0.5220360000000  0.4465880000000  0.5094210000000 1.0
C      1  0.5345770000000  0.4638490000000  0.4462120000000 1.0
C      1  0.5340030000000  0.5320010000000  0.4601560000000 1.0
C      1  0.5323550000000  0.5539070000000  0.5212900000000 1.0
C      1  0.4843540000000  0.5793210000000  0.5515950000000 1.0
C      1  0.4859450000000  0.4870160000000  0.5923900000000 1.0
C      1  0.4864260000000  0.4094310000000  0.5111940000000 1.0
C      1  0.4964820000000  0.4527830000000  0.4118610000000 1.0
C      1  0.4956280000000  0.5661620000000  0.4331160000000 1.0
C      1  0.4050040000000  0.4783750000000  0.4947100000000 1.0
C      1  0.4051490000000  0.5043540000000  0.4819390000000 1.0
C      1  0.4024090000000  0.5263000000000  0.5036240000000 1.0
C      1  0.3934870000000  0.5068170000000  0.5216100000000 1.0
C      1  0.4005880000000  0.4794360000000  0.5234580000000 1.0
C      1  0.5764110000000  0.4579110000000  0.5428700000000 1.0
C      1  0.5818940000000  0.4493190000000  0.4704760000000 1.0
C      1  0.5819450000000  0.5114340000000  0.4416100000000 1.0
C      1  0.5811090000000  0.5595480000000  0.4914060000000 1.0
C      1  0.5809820000000  0.5187570000000  0.5466300000000 1.0
C      1  0.5475800000000  0.4864620000000  0.4075130000000 1.0
C      1  0.5468950000000  0.5831420000000  0.4586750000000 1.0
C      1  0.5468000000000  0.5604390000000  0.5639580000000 1.0
C      1  0.5369720000000  0.4529880000000  0.5779370000000 1.0
C      1  0.5518750000000  0.4080720000000  0.4840400000000 1.0
C      1  0.5621020000000  0.4273640000000  0.4648260000000 1.0
C      1  0.5561230000000  0.5079070000000  0.4248780000000 1.0
C      1  0.5557740000000  0.5746610000000  0.4843270000000 1.0
C      1  0.5620630000000  0.5353540000000  0.5633470000000 1.0
C      1  0.5516220000000  0.4469950000000  0.5537700000000 1.0
C      1  0.4590100000000  0.5529970000000  0.4481750000000 1.0
C      1  0.4569590000000  0.5781490000000  0.5419800000000 1.0
C      1  0.4561120000000  0.4878480000000  0.5929250000000 1.0
C      1  0.4595030000000  0.4185030000000  0.5138930000000 1.0
C      1  0.4591480000000  0.4667710000000  0.4333140000000 1.0
C      1  0.4868000000000  0.4768880000000  0.5155670000000 1.0
C      1  0.4999490000000  0.4795790000000  0.4710410000000 1.0
C      1  0.4905700000000  0.5266500000000  0.4826430000000 1.0
C      1  0.4813760000000  0.5354630000000  0.5089140000000 1.0
C      1  0.4976990000000  0.5274930000000  0.5297110000000 1.0
C      1  0.5748280000000  0.4414860000000  0.5188100000000 1.0
C      1  0.5747590000000  0.4618720000000  0.4447810000000 1.0
C      1  0.5737950000000  0.5393350000000  0.4476010000000 1.0
C      1  0.5750990000000  0.5615750000000  0.5204020000000 1.0
C      1  0.5741680000000  0.4900940000000  0.5769530000000 1.0
C      1  0.5284510000000  0.5032790000000  0.5037540000000 1.0
C      1  0.5009780000000  0.4955420000000  0.4944700000000 1.0
C      1  0.4542460000000  0.5035380000000  0.5057780000000 1.0
END
