TITL C-2441167-4473-692 0.0955065309252407 125000 -15792.6182164352 0 0 127 (C1) n - 1
REM
REM in /home/bkarasulu/work/CARBON/AIRSS/Generating-Clusters/ReaxFF-fromJPCA2015/Units_Real/with-SteepDescent/Higher-Symm
REM
REM
REM
REM
REM
REM ./C.cell (1df0a924f5614ab8850e4351716899ee)
REM
REM compiler GCC version 9.2.1 20190827 (Red Hat 9.2.1-1)
REM options -cpp -mtune=generic -march=x86-64 -g -O0 -fpre-include=/usr/include/finclude/math-vector-fortran.h
REM seed 1948265484 1830670123 27461157 -994038740 -353458826 913225392 -51959751 -1580768406 977828869 -1655284606 338970850 1196709483 651447515 -1379475936 -92107710 1453978034 1926311703 -195570851 -1944429240 -4516760 -1315043749 -1239333242 1456732200 -1013841673 -434099382 -1197955912 -1113245161 -349555617 925110176 -2051446 260712926 -67738680 -783589433
REM
CELL 1.54180   50.00000   50.00000   50.00000   90.00000   90.00000   90.00000
LATT -1
SFAC C  
C      1  0.5581340000000  0.5285500000000  0.4397850000000 1.0
C      1  0.4417070000000  0.5238340000000  0.4424020000000 1.0
C      1  0.5707610000000  0.4414110000000  0.5113050000000 1.0
C      1  0.4248380000000  0.4422130000000  0.5126560000000 1.0
C      1  0.4624720000000  0.5357170000000  0.5791080000000 1.0
C      1  0.5392330000000  0.5357540000000  0.5805730000000 1.0
C      1  0.5280020000000  0.4322310000000  0.4275900000000 1.0
C      1  0.4710240000000  0.4289160000000  0.4314160000000 1.0
C      1  0.5263950000000  0.4871960000000  0.5246800000000 1.0
C      1  0.4763510000000  0.4834310000000  0.5305270000000 1.0
C      1  0.4360960000000  0.5469280000000  0.5456720000000 1.0
C      1  0.5606150000000  0.5476870000000  0.5418210000000 1.0
C      1  0.5707160000000  0.5099140000000  0.5288730000000 1.0
C      1  0.4267410000000  0.5106450000000  0.5291330000000 1.0
C      1  0.5633300000000  0.4984720000000  0.4453110000000 1.0
C      1  0.4341280000000  0.4941660000000  0.4443250000000 1.0
C      1  0.5366990000000  0.5719360000000  0.4999960000000 1.0
C      1  0.4652200000000  0.5689100000000  0.5121200000000 1.0
C      1  0.4187590000000  0.4703530000000  0.5170240000000 1.0
C      1  0.5801060000000  0.4690750000000  0.5161320000000 1.0
C      1  0.4556790000000  0.4794010000000  0.4317460000000 1.0
C      1  0.5437860000000  0.4815180000000  0.4319810000000 1.0
C      1  0.4402160000000  0.5261960000000  0.5652210000000 1.0
C      1  0.5599590000000  0.5281590000000  0.5635380000000 1.0
C      1  0.5485630000000  0.5091860000000  0.4849340000000 1.0
C      1  0.4505040000000  0.5084190000000  0.4842250000000 1.0
C      1  0.5332910000000  0.4553190000000  0.4991950000000 1.0
C      1  0.4624510000000  0.4587600000000  0.5011270000000 1.0
C      1  0.4525040000000  0.5259250000000  0.5263600000000 1.0
C      1  0.5457060000000  0.5267460000000  0.5261860000000 1.0
C      1  0.4351740000000  0.5467340000000  0.4590400000000 1.0
C      1  0.5686620000000  0.5458030000000  0.4599210000000 1.0
C      1  0.4638550000000  0.4538770000000  0.4171550000000 1.0
C      1  0.5417750000000  0.4548580000000  0.4151330000000 1.0
C      1  0.4711710000000  0.5824230000000  0.5504670000000 1.0
C      1  0.5278450000000  0.5826940000000  0.5466230000000 1.0
C      1  0.4699070000000  0.5412460000000  0.5036030000000 1.0
C      1  0.5267110000000  0.5443670000000  0.5039900000000 1.0
C      1  0.4772300000000  0.4977230000000  0.4288370000000 1.0
C      1  0.5236550000000  0.5013250000000  0.4288580000000 1.0
C      1  0.4728370000000  0.5404230000000  0.4754460000000 1.0
C      1  0.5222690000000  0.5397080000000  0.4743110000000 1.0
C      1  0.4550060000000  0.4882950000000  0.5739670000000 1.0
C      1  0.5427360000000  0.4951320000000  0.5757620000000 1.0
C      1  0.5263330000000  0.5114300000000  0.5925260000000 1.0
C      1  0.4716240000000  0.5084540000000  0.5862320000000 1.0
C      1  0.4633430000000  0.4345440000000  0.4589300000000 1.0
C      1  0.5342660000000  0.4433770000000  0.4547210000000 1.0
C      1  0.4720860000000  0.5091760000000  0.5396450000000 1.0
C      1  0.5293110000000  0.5103030000000  0.5407110000000 1.0
C      1  0.4520720000000  0.4419240000000  0.5259810000000 1.0
C      1  0.5445490000000  0.4385520000000  0.5241290000000 1.0
C      1  0.4668030000000  0.4772340000000  0.4816480000000 1.0
C      1  0.5413240000000  0.4835740000000  0.4988380000000 1.0
C      1  0.5853710000000  0.5142830000000  0.5031680000000 1.0
C      1  0.4141400000000  0.5139700000000  0.5017360000000 1.0
C      1  0.4315470000000  0.5306120000000  0.4840800000000 1.0
C      1  0.5688710000000  0.5305930000000  0.4858620000000 1.0
C      1  0.4711820000000  0.5494370000000  0.4288760000000 1.0
C      1  0.5378880000000  0.5510510000000  0.4316200000000 1.0
C      1  0.5303480000000  0.5139860000000  0.4648650000000 1.0
C      1  0.4646650000000  0.5166360000000  0.4611810000000 1.0
C      1  0.4329190000000  0.4293310000000  0.4876080000000 1.0
C      1  0.5620050000000  0.4299780000000  0.4857160000000 1.0
C      1  0.5487220000000  0.5678320000000  0.4524810000000 1.0
C      1  0.4583320000000  0.5654710000000  0.4501300000000 1.0
C      1  0.5603960000000  0.4517390000000  0.4660020000000 1.0
C      1  0.4384720000000  0.4476710000000  0.4665600000000 1.0
C      1  0.5367510000000  0.4110050000000  0.4893870000000 1.0
C      1  0.4551050000000  0.4085640000000  0.4950840000000 1.0
C      1  0.5707750000000  0.4799230000000  0.4675710000000 1.0
C      1  0.4281630000000  0.4763110000000  0.4670230000000 1.0
C      1  0.5473230000000  0.5723930000000  0.5289560000000 1.0
C      1  0.4484010000000  0.5724440000000  0.5358040000000 1.0
C      1  0.5844660000000  0.4871260000000  0.4928890000000 1.0
C      1  0.4160350000000  0.4861350000000  0.4928140000000 1.0
C      1  0.4307840000000  0.4835540000000  0.5410490000000 1.0
C      1  0.5682090000000  0.4823730000000  0.5385240000000 1.0
C      1  0.5309990000000  0.4698130000000  0.5716450000000 1.0
C      1  0.4699380000000  0.4646520000000  0.5796340000000 1.0
C      1  0.5432470000000  0.4657710000000  0.5451900000000 1.0
C      1  0.4552070000000  0.4676220000000  0.5414210000000 1.0
C      1  0.4677730000000  0.4137150000000  0.5204570000000 1.0
C      1  0.5319170000000  0.4100090000000  0.5190260000000 1.0
C      1  0.4796410000000  0.5845130000000  0.4624010000000 1.0
C      1  0.5312860000000  0.5820100000000  0.4720860000000 1.0
C      1  0.5232530000000  0.5623590000000  0.5681360000000 1.0
C      1  0.4768720000000  0.5577790000000  0.5638610000000 1.0
C      1  0.4979780000000  0.5049900000000  0.4943920000000 1.0
C      1  0.4980400000000  0.4586220000000  0.5837380000000 1.0
C      1  0.4937300000000  0.5167830000000  0.5326070000000 1.0
C      1  0.5043060000000  0.4539660000000  0.5000380000000 1.0
C      1  0.4911320000000  0.4320490000000  0.4730840000000 1.0
C      1  0.5119930000000  0.4094170000000  0.4744840000000 1.0
C      1  0.4968900000000  0.5467610000000  0.4670420000000 1.0
C      1  0.5012930000000  0.5507070000000  0.5501420000000 1.0
C      1  0.4989300000000  0.4306800000000  0.4190430000000 1.0
C      1  0.4992430000000  0.5115290000000  0.4415730000000 1.0
C      1  0.4998150000000  0.4015940000000  0.5430280000000 1.0
C      1  0.4940500000000  0.5421190000000  0.4382300000000 1.0
C      1  0.4998570000000  0.4857060000000  0.4126190000000 1.0
C      1  0.5062460000000  0.4067600000000  0.5209850000000 1.0
C      1  0.5104620000000  0.5626250000000  0.4300230000000 1.0
C      1  0.5022580000000  0.4717390000000  0.6034000000000 1.0
C      1  0.4990940000000  0.4225750000000  0.5623590000000 1.0
C      1  0.4913980000000  0.4752920000000  0.4646000000000 1.0
C      1  0.4907160000000  0.4551540000000  0.4062860000000 1.0
C      1  0.4965620000000  0.4731370000000  0.5498310000000 1.0
C      1  0.4983270000000  0.4999500000000  0.5991440000000 1.0
C      1  0.4987090000000  0.4812670000000  0.5100080000000 1.0
C      1  0.4968300000000  0.4348800000000  0.5873520000000 1.0
C      1  0.4990530000000  0.5398380000000  0.6038000000000 1.0
C      1  0.4997130000000  0.5931610000000  0.5368960000000 1.0
C      1  0.4971790000000  0.5067290000000  0.3924410000000 1.0
C      1  0.5062020000000  0.5837090000000  0.4523750000000 1.0
C      1  0.4954940000000  0.4337210000000  0.5192040000000 1.0
C      1  0.4967390000000  0.5296160000000  0.5087060000000 1.0
C      1  0.4871090000000  0.5315080000000  0.4007990000000 1.0
C      1  0.5047400000000  0.5655380000000  0.5953580000000 1.0
C      1  0.4943250000000  0.5909470000000  0.4918260000000 1.0
C      1  0.5064850000000  0.4534620000000  0.4589080000000 1.0
C      1  0.5003020000000  0.4462910000000  0.5449470000000 1.0
C      1  0.5028580000000  0.5399750000000  0.3808590000000 1.0
C      1  0.5058390000000  0.4997660000000  0.4668430000000 1.0
C      1  0.5067160000000  0.5223120000000  0.5523440000000 1.0
C      1  0.4933240000000  0.5721980000000  0.5173800000000 1.0
C      1  0.4993690000000  0.6125080000000  0.5096330000000 1.0
END
