TITL C-2441154-10-666 0.1301454277227 125000 -22039.5397515186 0 0 177 (C1) n - 1
REM
REM in /home/bkarasulu/work/CARBON/AIRSS/Generating-Clusters/ReaxFF-fromJPCA2015/Units_Real/with-SteepDescent/Higher-Symm
REM
REM
REM
REM
REM
REM ./C.cell (1df0a924f5614ab8850e4351716899ee)
REM
REM compiler GCC version 9.2.1 20190827 (Red Hat 9.2.1-1)
REM options -cpp -mtune=generic -march=x86-64 -g -O0 -fpre-include=/usr/include/finclude/math-vector-fortran.h
REM seed -1074088464 -450520075 -950071137 1230914409 -776561608 139810573 671922100 -527817036 -904876534 1988377528 -1170100901 1195734194 -1405620255 856725560 23628425 -1278953337 -753155751 2017271143 -499431295 1158563360 564601717 -956620240 908197976 1984666199 1067358551 -1442871373 -1499319841 192173973 -506523972 1449713428 -590458565 1399999527 79610793
REM
CELL 1.54180   50.00000   50.00000   50.00000   90.00000   90.00000   90.00000
LATT -1
SFAC C  
C      1  0.5227730000000  0.5217610000000  0.5528120000000 1.0
C      1  0.5264080000000  0.5634080000000  0.5282370000000 1.0
C      1  0.5566590000000  0.5255730000000  0.5214750000000 1.0
C      1  0.4757330000000  0.4767190000000  0.5569020000000 1.0
C      1  0.5243390000000  0.4773030000000  0.4464340000000 1.0
C      1  0.4716880000000  0.5266830000000  0.4367400000000 1.0
C      1  0.4789080000000  0.4450690000000  0.5230390000000 1.0
C      1  0.5218900000000  0.4433920000000  0.4757870000000 1.0
C      1  0.4775300000000  0.5581660000000  0.4750740000000 1.0
C      1  0.4429520000000  0.4749670000000  0.5223740000000 1.0
C      1  0.5572610000000  0.4759420000000  0.4775100000000 1.0
C      1  0.4471090000000  0.5238350000000  0.4783580000000 1.0
C      1  0.5244570000000  0.5222090000000  0.4423580000000 1.0
C      1  0.5224860000000  0.5578610000000  0.4759350000000 1.0
C      1  0.5540350000000  0.5259930000000  0.4773840000000 1.0
C      1  0.4766100000000  0.4780120000000  0.4435010000000 1.0
C      1  0.5226500000000  0.4780280000000  0.5518660000000 1.0
C      1  0.4763670000000  0.5220350000000  0.5567140000000 1.0
C      1  0.4776070000000  0.4418380000000  0.4755280000000 1.0
C      1  0.5226480000000  0.4420380000000  0.5243300000000 1.0
C      1  0.4800950000000  0.5534750000000  0.5220520000000 1.0
C      1  0.4472370000000  0.4757610000000  0.4788410000000 1.0
C      1  0.5572380000000  0.4755140000000  0.5220880000000 1.0
C      1  0.4430440000000  0.5255940000000  0.5226600000000 1.0
C      1  0.5841770000000  0.4849440000000  0.5149640000000 1.0
C      1  0.4846530000000  0.5147630000000  0.5835980000000 1.0
C      1  0.5148470000000  0.5850540000000  0.4841210000000 1.0
C      1  0.4170880000000  0.5159170000000  0.5146170000000 1.0
C      1  0.5836940000000  0.5145690000000  0.4855190000000 1.0
C      1  0.4178710000000  0.4848590000000  0.4850370000000 1.0
C      1  0.5155300000000  0.4849170000000  0.5805520000000 1.0
C      1  0.4860480000000  0.4844840000000  0.4172030000000 1.0
C      1  0.5156600000000  0.5145090000000  0.4161130000000 1.0
C      1  0.4848130000000  0.4155430000000  0.4852340000000 1.0
C      1  0.5152410000000  0.4158740000000  0.5144820000000 1.0
C      1  0.4849150000000  0.5824200000000  0.5147250000000 1.0
C      1  0.5836620000000  0.4851030000000  0.4846300000000 1.0
C      1  0.4861660000000  0.5136580000000  0.4145340000000 1.0
C      1  0.5139350000000  0.5857950000000  0.5138930000000 1.0
C      1  0.4183300000000  0.5143400000000  0.4850970000000 1.0
C      1  0.5829310000000  0.5156110000000  0.5147150000000 1.0
C      1  0.4164600000000  0.4852080000000  0.5148600000000 1.0
C      1  0.5155820000000  0.4847890000000  0.4169260000000 1.0
C      1  0.4856010000000  0.4842020000000  0.5834350000000 1.0
C      1  0.5145120000000  0.5140940000000  0.5816640000000 1.0
C      1  0.4856100000000  0.4155310000000  0.5152500000000 1.0
C      1  0.5148970000000  0.4154780000000  0.4839620000000 1.0
C      1  0.4846520000000  0.5842910000000  0.4848270000000 1.0
C      1  0.4831020000000  0.4147550000000  0.5569040000000 1.0
C      1  0.4147650000000  0.5585360000000  0.4835130000000 1.0
C      1  0.5582350000000  0.4837990000000  0.4146310000000 1.0
C      1  0.5145200000000  0.5840430000000  0.5628750000000 1.0
C      1  0.4817810000000  0.5865140000000  0.4411060000000 1.0
C      1  0.5171910000000  0.4139710000000  0.4422430000000 1.0
C      1  0.5856840000000  0.4408260000000  0.4825550000000 1.0
C      1  0.4138850000000  0.4416770000000  0.5173050000000 1.0
C      1  0.5876160000000  0.5575500000000  0.5179930000000 1.0
C      1  0.4381170000000  0.5136970000000  0.4131340000000 1.0
C      1  0.5582010000000  0.5161930000000  0.5839280000000 1.0
C      1  0.4415640000000  0.4835790000000  0.5852220000000 1.0
C      1  0.4827400000000  0.4149920000000  0.4408460000000 1.0
C      1  0.4142910000000  0.5593540000000  0.5169450000000 1.0
C      1  0.5583440000000  0.4849960000000  0.5853980000000 1.0
C      1  0.5174440000000  0.5861860000000  0.4404340000000 1.0
C      1  0.4833990000000  0.5840100000000  0.5596730000000 1.0
C      1  0.5175070000000  0.4140930000000  0.5584020000000 1.0
C      1  0.5853770000000  0.4403700000000  0.5167590000000 1.0
C      1  0.4154480000000  0.4432960000000  0.4833020000000 1.0
C      1  0.5862190000000  0.5573220000000  0.4823800000000 1.0
C      1  0.4426540000000  0.5176080000000  0.5841880000000 1.0
C      1  0.5591990000000  0.5164280000000  0.4138780000000 1.0
C      1  0.4409000000000  0.4835730000000  0.4139270000000 1.0
C      1  0.5199310000000  0.5591830000000  0.5768320000000 1.0
C      1  0.5663490000000  0.5758050000000  0.5130030000000 1.0
C      1  0.5764370000000  0.5162850000000  0.5612090000000 1.0
C      1  0.4839420000000  0.4371260000000  0.5761020000000 1.0
C      1  0.5151570000000  0.4371470000000  0.4241170000000 1.0
C      1  0.4866940000000  0.5636290000000  0.4243230000000 1.0
C      1  0.4371840000000  0.4242610000000  0.5151210000000 1.0
C      1  0.5627690000000  0.4232550000000  0.4848470000000 1.0
C      1  0.4377320000000  0.5767430000000  0.4838790000000 1.0
C      1  0.4238070000000  0.4850390000000  0.5623180000000 1.0
C      1  0.5764720000000  0.4839240000000  0.4374380000000 1.0
C      1  0.4227920000000  0.5142470000000  0.4380090000000 1.0
C      1  0.5169550000000  0.5626370000000  0.4233840000000 1.0
C      1  0.5653910000000  0.5781280000000  0.4834560000000 1.0
C      1  0.5758740000000  0.5152890000000  0.4378500000000 1.0
C      1  0.4842760000000  0.4382840000000  0.4237530000000 1.0
C      1  0.5149900000000  0.4373170000000  0.5755040000000 1.0
C      1  0.4787380000000  0.5599590000000  0.5756800000000 1.0
C      1  0.4372680000000  0.4235830000000  0.4836910000000 1.0
C      1  0.5623680000000  0.4226810000000  0.5157230000000 1.0
C      1  0.4382800000000  0.5761200000000  0.5154690000000 1.0
C      1  0.4244200000000  0.4837270000000  0.4387320000000 1.0
C      1  0.5764180000000  0.4852520000000  0.5622200000000 1.0
C      1  0.4241110000000  0.5155940000000  0.5623190000000 1.0
C      1  0.5642640000000  0.5631120000000  0.4155400000000 1.0
C      1  0.5630480000000  0.4162880000000  0.5642080000000 1.0
C      1  0.4156040000000  0.5632210000000  0.5628720000000 1.0
C      1  0.4363860000000  0.4374070000000  0.4153490000000 1.0
C      1  0.5627460000000  0.4384810000000  0.5839700000000 1.0
C      1  0.4350680000000  0.5635370000000  0.5832470000000 1.0
C      1  0.4377470000000  0.5835870000000  0.5629590000000 1.0
C      1  0.5630340000000  0.5846630000000  0.4364530000000 1.0
C      1  0.4370630000000  0.4152820000000  0.4358430000000 1.0
C      1  0.5843080000000  0.4371050000000  0.5629240000000 1.0
C      1  0.4158160000000  0.4357600000000  0.4369870000000 1.0
C      1  0.5844350000000  0.5640770000000  0.4371090000000 1.0
C      1  0.5645650000000  0.5627940000000  0.5833770000000 1.0
C      1  0.5632890000000  0.4156140000000  0.4350420000000 1.0
C      1  0.4164870000000  0.5626390000000  0.4372160000000 1.0
C      1  0.4361100000000  0.4374190000000  0.5849140000000 1.0
C      1  0.5639820000000  0.4376290000000  0.4152600000000 1.0
C      1  0.4366310000000  0.5613210000000  0.4176310000000 1.0
C      1  0.4373810000000  0.5835640000000  0.4348510000000 1.0
C      1  0.5622220000000  0.5823630000000  0.5634610000000 1.0
C      1  0.4370800000000  0.4161720000000  0.5639810000000 1.0
C      1  0.5849290000000  0.4359470000000  0.4365460000000 1.0
C      1  0.4155500000000  0.4364140000000  0.5632450000000 1.0
C      1  0.5843330000000  0.5645320000000  0.5626460000000 1.0
C      1  0.5426790000000  0.4112300000000  0.5443470000000 1.0
C      1  0.4110260000000  0.5446410000000  0.5415200000000 1.0
C      1  0.5452400000000  0.5419020000000  0.4112370000000 1.0
C      1  0.4589210000000  0.5868270000000  0.5437530000000 1.0
C      1  0.5418180000000  0.5888610000000  0.4555090000000 1.0
C      1  0.4578620000000  0.4113500000000  0.4553770000000 1.0
C      1  0.5886270000000  0.4556140000000  0.5414760000000 1.0
C      1  0.4123880000000  0.4560870000000  0.4573850000000 1.0
C      1  0.5875240000000  0.5434660000000  0.4574470000000 1.0
C      1  0.4560060000000  0.4580400000000  0.4118430000000 1.0
C      1  0.5435790000000  0.4596730000000  0.5877450000000 1.0
C      1  0.4560020000000  0.5443480000000  0.5874960000000 1.0
C      1  0.5429100000000  0.4124120000000  0.4553220000000 1.0
C      1  0.4128310000000  0.5438780000000  0.4589590000000 1.0
C      1  0.5436370000000  0.5429510000000  0.5866580000000 1.0
C      1  0.4568790000000  0.5890520000000  0.4553230000000 1.0
C      1  0.5384960000000  0.5854850000000  0.5471300000000 1.0
C      1  0.4574480000000  0.4129600000000  0.5436540000000 1.0
C      1  0.5884730000000  0.4554200000000  0.4574920000000 1.0
C      1  0.4115530000000  0.4559240000000  0.5423940000000 1.0
C      1  0.5895510000000  0.5440810000000  0.5431520000000 1.0
C      1  0.4556650000000  0.4580640000000  0.5885650000000 1.0
C      1  0.5441020000000  0.4584760000000  0.4125470000000 1.0
C      1  0.4542040000000  0.5392600000000  0.4146220000000 1.0
C      1  0.4852770000000  0.4528990000000  0.5502680000000 1.0
C      1  0.4535300000000  0.5513100000000  0.4843150000000 1.0
C      1  0.5512640000000  0.4853190000000  0.4533920000000 1.0
C      1  0.5144480000000  0.5474220000000  0.5506320000000 1.0
C      1  0.4862850000000  0.5463260000000  0.4516400000000 1.0
C      1  0.5151610000000  0.4518160000000  0.4501650000000 1.0
C      1  0.5456220000000  0.4521650000000  0.4856260000000 1.0
C      1  0.4526060000000  0.4499470000000  0.5147220000000 1.0
C      1  0.5471560000000  0.5510020000000  0.5137910000000 1.0
C      1  0.4502030000000  0.5144970000000  0.4524370000000 1.0
C      1  0.5490890000000  0.5144900000000  0.5446250000000 1.0
C      1  0.4530260000000  0.4859240000000  0.5445780000000 1.0
C      1  0.4860250000000  0.4542800000000  0.4522810000000 1.0
C      1  0.4531160000000  0.5501890000000  0.5143530000000 1.0
C      1  0.5499050000000  0.4857280000000  0.5451620000000 1.0
C      1  0.5143920000000  0.5454020000000  0.4520190000000 1.0
C      1  0.4860320000000  0.5461260000000  0.5504890000000 1.0
C      1  0.5150560000000  0.4518750000000  0.5491690000000 1.0
C      1  0.5451150000000  0.4522500000000  0.5138390000000 1.0
C      1  0.4536870000000  0.4486470000000  0.4846200000000 1.0
C      1  0.5477110000000  0.5541250000000  0.4839950000000 1.0
C      1  0.4534520000000  0.5140710000000  0.5443440000000 1.0
C      1  0.5492810000000  0.5143110000000  0.4521720000000 1.0
C      1  0.4518290000000  0.4855800000000  0.4529080000000 1.0
C      1  0.4891210000000  0.5273840000000  0.5100180000000 1.0
C      1  0.5276080000000  0.5212640000000  0.4872700000000 1.0
C      1  0.5074020000000  0.4862270000000  0.5266060000000 1.0
C      1  0.4732200000000  0.4858200000000  0.4918320000000 1.0
C      1  0.4731160000000  0.5130760000000  0.4918880000000 1.0
C      1  0.5140490000000  0.4819840000000  0.4732150000000 1.0
C      1  0.4900920000000  0.4714930000000  0.5099660000000 1.0
C      1  0.5079480000000  0.5136840000000  0.5259210000000 1.0
C      1  0.5134060000000  0.5003900000000  0.4886820000000 1.0
END
