TITL C-2441161-5029-1242 0.0735873613656245 125000 -20332.1658228968 0 0 149 (C1) n - 1
REM
REM in /home/bkarasulu/work/CARBON/AIRSS/Generating-Clusters/ReaxFF-fromJPCA2015/Units_Real/with-SteepDescent/Higher-Symm
REM
REM
REM
REM
REM
REM ./C.cell (1df0a924f5614ab8850e4351716899ee)
REM
REM compiler GCC version 9.2.1 20190827 (Red Hat 9.2.1-1)
REM options -cpp -mtune=generic -march=x86-64 -g -O0 -fpre-include=/usr/include/finclude/math-vector-fortran.h
REM seed 1657126059 -14601309 -672169893 -647757263 -1878504599 2003455804 1420497477 -1020005061 574115071 270747207 1194038306 753729164 1273550336 780450912 627162249 -848379818 -653736839 -368019368 -281981415 -978196347 -819719498 -1722946167 -1240137458 -972847709 1977360627 11730038 -135374314 2043776708 995790490 -283663840 1055624831 1307129564 1842156854
REM
CELL 1.54180   50.00000   50.00000   50.00000   90.00000   90.00000   90.00000
LATT -1
SFAC C  
C      1  0.5134060000000  0.5963450000000  0.5208890000000 1.0
C      1  0.4344740000000  0.4194260000000  0.5268810000000 1.0
C      1  0.5714970000000  0.5607200000000  0.4906330000000 1.0
C      1  0.5093650000000  0.5183550000000  0.4927770000000 1.0
C      1  0.4928420000000  0.5669120000000  0.4652310000000 1.0
C      1  0.5603250000000  0.5848090000000  0.5027440000000 1.0
C      1  0.5574080000000  0.4748010000000  0.4789520000000 1.0
C      1  0.4723900000000  0.5688060000000  0.4196380000000 1.0
C      1  0.5073610000000  0.5920960000000  0.4929260000000 1.0
C      1  0.4302230000000  0.4466510000000  0.5236330000000 1.0
C      1  0.5084070000000  0.5105400000000  0.5444620000000 1.0
C      1  0.5263070000000  0.4625600000000  0.5379300000000 1.0
C      1  0.5557560000000  0.5153220000000  0.5381570000000 1.0
C      1  0.4396890000000  0.4113300000000  0.4988950000000 1.0
C      1  0.5285530000000  0.5402860000000  0.4822350000000 1.0
C      1  0.5082280000000  0.5576880000000  0.5516590000000 1.0
C      1  0.4566590000000  0.5125090000000  0.5428120000000 1.0
C      1  0.4476740000000  0.5490760000000  0.4481470000000 1.0
C      1  0.5538030000000  0.4943700000000  0.5832890000000 1.0
C      1  0.4636210000000  0.4509380000000  0.4204910000000 1.0
C      1  0.5276220000000  0.5036150000000  0.5892410000000 1.0
C      1  0.4941670000000  0.5787870000000  0.4359550000000 1.0
C      1  0.4545080000000  0.5070100000000  0.4107170000000 1.0
C      1  0.4743490000000  0.5137260000000  0.5957360000000 1.0
C      1  0.4254680000000  0.5298200000000  0.4444250000000 1.0
C      1  0.4860720000000  0.4386890000000  0.5745540000000 1.0
C      1  0.5368440000000  0.4292530000000  0.4362700000000 1.0
C      1  0.4399190000000  0.4798870000000  0.4882560000000 1.0
C      1  0.5084600000000  0.5454130000000  0.4116420000000 1.0
C      1  0.4987680000000  0.4898790000000  0.4561240000000 1.0
C      1  0.4602110000000  0.4852310000000  0.5469100000000 1.0
C      1  0.5704480000000  0.5404810000000  0.5347100000000 1.0
C      1  0.5940280000000  0.4803690000000  0.4554630000000 1.0
C      1  0.4869330000000  0.4505800000000  0.4550970000000 1.0
C      1  0.5679590000000  0.4255190000000  0.5136630000000 1.0
C      1  0.4038510000000  0.4994990000000  0.5129680000000 1.0
C      1  0.5278450000000  0.5323630000000  0.5900930000000 1.0
C      1  0.4932370000000  0.4501070000000  0.4827110000000 1.0
C      1  0.5327540000000  0.4365230000000  0.5533590000000 1.0
C      1  0.5404410000000  0.4166810000000  0.5086220000000 1.0
C      1  0.4803750000000  0.5280400000000  0.4392200000000 1.0
C      1  0.4721780000000  0.5760100000000  0.5187690000000 1.0
C      1  0.5496840000000  0.5425510000000  0.5008340000000 1.0
C      1  0.5333550000000  0.4473420000000  0.5802200000000 1.0
C      1  0.5642110000000  0.4814270000000  0.4215720000000 1.0
C      1  0.4339120000000  0.4960660000000  0.5760710000000 1.0
C      1  0.5207870000000  0.4682480000000  0.5050640000000 1.0
C      1  0.4868720000000  0.5380550000000  0.4650240000000 1.0
C      1  0.5460980000000  0.5506490000000  0.5743440000000 1.0
C      1  0.3945710000000  0.5599810000000  0.5206650000000 1.0
C      1  0.5191170000000  0.5684910000000  0.4267850000000 1.0
C      1  0.5729050000000  0.5104440000000  0.5635820000000 1.0
C      1  0.5563920000000  0.4659160000000  0.5817770000000 1.0
C      1  0.4765300000000  0.4874100000000  0.5921630000000 1.0
C      1  0.4320190000000  0.5276130000000  0.5442240000000 1.0
C      1  0.4783640000000  0.5403850000000  0.4129330000000 1.0
C      1  0.5808590000000  0.4614910000000  0.4345110000000 1.0
C      1  0.5066550000000  0.4554470000000  0.5880770000000 1.0
C      1  0.5822850000000  0.4573750000000  0.4898650000000 1.0
C      1  0.5401550000000  0.5712230000000  0.4489570000000 1.0
C      1  0.5716440000000  0.5083270000000  0.4264110000000 1.0
C      1  0.4682580000000  0.4915630000000  0.4261370000000 1.0
C      1  0.4759560000000  0.4912930000000  0.4729320000000 1.0
C      1  0.5437490000000  0.5272080000000  0.4630090000000 1.0
C      1  0.4937060000000  0.4230880000000  0.5517750000000 1.0
C      1  0.4561780000000  0.4752140000000  0.5741610000000 1.0
C      1  0.5247770000000  0.4842950000000  0.4552780000000 1.0
C      1  0.5196790000000  0.5704820000000  0.4747920000000 1.0
C      1  0.5720940000000  0.5414270000000  0.5643240000000 1.0
C      1  0.5376820000000  0.4304290000000  0.4698260000000 1.0
C      1  0.4686070000000  0.5226540000000  0.5198560000000 1.0
C      1  0.4770910000000  0.4560840000000  0.5125720000000 1.0
C      1  0.4974130000000  0.5257450000000  0.5195850000000 1.0
C      1  0.5685950000000  0.4623050000000  0.5551550000000 1.0
C      1  0.4155710000000  0.4895540000000  0.4428420000000 1.0
C      1  0.5354060000000  0.5541890000000  0.5216090000000 1.0
C      1  0.5004070000000  0.5317120000000  0.5610230000000 1.0
C      1  0.5596710000000  0.5822380000000  0.4745380000000 1.0
C      1  0.5836750000000  0.4500410000000  0.5175870000000 1.0
C      1  0.5108750000000  0.4966750000000  0.4070760000000 1.0
C      1  0.5095440000000  0.4256540000000  0.4789480000000 1.0
C      1  0.4454530000000  0.5587600000000  0.4750980000000 1.0
C      1  0.5254460000000  0.5221910000000  0.4072090000000 1.0
C      1  0.4132690000000  0.5245460000000  0.4703880000000 1.0
C      1  0.4482120000000  0.4599770000000  0.5070200000000 1.0
C      1  0.4259820000000  0.5075880000000  0.4936640000000 1.0
C      1  0.5606640000000  0.4422650000000  0.4333870000000 1.0
C      1  0.4003970000000  0.4710160000000  0.5093950000000 1.0
C      1  0.4283800000000  0.5079310000000  0.4252870000000 1.0
C      1  0.5523400000000  0.5280670000000  0.4188020000000 1.0
C      1  0.5332350000000  0.5709890000000  0.5581570000000 1.0
C      1  0.4922590000000  0.5015880000000  0.4326480000000 1.0
C      1  0.5203690000000  0.4691210000000  0.4077980000000 1.0
C      1  0.5052640000000  0.4820220000000  0.5452920000000 1.0
C      1  0.4623540000000  0.4764850000000  0.4065330000000 1.0
C      1  0.4814290000000  0.4748380000000  0.5337450000000 1.0
C      1  0.5366520000000  0.4570750000000  0.4831590000000 1.0
C      1  0.5931590000000  0.4986090000000  0.5428120000000 1.0
C      1  0.4535180000000  0.4755210000000  0.4639890000000 1.0
C      1  0.4452200000000  0.5695780000000  0.5268840000000 1.0
C      1  0.5148950000000  0.4934860000000  0.4981910000000 1.0
C      1  0.5396660000000  0.5831620000000  0.5301840000000 1.0
C      1  0.4526030000000  0.5487130000000  0.5756740000000 1.0
C      1  0.4524160000000  0.5774530000000  0.4395430000000 1.0
C      1  0.4448470000000  0.4288510000000  0.4630750000000 1.0
C      1  0.4774880000000  0.5879850000000  0.4889870000000 1.0
C      1  0.4873620000000  0.4066590000000  0.5089690000000 1.0
C      1  0.5859670000000  0.5244420000000  0.4760060000000 1.0
C      1  0.6070240000000  0.5317740000000  0.4935740000000 1.0
C      1  0.4710540000000  0.5193570000000  0.4794620000000 1.0
C      1  0.4541620000000  0.4250150000000  0.5475020000000 1.0
C      1  0.5564850000000  0.4170490000000  0.4879920000000 1.0
C      1  0.4182970000000  0.5619700000000  0.5099940000000 1.0
C      1  0.4587650000000  0.4432500000000  0.5691440000000 1.0
C      1  0.5558280000000  0.4959550000000  0.5178690000000 1.0
C      1  0.5879780000000  0.5080310000000  0.4503830000000 1.0
C      1  0.5933830000000  0.5198410000000  0.5225200000000 1.0
C      1  0.5798230000000  0.5021430000000  0.5008750000000 1.0
C      1  0.4110510000000  0.4626570000000  0.5351400000000 1.0
C      1  0.4777010000000  0.4261530000000  0.5297240000000 1.0
C      1  0.4251200000000  0.4298490000000  0.4815960000000 1.0
C      1  0.4897250000000  0.5909240000000  0.5372600000000 1.0
C      1  0.4091430000000  0.4722020000000  0.4617650000000 1.0
C      1  0.4953270000000  0.5362120000000  0.5886890000000 1.0
C      1  0.4514470000000  0.5238810000000  0.4989310000000 1.0
C      1  0.5972780000000  0.4811890000000  0.4844400000000 1.0
C      1  0.4679740000000  0.4054780000000  0.4874260000000 1.0
C      1  0.4470540000000  0.4516450000000  0.4457350000000 1.0
C      1  0.4479970000000  0.5203770000000  0.5844350000000 1.0
C      1  0.4374800000000  0.5558170000000  0.5511790000000 1.0
C      1  0.5919380000000  0.4697020000000  0.5396220000000 1.0
C      1  0.5167840000000  0.4410170000000  0.4185290000000 1.0
C      1  0.5453420000000  0.4989310000000  0.4686050000000 1.0
C      1  0.4563840000000  0.5845090000000  0.4683470000000 1.0
C      1  0.5027570000000  0.4833470000000  0.5936640000000 1.0
C      1  0.4190290000000  0.5498100000000  0.4819110000000 1.0
C      1  0.4912840000000  0.4048340000000  0.4673380000000 1.0
C      1  0.5521110000000  0.5447070000000  0.4426420000000 1.0
C      1  0.5184790000000  0.4135350000000  0.5443510000000 1.0
C      1  0.5368060000000  0.4764810000000  0.4308450000000 1.0
C      1  0.4783100000000  0.5605280000000  0.5811620000000 1.0
C      1  0.5157550000000  0.4048330000000  0.5165830000000 1.0
C      1  0.4893230000000  0.4387470000000  0.4290840000000 1.0
C      1  0.5511840000000  0.4737540000000  0.5352730000000 1.0
C      1  0.5061750000000  0.5535340000000  0.5222700000000 1.0
C      1  0.4065070000000  0.4561070000000  0.4841680000000 1.0
C      1  0.4094250000000  0.5099750000000  0.5392090000000 1.0
C      1  0.4206440000000  0.4858670000000  0.5519480000000 1.0
C      1  0.4930450000000  0.5787790000000  0.5639300000000 1.0
END
