TITL C-2441162-9305-164 0.096361951989141 125000 -7088.25327073543 0 0 70 (C1) n - 1
REM
REM in /home/bkarasulu/work/CARBON/AIRSS/Generating-Clusters/ReaxFF-fromJPCA2015/Units_Real/with-SteepDescent/Higher-Symm
REM
REM
REM
REM
REM
REM ./C.cell (1df0a924f5614ab8850e4351716899ee)
REM
REM compiler GCC version 9.2.1 20190827 (Red Hat 9.2.1-1)
REM options -cpp -mtune=generic -march=x86-64 -g -O0 -fpre-include=/usr/include/finclude/math-vector-fortran.h
REM seed -902405091 341108919 -1395460163 -1234379701 -1094160507 1029715418 206653789 -1746420151 -1446206642 -1359124228 1115347721 488828396 -2140741556 -1673709015 162572997 -977200403 -800984251 1793101554 -1859635560 2075172624 135785383 1389301531 -757822419 -1637163141 -707444208 -89382990 -1738777120 -1868164634 1844843576 -165989218 -499024326 1040658228 -93141088
REM
CELL 1.54180   50.00000   50.00000   50.00000   90.00000   90.00000   90.00000
LATT -1
SFAC C  
C      1  0.4800400000000  0.4686300000000  0.5245830000000 1.0
C      1  0.5218410000000  0.4702460000000  0.4767870000000 1.0
C      1  0.5199840000000  0.4664960000000  0.5223340000000 1.0
C      1  0.4801920000000  0.4688360000000  0.4778990000000 1.0
C      1  0.4522020000000  0.5567560000000  0.5233560000000 1.0
C      1  0.5497660000000  0.5572310000000  0.4773890000000 1.0
C      1  0.5490350000000  0.5564430000000  0.5227030000000 1.0
C      1  0.4509420000000  0.5577220000000  0.4760560000000 1.0
C      1  0.4529750000000  0.4575350000000  0.4526820000000 1.0
C      1  0.5486090000000  0.4581700000000  0.5470180000000 1.0
C      1  0.5488270000000  0.4575550000000  0.4520180000000 1.0
C      1  0.4519080000000  0.4577840000000  0.5477410000000 1.0
C      1  0.5235290000000  0.5272120000000  0.5575930000000 1.0
C      1  0.4777320000000  0.5276970000000  0.4430420000000 1.0
C      1  0.4780520000000  0.5275530000000  0.5573580000000 1.0
C      1  0.5236730000000  0.5275530000000  0.4432700000000 1.0
C      1  0.4627760000000  0.4426420000000  0.5242810000000 1.0
C      1  0.5380620000000  0.4439610000000  0.4763590000000 1.0
C      1  0.5380190000000  0.4424470000000  0.5234280000000 1.0
C      1  0.4639430000000  0.4433790000000  0.4767910000000 1.0
C      1  0.4875240000000  0.5519530000000  0.5428530000000 1.0
C      1  0.5143060000000  0.5519750000000  0.4574000000000 1.0
C      1  0.5146020000000  0.5516270000000  0.5428570000000 1.0
C      1  0.4869470000000  0.5517820000000  0.4570170000000 1.0
C      1  0.4366630000000  0.4777760000000  0.4742810000000 1.0
C      1  0.5640000000000  0.4781370000000  0.5264380000000 1.0
C      1  0.5648500000000  0.4777740000000  0.4740970000000 1.0
C      1  0.4363740000000  0.4779150000000  0.5258650000000 1.0
C      1  0.5237870000000  0.5662600000000  0.4834200000000 1.0
C      1  0.4786640000000  0.5645750000000  0.5175790000000 1.0
C      1  0.4775540000000  0.5660140000000  0.4835430000000 1.0
C      1  0.5234530000000  0.5649380000000  0.5175960000000 1.0
C      1  0.5708900000000  0.5383030000000  0.4839560000000 1.0
C      1  0.4307890000000  0.5383890000000  0.5154620000000 1.0
C      1  0.4290750000000  0.5378890000000  0.4855030000000 1.0
C      1  0.5706560000000  0.5391050000000  0.5150370000000 1.0
C      1  0.5219840000000  0.4661400000000  0.4450180000000 1.0
C      1  0.4784490000000  0.4650990000000  0.5558580000000 1.0
C      1  0.4799280000000  0.4656560000000  0.4453980000000 1.0
C      1  0.5217500000000  0.4656730000000  0.5538580000000 1.0
C      1  0.4617370000000  0.4919040000000  0.5312720000000 1.0
C      1  0.5392130000000  0.4909620000000  0.4705710000000 1.0
C      1  0.5404560000000  0.4941660000000  0.5316100000000 1.0
C      1  0.4615050000000  0.4920750000000  0.4694440000000 1.0
C      1  0.5750500000000  0.5083010000000  0.4872170000000 1.0
C      1  0.4257500000000  0.5087720000000  0.5145090000000 1.0
C      1  0.4253660000000  0.5086420000000  0.4869140000000 1.0
C      1  0.5749670000000  0.5097010000000  0.5142630000000 1.0
C      1  0.4883270000000  0.4282300000000  0.4723460000000 1.0
C      1  0.5131850000000  0.4280540000000  0.5282920000000 1.0
C      1  0.5135410000000  0.4288420000000  0.4724450000000 1.0
C      1  0.4876590000000  0.4281240000000  0.5285890000000 1.0
C      1  0.5363630000000  0.5191920000000  0.5327110000000 1.0
C      1  0.4639700000000  0.5193820000000  0.4679720000000 1.0
C      1  0.4635920000000  0.5197590000000  0.5335570000000 1.0
C      1  0.5386130000000  0.5192600000000  0.4668560000000 1.0
C      1  0.5302360000000  0.5259390000000  0.5023250000000 1.0
C      1  0.4705210000000  0.5279010000000  0.4993830000000 1.0
C      1  0.5192790000000  0.5004640000000  0.5015200000000 1.0
C      1  0.4813310000000  0.4990640000000  0.5015690000000 1.0
C      1  0.5004590000000  0.5009280000000  0.5242690000000 1.0
C      1  0.5003840000000  0.5069450000000  0.4790600000000 1.0
C      1  0.4458560000000  0.4690620000000  0.5002340000000 1.0
C      1  0.5560410000000  0.4688550000000  0.5000020000000 1.0
C      1  0.5000630000000  0.4877880000000  0.4454280000000 1.0
C      1  0.5002680000000  0.4884900000000  0.5539080000000 1.0
C      1  0.5006580000000  0.5138390000000  0.4313890000000 1.0
C      1  0.5008430000000  0.5138860000000  0.5697110000000 1.0
C      1  0.5012290000000  0.5350380000000  0.4943940000000 1.0
C      1  0.4990150000000  0.4616590000000  0.5014740000000 1.0
END
