TITL C-2441162-9305-412 3.66889050074645e-11 125000 -470.440373274792 0 0 4 (D(inf)h) n - 1
REM
REM in /home/bkarasulu/work/CARBON/AIRSS/Generating-Clusters/ReaxFF-fromJPCA2015/Units_Real/with-SteepDescent/Higher-Symm
REM
REM
REM
REM
REM
REM ./C.cell (1df0a924f5614ab8850e4351716899ee)
REM
REM compiler GCC version 9.2.1 20190827 (Red Hat 9.2.1-1)
REM options -cpp -mtune=generic -march=x86-64 -g -O0 -fpre-include=/usr/include/finclude/math-vector-fortran.h
REM seed -1281236392 -498016148 1044082277 1556493365 1732586594 -1028688839 -517194281 979451826 -1182827835 581001738 -194313255 1405379429 -570945899 1407801600 -2117408074 265417615 -67886253 -1688317425 1897089109 1443453661 -328730693 1947958516 1906019151 1617989454 2075148959 2099522270 -22691347 -883639415 -1881220930 -488026696 1314335992 -1929048412 -1886185128
REM
CELL 1.54180   50.00000   50.00000   50.00000   90.00000   90.00000   90.00000
LATT -1
SFAC C  
C      1  0.4869840000000  0.5039750000000  0.4977460000000 1.0
C      1  0.5373890000000  0.5039750000000  0.4977460000000 1.0
C      1  0.4626110000000  0.5039750000000  0.4977460000000 1.0
C      1  0.5130160000000  0.5039750000000  0.4977460000000 1.0
END
