TITL C-2441157-2117-171 0.00618248121204388 125000 -4225.48227182845 0 0 38 (C1) n - 1
REM
REM in /home/bkarasulu/work/CARBON/AIRSS/Generating-Clusters/ReaxFF-fromJPCA2015/Units_Real/with-SteepDescent/Higher-Symm
REM
REM
REM
REM
REM
REM ./C.cell (1df0a924f5614ab8850e4351716899ee)
REM
REM compiler GCC version 9.2.1 20190827 (Red Hat 9.2.1-1)
REM options -cpp -mtune=generic -march=x86-64 -g -O0 -fpre-include=/usr/include/finclude/math-vector-fortran.h
REM seed 252488143 1144910481 809577401 1359652054 -720104506 -1010208310 -1382842670 -33604095 -866806743 152310043 340623574 -1763184246 847805293 -274802065 579735881 70136482 1353547625 -1134150206 139896106 -1364918971 1921511519 2075373573 -940038233 940069717 -1142164675 -1638710527 1486953008 -1499398421 -175474607 -691078095 -1219505288 772906844 -1617973102
REM
CELL 1.54180   50.00000   50.00000   50.00000   90.00000   90.00000   90.00000
LATT -1
SFAC C  
C      1  0.4797030000000  0.5371800000000  0.5343010000000 1.0
C      1  0.4609380000000  0.5120340000000  0.5356290000000 1.0
C      1  0.4754940000000  0.4672890000000  0.5359860000000 1.0
C      1  0.5055780000000  0.4610880000000  0.5343400000000 1.0
C      1  0.5314890000000  0.4818800000000  0.5339830000000 1.0
C      1  0.5342710000000  0.5136410000000  0.5337740000000 1.0
C      1  0.5123050000000  0.5367650000000  0.5340610000000 1.0
C      1  0.4597130000000  0.4927580000000  0.4702710000000 1.0
C      1  0.4815420000000  0.4634280000000  0.4681350000000 1.0
C      1  0.5166430000000  0.4632570000000  0.4688030000000 1.0
C      1  0.5399220000000  0.4915620000000  0.4695040000000 1.0
C      1  0.5320910000000  0.5274330000000  0.4689500000000 1.0
C      1  0.4999120000000  0.5430020000000  0.4687530000000 1.0
C      1  0.4669300000000  0.5286280000000  0.4678040000000 1.0
C      1  0.5604710000000  0.4750960000000  0.4838290000000 1.0
C      1  0.5581180000000  0.5329620000000  0.4838180000000 1.0
C      1  0.5101070000000  0.5660240000000  0.4843850000000 1.0
C      1  0.4556240000000  0.5518600000000  0.4834010000000 1.0
C      1  0.4344240000000  0.4976320000000  0.4835890000000 1.0
C      1  0.4613800000000  0.4475880000000  0.4838350000000 1.0
C      1  0.5168290000000  0.4364980000000  0.4837900000000 1.0
C      1  0.5031500000000  0.4413910000000  0.5096340000000 1.0
C      1  0.5466790000000  0.4683480000000  0.5106060000000 1.0
C      1  0.5560690000000  0.5201080000000  0.5112530000000 1.0
C      1  0.5207440000000  0.5560050000000  0.5111790000000 1.0
C      1  0.4687910000000  0.5549800000000  0.5101000000000 1.0
C      1  0.4402610000000  0.5109130000000  0.5115060000000 1.0
C      1  0.4566870000000  0.4595600000000  0.5115720000000 1.0
C      1  0.4674170000000  0.4823630000000  0.4982380000000 1.0
C      1  0.4917040000000  0.4652550000000  0.4964450000000 1.0
C      1  0.5219410000000  0.4717550000000  0.4960370000000 1.0
C      1  0.5383410000000  0.5027030000000  0.4969270000000 1.0
C      1  0.5226850000000  0.5311520000000  0.4965620000000 1.0
C      1  0.4882030000000  0.5380840000000  0.4969460000000 1.0
C      1  0.4713370000000  0.5192990000000  0.4946380000000 1.0
C      1  0.4993710000000  0.5003790000000  0.5116480000000 1.0
C      1  0.4952750000000  0.4998790000000  0.5378120000000 1.0
C      1  0.4993430000000  0.5017470000000  0.4842910000000 1.0
END
