TITL C-2441154-10-604 0.0741212426196753 125000 -21124.2241862872 0 0 155 (C1) n - 1
REM
REM in /home/bkarasulu/work/CARBON/AIRSS/Generating-Clusters/ReaxFF-fromJPCA2015/Units_Real/with-SteepDescent/Higher-Symm
REM
REM
REM
REM
REM
REM ./C.cell (1df0a924f5614ab8850e4351716899ee)
REM
REM compiler GCC version 9.2.1 20190827 (Red Hat 9.2.1-1)
REM options -cpp -mtune=generic -march=x86-64 -g -O0 -fpre-include=/usr/include/finclude/math-vector-fortran.h
REM seed 953541768 -688120771 1498868174 1311270451 123011224 1496636989 1261684310 -1561616684 -1871991055 363955687 -45140177 1319279069 183048246 -1824273318 1381226259 1850058745 1787235039 -1982049726 -1553282355 2100186169 2134818156 548931920 1760444493 -975375626 -637869048 1731872549 -829969418 -1627924172 1706385768 -616382054 -1791626437 1864047114 -1959916616
REM
CELL 1.54180   50.00000   50.00000   50.00000   90.00000   90.00000   90.00000
LATT -1
SFAC C  
C      1  0.4912470000000  0.4929240000000  0.4899960000000 1.0
C      1  0.5397670000000  0.4123240000000  0.4878900000000 1.0
C      1  0.4779260000000  0.4573840000000  0.5301150000000 1.0
C      1  0.4758780000000  0.5403610000000  0.5155980000000 1.0
C      1  0.5221770000000  0.5345880000000  0.5955550000000 1.0
C      1  0.4444970000000  0.5256890000000  0.5839600000000 1.0
C      1  0.5135800000000  0.5235070000000  0.5545770000000 1.0
C      1  0.5378960000000  0.4018200000000  0.5156770000000 1.0
C      1  0.4578020000000  0.4632740000000  0.4861510000000 1.0
C      1  0.5960020000000  0.4986960000000  0.5346700000000 1.0
C      1  0.5990990000000  0.5438320000000  0.4815780000000 1.0
C      1  0.4363270000000  0.5517010000000  0.5714420000000 1.0
C      1  0.5394170000000  0.4794230000000  0.4549450000000 1.0
C      1  0.4785710000000  0.4740350000000  0.5529370000000 1.0
C      1  0.4747990000000  0.5072030000000  0.4304760000000 1.0
C      1  0.4313080000000  0.4566320000000  0.5630950000000 1.0
C      1  0.5597400000000  0.5430170000000  0.4956560000000 1.0
C      1  0.5305290000000  0.4415750000000  0.4218350000000 1.0
C      1  0.5702580000000  0.5023710000000  0.5561900000000 1.0
C      1  0.5087080000000  0.5616080000000  0.4704720000000 1.0
C      1  0.4564870000000  0.5307010000000  0.4035130000000 1.0
C      1  0.5977580000000  0.5159930000000  0.5138570000000 1.0
C      1  0.4946460000000  0.5576850000000  0.4244180000000 1.0
C      1  0.4517840000000  0.4535010000000  0.4259560000000 1.0
C      1  0.5413900000000  0.4334200000000  0.5509170000000 1.0
C      1  0.5107400000000  0.4023370000000  0.5251980000000 1.0
C      1  0.4840750000000  0.5234420000000  0.5550400000000 1.0
C      1  0.4742460000000  0.4000640000000  0.4746910000000 1.0
C      1  0.4154070000000  0.4530890000000  0.5272220000000 1.0
C      1  0.5864760000000  0.4720450000000  0.4897030000000 1.0
C      1  0.5577230000000  0.5186460000000  0.5813220000000 1.0
C      1  0.4431840000000  0.5711850000000  0.5319420000000 1.0
C      1  0.5199870000000  0.5179540000000  0.5255080000000 1.0
C      1  0.5038940000000  0.5380740000000  0.5093520000000 1.0
C      1  0.4396530000000  0.5832980000000  0.4801370000000 1.0
C      1  0.5535910000000  0.4708650000000  0.5251710000000 1.0
C      1  0.4284310000000  0.4637940000000  0.4788170000000 1.0
C      1  0.4841620000000  0.5641900000000  0.5697010000000 1.0
C      1  0.6112280000000  0.5534800000000  0.4611980000000 1.0
C      1  0.5185480000000  0.4148670000000  0.4674070000000 1.0
C      1  0.4983030000000  0.5737660000000  0.5463790000000 1.0
C      1  0.4411570000000  0.5563870000000  0.4491630000000 1.0
C      1  0.4048710000000  0.5158870000000  0.4876030000000 1.0
C      1  0.5000300000000  0.4932410000000  0.5980650000000 1.0
C      1  0.4494830000000  0.5876300000000  0.5081820000000 1.0
C      1  0.4879110000000  0.5955720000000  0.5274710000000 1.0
C      1  0.5012360000000  0.5980800000000  0.4537260000000 1.0
C      1  0.4738650000000  0.5245350000000  0.5818780000000 1.0
C      1  0.5477270000000  0.4584160000000  0.5702360000000 1.0
C      1  0.4258830000000  0.4382870000000  0.4659540000000 1.0
C      1  0.5091990000000  0.4862760000000  0.4006640000000 1.0
C      1  0.5110250000000  0.4249540000000  0.5493640000000 1.0
C      1  0.5221430000000  0.5540690000000  0.4260770000000 1.0
C      1  0.5562420000000  0.4927430000000  0.5023950000000 1.0
C      1  0.5504140000000  0.5198710000000  0.5127320000000 1.0
C      1  0.4706950000000  0.4994630000000  0.5090250000000 1.0
C      1  0.4821810000000  0.4560130000000  0.4117480000000 1.0
C      1  0.4225040000000  0.4273040000000  0.5174120000000 1.0
C      1  0.5335890000000  0.4718030000000  0.5920020000000 1.0
C      1  0.4890170000000  0.4347860000000  0.4376570000000 1.0
C      1  0.4944580000000  0.5440380000000  0.5900840000000 1.0
C      1  0.4619740000000  0.4726640000000  0.5119920000000 1.0
C      1  0.4878870000000  0.4844490000000  0.4197600000000 1.0
C      1  0.5307730000000  0.5952020000000  0.4555250000000 1.0
C      1  0.5034660000000  0.4444650000000  0.5289670000000 1.0
C      1  0.4478280000000  0.4588040000000  0.5862860000000 1.0
C      1  0.5145880000000  0.5596830000000  0.5265080000000 1.0
C      1  0.4543520000000  0.5238980000000  0.4746510000000 1.0
C      1  0.5324060000000  0.5319580000000  0.4114190000000 1.0
C      1  0.5125230000000  0.4790420000000  0.4995290000000 1.0
C      1  0.5151780000000  0.4895710000000  0.5257570000000 1.0
C      1  0.4259180000000  0.4838360000000  0.5525970000000 1.0
C      1  0.4394670000000  0.5455080000000  0.4215800000000 1.0
C      1  0.5401030000000  0.5412740000000  0.5721010000000 1.0
C      1  0.4163150000000  0.4704660000000  0.5059760000000 1.0
C      1  0.3989030000000  0.4872920000000  0.5428270000000 1.0
C      1  0.5378300000000  0.5073000000000  0.5987900000000 1.0
C      1  0.4494590000000  0.4352510000000  0.5538600000000 1.0
C      1  0.5848470000000  0.4939390000000  0.4422870000000 1.0
C      1  0.5545410000000  0.5275240000000  0.4295030000000 1.0
C      1  0.4318310000000  0.5178500000000  0.4574580000000 1.0
C      1  0.4083730000000  0.5029140000000  0.4614710000000 1.0
C      1  0.4745550000000  0.4837640000000  0.6000680000000 1.0
C      1  0.4951520000000  0.4353690000000  0.5761920000000 1.0
C      1  0.4621440000000  0.4786560000000  0.5763080000000 1.0
C      1  0.4662980000000  0.4365900000000  0.5775210000000 1.0
C      1  0.5252670000000  0.5165720000000  0.4652480000000 1.0
C      1  0.5630510000000  0.5217530000000  0.5370160000000 1.0
C      1  0.5041920000000  0.4363660000000  0.4812460000000 1.0
C      1  0.6012380000000  0.5139050000000  0.4862180000000 1.0
C      1  0.5799500000000  0.4433750000000  0.4836370000000 1.0
C      1  0.5364890000000  0.5766260000000  0.5212650000000 1.0
C      1  0.4444400000000  0.4146970000000  0.5335470000000 1.0
C      1  0.4911490000000  0.4873000000000  0.4610210000000 1.0
C      1  0.4535340000000  0.5383020000000  0.4988790000000 1.0
C      1  0.5164780000000  0.4957580000000  0.4480350000000 1.0
C      1  0.4829040000000  0.5792410000000  0.4402580000000 1.0
C      1  0.5568690000000  0.5574200000000  0.4705810000000 1.0
C      1  0.5168180000000  0.4231660000000  0.4392650000000 1.0
C      1  0.4693270000000  0.5178670000000  0.5314600000000 1.0
C      1  0.5051230000000  0.4808800000000  0.5506060000000 1.0
C      1  0.5114110000000  0.4542240000000  0.5897470000000 1.0
C      1  0.5808230000000  0.5571430000000  0.5099170000000 1.0
C      1  0.5112030000000  0.5155220000000  0.4015650000000 1.0
C      1  0.4684950000000  0.4147180000000  0.4501980000000 1.0
C      1  0.5571790000000  0.5809530000000  0.5407840000000 1.0
C      1  0.5619930000000  0.5585070000000  0.5576820000000 1.0
C      1  0.5031560000000  0.5333790000000  0.4756320000000 1.0
C      1  0.4153680000000  0.4989490000000  0.5076740000000 1.0
C      1  0.5465640000000  0.5930990000000  0.4792000000000 1.0
C      1  0.4126850000000  0.5435720000000  0.4943640000000 1.0
C      1  0.4269470000000  0.5203090000000  0.4295730000000 1.0
C      1  0.4280790000000  0.5112360000000  0.5639960000000 1.0
C      1  0.4575860000000  0.5783120000000  0.4560750000000 1.0
C      1  0.4365250000000  0.4761620000000  0.4300570000000 1.0
C      1  0.5327020000000  0.4489970000000  0.5228570000000 1.0
C      1  0.4224240000000  0.5611320000000  0.4730370000000 1.0
C      1  0.4773360000000  0.4450130000000  0.4774290000000 1.0
C      1  0.5285370000000  0.6070310000000  0.4944970000000 1.0
C      1  0.4268660000000  0.4198900000000  0.4886640000000 1.0
C      1  0.5582670000000  0.4181650000000  0.5304430000000 1.0
C      1  0.4566200000000  0.5687160000000  0.5586220000000 1.0
C      1  0.4295810000000  0.5466820000000  0.5200310000000 1.0
C      1  0.4877500000000  0.4007150000000  0.5064390000000 1.0
C      1  0.5616480000000  0.4778240000000  0.4343310000000 1.0
C      1  0.4697850000000  0.4070420000000  0.5237940000000 1.0
C      1  0.4232680000000  0.5362280000000  0.5500580000000 1.0
C      1  0.4776530000000  0.5170550000000  0.4589420000000 1.0
C      1  0.4502450000000  0.4039190000000  0.4863600000000 1.0
C      1  0.4863910000000  0.5318840000000  0.4091340000000 1.0
C      1  0.5459110000000  0.4992670000000  0.4763230000000 1.0
C      1  0.5958010000000  0.4906070000000  0.4691090000000 1.0
C      1  0.5796280000000  0.5447400000000  0.5385860000000 1.0
C      1  0.4775980000000  0.5847130000000  0.5022340000000 1.0
C      1  0.5686010000000  0.5458410000000  0.4466460000000 1.0
C      1  0.5546560000000  0.4791930000000  0.5520410000000 1.0
C      1  0.4454600000000  0.4322990000000  0.4447520000000 1.0
C      1  0.5804790000000  0.4533320000000  0.5277930000000 1.0
C      1  0.5636640000000  0.5812020000000  0.5119280000000 1.0
C      1  0.4821080000000  0.4593140000000  0.4543000000000 1.0
C      1  0.5416090000000  0.4395710000000  0.4971390000000 1.0
C      1  0.5777260000000  0.4300500000000  0.5117540000000 1.0
C      1  0.5980200000000  0.4746280000000  0.5185360000000 1.0
C      1  0.5103180000000  0.6077520000000  0.5141500000000 1.0
C      1  0.5319290000000  0.5650750000000  0.4527250000000 1.0
C      1  0.5698650000000  0.4391400000000  0.4567670000000 1.0
C      1  0.5119090000000  0.4562520000000  0.4043360000000 1.0
C      1  0.3924400000000  0.5027390000000  0.5230350000000 1.0
C      1  0.5822940000000  0.5224450000000  0.4354560000000 1.0
C      1  0.4196850000000  0.4773400000000  0.4533360000000 1.0
C      1  0.5252360000000  0.4578310000000  0.4818430000000 1.0
C      1  0.4479130000000  0.5039170000000  0.4158160000000 1.0
C      1  0.4957450000000  0.5845700000000  0.4792050000000 1.0
C      1  0.5115620000000  0.4983640000000  0.5709200000000 1.0
C      1  0.5583470000000  0.4492310000000  0.4312480000000 1.0
END
