TITL C-2441163-1170-1328 0.0954917980174715 125000 -22462.1061850271 0 0 168 (C1) n - 1
REM
REM in /home/bkarasulu/work/CARBON/AIRSS/Generating-Clusters/ReaxFF-fromJPCA2015/Units_Real/with-SteepDescent/Higher-Symm
REM
REM
REM
REM
REM
REM ./C.cell (1df0a924f5614ab8850e4351716899ee)
REM
REM compiler GCC version 9.2.1 20190827 (Red Hat 9.2.1-1)
REM options -cpp -mtune=generic -march=x86-64 -g -O0 -fpre-include=/usr/include/finclude/math-vector-fortran.h
REM seed -1404637960 -1387759152 1385164273 -72430777 -1645859260 974263734 299271532 853035682 -168409009 -2110225074 1616480097 -923225331 -309553020 1003749914 -497212250 -1166618694 -20650362 -1363904170 1219999251 -1323803494 1791274544 -1157534231 1763186117 1753613165 182505834 -469432354 60400354 -989648559 310684402 1989132811 1830466492 -1887794044 738994708
REM
CELL 1.54180   50.00000   50.00000   50.00000   90.00000   90.00000   90.00000
LATT -1
SFAC C  
C      1  0.5321850000000  0.5032310000000  0.5508560000000 1.0
C      1  0.4504580000000  0.5048090000000  0.5298530000000 1.0
C      1  0.4688770000000  0.5039390000000  0.4504020000000 1.0
C      1  0.5465980000000  0.5052540000000  0.4686870000000 1.0
C      1  0.4669740000000  0.4951070000000  0.5507110000000 1.0
C      1  0.5429050000000  0.4973470000000  0.5258120000000 1.0
C      1  0.5271970000000  0.4945650000000  0.4497590000000 1.0
C      1  0.4499690000000  0.4949920000000  0.4693340000000 1.0
C      1  0.4835130000000  0.5201880000000  0.5494070000000 1.0
C      1  0.4513880000000  0.5196980000000  0.4845270000000 1.0
C      1  0.5135280000000  0.5198020000000  0.4468670000000 1.0
C      1  0.5505610000000  0.5223870000000  0.5146480000000 1.0
C      1  0.5148860000000  0.4801790000000  0.5527880000000 1.0
C      1  0.5545260000000  0.4799590000000  0.4817860000000 1.0
C      1  0.4883420000000  0.4808490000000  0.4510700000000 1.0
C      1  0.4536110000000  0.4799570000000  0.5147420000000 1.0
C      1  0.4173870000000  0.4766660000000  0.5525990000000 1.0
C      1  0.4481480000000  0.4755470000000  0.4182070000000 1.0
C      1  0.5808750000000  0.4754350000000  0.4464800000000 1.0
C      1  0.5526690000000  0.4745510000000  0.5839000000000 1.0
C      1  0.5810650000000  0.5240260000000  0.5521850000000 1.0
C      1  0.5521900000000  0.5260560000000  0.4166630000000 1.0
C      1  0.4173680000000  0.5249490000000  0.4462470000000 1.0
C      1  0.4479570000000  0.5236900000000  0.5824420000000 1.0
C      1  0.5981470000000  0.5382150000000  0.4746300000000 1.0
C      1  0.5259620000000  0.5406270000000  0.5995190000000 1.0
C      1  0.4014210000000  0.5405270000000  0.5262070000000 1.0
C      1  0.4726910000000  0.5396960000000  0.4005570000000 1.0
C      1  0.4013520000000  0.4595890000000  0.4740990000000 1.0
C      1  0.4744240000000  0.4595040000000  0.5992760000000 1.0
C      1  0.5978910000000  0.4598500000000  0.5263730000000 1.0
C      1  0.5263640000000  0.4604420000000  0.4006610000000 1.0
C      1  0.4457300000000  0.5709440000000  0.4654920000000 1.0
C      1  0.5341800000000  0.5710150000000  0.4442770000000 1.0
C      1  0.5548810000000  0.5713190000000  0.5344570000000 1.0
C      1  0.4654010000000  0.5699610000000  0.5574710000000 1.0
C      1  0.5560030000000  0.4287910000000  0.4647810000000 1.0
C      1  0.4665700000000  0.4302780000000  0.4448470000000 1.0
C      1  0.4430850000000  0.4305600000000  0.5349750000000 1.0
C      1  0.5338890000000  0.4284290000000  0.5569370000000 1.0
C      1  0.4444410000000  0.4963540000000  0.5894180000000 1.0
C      1  0.4117990000000  0.4969980000000  0.4434560000000 1.0
C      1  0.5554950000000  0.4979840000000  0.4123060000000 1.0
C      1  0.5861810000000  0.4960350000000  0.5557240000000 1.0
C      1  0.5557780000000  0.5027830000000  0.5888780000000 1.0
C      1  0.5864890000000  0.5030670000000  0.4443000000000 1.0
C      1  0.4441240000000  0.5029350000000  0.4115280000000 1.0
C      1  0.4121970000000  0.5044200000000  0.5551310000000 1.0
C      1  0.5936210000000  0.5683700000000  0.5127390000000 1.0
C      1  0.4843780000000  0.5702900000000  0.5929030000000 1.0
C      1  0.4062250000000  0.5689120000000  0.4853640000000 1.0
C      1  0.5131770000000  0.5688570000000  0.4061220000000 1.0
C      1  0.4077180000000  0.4302880000000  0.5157200000000 1.0
C      1  0.5157960000000  0.4298650000000  0.5926690000000 1.0
C      1  0.5939670000000  0.4363860000000  0.4808780000000 1.0
C      1  0.4875290000000  0.4310000000000  0.4072030000000 1.0
C      1  0.3965260000000  0.4526220000000  0.5037270000000 1.0
C      1  0.4969090000000  0.4529410000000  0.3947680000000 1.0
C      1  0.6044380000000  0.4537620000000  0.4991570000000 1.0
C      1  0.5034720000000  0.4521330000000  0.6040020000000 1.0
C      1  0.6053980000000  0.5457490000000  0.5036590000000 1.0
C      1  0.5021060000000  0.5468890000000  0.3945340000000 1.0
C      1  0.3950560000000  0.5472530000000  0.4970800000000 1.0
C      1  0.4962310000000  0.5479110000000  0.6041450000000 1.0
C      1  0.4443250000000  0.4756030000000  0.5672500000000 1.0
C      1  0.4343970000000  0.4755850000000  0.4457460000000 1.0
C      1  0.5534550000000  0.4761460000000  0.4348570000000 1.0
C      1  0.5687070000000  0.4719880000000  0.5597670000000 1.0
C      1  0.5537390000000  0.5232970000000  0.5659780000000 1.0
C      1  0.5652860000000  0.5260680000000  0.4437420000000 1.0
C      1  0.4455850000000  0.5237510000000  0.4335640000000 1.0
C      1  0.4342670000000  0.5247780000000  0.5550230000000 1.0
C      1  0.5317900000000  0.4254010000000  0.4321500000000 1.0
C      1  0.5652790000000  0.4248730000000  0.5319130000000 1.0
C      1  0.4668400000000  0.4251470000000  0.5683050000000 1.0
C      1  0.4340100000000  0.4253260000000  0.4690510000000 1.0
C      1  0.4686670000000  0.5743580000000  0.4315450000000 1.0
C      1  0.4335720000000  0.5746850000000  0.5319080000000 1.0
C      1  0.5310320000000  0.5746970000000  0.5676410000000 1.0
C      1  0.5666310000000  0.5747560000000  0.4690020000000 1.0
C      1  0.5316660000000  0.5507280000000  0.4837420000000 1.0
C      1  0.5147490000000  0.5559130000000  0.5280390000000 1.0
C      1  0.4717090000000  0.5549770000000  0.5140570000000 1.0
C      1  0.4852430000000  0.5563190000000  0.4707670000000 1.0
C      1  0.4708710000000  0.4485160000000  0.4853240000000 1.0
C      1  0.4851590000000  0.4427030000000  0.5293040000000 1.0
C      1  0.5336510000000  0.4524390000000  0.5168110000000 1.0
C      1  0.5165610000000  0.4441380000000  0.4718490000000 1.0
C      1  0.4439420000000  0.4389670000000  0.4920720000000 1.0
C      1  0.5084500000000  0.4375790000000  0.4442220000000 1.0
C      1  0.5573910000000  0.4383920000000  0.5081840000000 1.0
C      1  0.4916440000000  0.4354750000000  0.5571200000000 1.0
C      1  0.5568890000000  0.5620160000000  0.4925860000000 1.0
C      1  0.4922780000000  0.5624870000000  0.4431220000000 1.0
C      1  0.4434570000000  0.5630450000000  0.5078010000000 1.0
C      1  0.5081130000000  0.5619980000000  0.5555690000000 1.0
C      1  0.4079690000000  0.4704800000000  0.5253510000000 1.0
C      1  0.4755600000000  0.4701190000000  0.4083410000000 1.0
C      1  0.5979760000000  0.4650210000000  0.4718970000000 1.0
C      1  0.5243450000000  0.4696330000000  0.5932200000000 1.0
C      1  0.5902090000000  0.5296030000000  0.5247650000000 1.0
C      1  0.5249760000000  0.5306810000000  0.4051230000000 1.0
C      1  0.4059790000000  0.5307710000000  0.4730790000000 1.0
C      1  0.4752510000000  0.5298310000000  0.5923340000000 1.0
C      1  0.5857340000000  0.4896210000000  0.4868170000000 1.0
C      1  0.5129900000000  0.4950020000000  0.5897410000000 1.0
C      1  0.4035010000000  0.4967150000000  0.5134180000000 1.0
C      1  0.4867730000000  0.4965180000000  0.4026010000000 1.0
C      1  0.4124000000000  0.5055590000000  0.4870610000000 1.0
C      1  0.4874220000000  0.5036200000000  0.5970920000000 1.0
C      1  0.5863080000000  0.5031580000000  0.5132480000000 1.0
C      1  0.5119780000000  0.5063450000000  0.4111470000000 1.0
C      1  0.5277930000000  0.4791490000000  0.5080700000000 1.0
C      1  0.5028900000000  0.4850170000000  0.5234230000000 1.0
C      1  0.4796180000000  0.4732530000000  0.4990070000000 1.0
C      1  0.4956190000000  0.4865350000000  0.4788710000000 1.0
C      1  0.4807130000000  0.5242510000000  0.4993170000000 1.0
C      1  0.4928180000000  0.5118220000000  0.5226400000000 1.0
C      1  0.5318530000000  0.5223070000000  0.4913010000000 1.0
C      1  0.5021260000000  0.5143470000000  0.4810060000000 1.0
C      1  0.5430800000000  0.4500980000000  0.4210120000000 1.0
C      1  0.5770310000000  0.4495830000000  0.5430420000000 1.0
C      1  0.4567550000000  0.4499430000000  0.5796130000000 1.0
C      1  0.4220790000000  0.4497170000000  0.4574030000000 1.0
C      1  0.4566160000000  0.5497010000000  0.4211460000000 1.0
C      1  0.4218780000000  0.5502440000000  0.5429600000000 1.0
C      1  0.5423750000000  0.5501820000000  0.5787630000000 1.0
C      1  0.5779760000000  0.5498000000000  0.4577110000000 1.0
C      1  0.4607420000000  0.4122050000000  0.4668070000000 1.0
C      1  0.5353240000000  0.4101630000000  0.4569430000000 1.0
C      1  0.5385820000000  0.4123070000000  0.5324620000000 1.0
C      1  0.4629850000000  0.4108860000000  0.5433210000000 1.0
C      1  0.5397270000000  0.5881040000000  0.4670430000000 1.0
C      1  0.4657680000000  0.5897790000000  0.4564110000000 1.0
C      1  0.4594220000000  0.5884060000000  0.5354140000000 1.0
C      1  0.5340530000000  0.5896500000000  0.5423590000000 1.0
C      1  0.5134210000000  0.5844730000000  0.5191740000000 1.0
C      1  0.4816890000000  0.5847380000000  0.5154260000000 1.0
C      1  0.4882320000000  0.5849040000000  0.4807530000000 1.0
C      1  0.5172640000000  0.5886830000000  0.4861460000000 1.0
C      1  0.4871080000000  0.4141510000000  0.5180530000000 1.0
C      1  0.5167010000000  0.4099830000000  0.5133180000000 1.0
C      1  0.5135490000000  0.4152760000000  0.4824540000000 1.0
C      1  0.4831340000000  0.4118840000000  0.4866660000000 1.0
C      1  0.4900340000000  0.5810870000000  0.5677250000000 1.0
C      1  0.4308660000000  0.5811380000000  0.4883700000000 1.0
C      1  0.5109960000000  0.5817750000000  0.4304020000000 1.0
C      1  0.5690940000000  0.5812210000000  0.5111350000000 1.0
C      1  0.5114040000000  0.4189060000000  0.5677110000000 1.0
C      1  0.5703220000000  0.4231800000000  0.4880570000000 1.0
C      1  0.4896140000000  0.4183280000000  0.4315160000000 1.0
C      1  0.4329750000000  0.4194530000000  0.5101510000000 1.0
C      1  0.6003840000000  0.4876150000000  0.5324190000000 1.0
C      1  0.4672760000000  0.4863260000000  0.6027540000000 1.0
C      1  0.3987780000000  0.4877800000000  0.4674520000000 1.0
C      1  0.5317320000000  0.4887880000000  0.3994870000000 1.0
C      1  0.3975470000000  0.5140410000000  0.5336390000000 1.0
C      1  0.5322500000000  0.5123370000000  0.6019200000000 1.0
C      1  0.5990830000000  0.5101080000000  0.4691760000000 1.0
C      1  0.4659810000000  0.5130170000000  0.3969740000000 1.0
C      1  0.5436440000000  0.4548620000000  0.4714480000000 1.0
C      1  0.5277500000000  0.4546890000000  0.5443240000000 1.0
C      1  0.4589220000000  0.4547430000000  0.5291490000000 1.0
C      1  0.4738970000000  0.4553450000000  0.4573570000000 1.0
C      1  0.4583750000000  0.5450700000000  0.4708520000000 1.0
C      1  0.4724540000000  0.5463840000000  0.5419930000000 1.0
C      1  0.5416630000000  0.5457590000000  0.5292150000000 1.0
C      1  0.5270930000000  0.5449460000000  0.4555520000000 1.0
END
