TITL C-2441168-9922-1051 0.0782412292914586 125000 -9840.14295479108 0 0 80 (C1) n - 1
REM
REM in /home/bkarasulu/work/CARBON/AIRSS/Generating-Clusters/ReaxFF-fromJPCA2015/Units_Real/with-SteepDescent/Higher-Symm
REM
REM
REM
REM
REM
REM ./C.cell (1df0a924f5614ab8850e4351716899ee)
REM
REM compiler GCC version 9.2.1 20190827 (Red Hat 9.2.1-1)
REM options -cpp -mtune=generic -march=x86-64 -g -O0 -fpre-include=/usr/include/finclude/math-vector-fortran.h
REM seed 723597039 960360277 848507086 -104351232 -301212191 585885886 2094714013 -1099145534 370989942 1528587298 -540321068 -929914872 105272778 347068883 1593947278 119632113 1162394793 377116102 -37775274 -1082013503 383253879 433654955 -1753417557 -104542099 128531374 204450838 -2088673622 1800621936 272750806 -2075200334 -1382511545 1081083675 64665657
REM
CELL 1.54180   50.00000   50.00000   50.00000   90.00000   90.00000   90.00000
LATT -1
SFAC C  
C      1  0.4558400000000  0.5361290000000  0.4980370000000 1.0
C      1  0.4885040000000  0.5352690000000  0.4574610000000 1.0
C      1  0.5368910000000  0.5348610000000  0.4761990000000 1.0
C      1  0.5336630000000  0.5348840000000  0.5278410000000 1.0
C      1  0.4842640000000  0.5351640000000  0.5410150000000 1.0
C      1  0.4557350000000  0.4642960000000  0.4980160000000 1.0
C      1  0.4878350000000  0.4637000000000  0.4568980000000 1.0
C      1  0.5370030000000  0.4643800000000  0.4757860000000 1.0
C      1  0.5340460000000  0.4651880000000  0.5277690000000 1.0
C      1  0.4844470000000  0.4642130000000  0.5412600000000 1.0
C      1  0.5106320000000  0.5516640000000  0.4478100000000 1.0
C      1  0.5527490000000  0.5517310000000  0.4938310000000 1.0
C      1  0.5219490000000  0.5517180000000  0.5484710000000 1.0
C      1  0.4607920000000  0.5516910000000  0.5356010000000 1.0
C      1  0.4538400000000  0.5519810000000  0.4735920000000 1.0
C      1  0.5108310000000  0.4481090000000  0.4478500000000 1.0
C      1  0.5530500000000  0.4481960000000  0.4939830000000 1.0
C      1  0.5219610000000  0.4484790000000  0.5483540000000 1.0
C      1  0.4605870000000  0.4482020000000  0.5356980000000 1.0
C      1  0.4537760000000  0.4483040000000  0.4735540000000 1.0
C      1  0.4330220000000  0.4692370000000  0.5147610000000 1.0
C      1  0.4649210000000  0.4691600000000  0.4406200000000 1.0
C      1  0.5456990000000  0.4691700000000  0.4487050000000 1.0
C      1  0.5625490000000  0.4691960000000  0.5274170000000 1.0
C      1  0.4932510000000  0.4693260000000  0.5682740000000 1.0
C      1  0.4329190000000  0.5306810000000  0.5146640000000 1.0
C      1  0.4654320000000  0.5307740000000  0.4408100000000 1.0
C      1  0.5453980000000  0.5307310000000  0.4489810000000 1.0
C      1  0.5621680000000  0.5305720000000  0.5273770000000 1.0
C      1  0.4931540000000  0.5306830000000  0.5680190000000 1.0
C      1  0.4410670000000  0.4866320000000  0.5330520000000 1.0
C      1  0.4504260000000  0.4867900000000  0.4542320000000 1.0
C      1  0.5292240000000  0.4874930000000  0.4373570000000 1.0
C      1  0.5668570000000  0.4865450000000  0.5077470000000 1.0
C      1  0.5131700000000  0.4873900000000  0.5665040000000 1.0
C      1  0.4409600000000  0.5123070000000  0.5330360000000 1.0
C      1  0.4496030000000  0.5125110000000  0.4530930000000 1.0
C      1  0.5282030000000  0.5132670000000  0.4385960000000 1.0
C      1  0.5680630000000  0.5122920000000  0.5080470000000 1.0
C      1  0.5131780000000  0.5129080000000  0.5662480000000 1.0
C      1  0.4239160000000  0.4857320000000  0.4899430000000 1.0
C      1  0.4860900000000  0.4857020000000  0.4246790000000 1.0
C      1  0.5675490000000  0.4855240000000  0.4634650000000 1.0
C      1  0.5555730000000  0.4856790000000  0.5530080000000 1.0
C      1  0.4668940000000  0.4856520000000  0.5691940000000 1.0
C      1  0.4239730000000  0.5144030000000  0.4900140000000 1.0
C      1  0.4861490000000  0.5143640000000  0.4245330000000 1.0
C      1  0.5674360000000  0.5142250000000  0.4635190000000 1.0
C      1  0.5553810000000  0.5143670000000  0.5528950000000 1.0
C      1  0.4667770000000  0.5143370000000  0.5693430000000 1.0
C      1  0.5237730000000  0.5162040000000  0.4913640000000 1.0
C      1  0.5158910000000  0.5162040000000  0.5199270000000 1.0
C      1  0.4867810000000  0.5166250000000  0.5215500000000 1.0
C      1  0.4757820000000  0.5171470000000  0.4940870000000 1.0
C      1  0.4988600000000  0.5165690000000  0.4749520000000 1.0
C      1  0.5246110000000  0.4842070000000  0.4915150000000 1.0
C      1  0.5159280000000  0.4845720000000  0.5204830000000 1.0
C      1  0.4861770000000  0.4836400000000  0.5215500000000 1.0
C      1  0.4750390000000  0.4840880000000  0.4935520000000 1.0
C      1  0.4987070000000  0.4836160000000  0.4742430000000 1.0
C      1  0.5078170000000  0.4365130000000  0.4760360000000 1.0
C      1  0.5253380000000  0.4361730000000  0.4998430000000 1.0
C      1  0.5078570000000  0.4369380000000  0.5237140000000 1.0
C      1  0.4797670000000  0.4364370000000  0.5146710000000 1.0
C      1  0.4798460000000  0.4367820000000  0.4852020000000 1.0
C      1  0.5075510000000  0.5636480000000  0.4758490000000 1.0
C      1  0.5249110000000  0.5632050000000  0.4997030000000 1.0
C      1  0.5078680000000  0.5638380000000  0.5239370000000 1.0
C      1  0.4799120000000  0.5631940000000  0.5147140000000 1.0
C      1  0.4795970000000  0.5639190000000  0.4852290000000 1.0
C      1  0.5735100000000  0.5300030000000  0.4883870000000 1.0
C      1  0.5335510000000  0.5300390000000  0.5664180000000 1.0
C      1  0.4475180000000  0.5299600000000  0.5525300000000 1.0
C      1  0.4339700000000  0.5300830000000  0.4664140000000 1.0
C      1  0.5117780000000  0.5299160000000  0.4266470000000 1.0
C      1  0.5734780000000  0.4699750000000  0.4885510000000 1.0
C      1  0.5336970000000  0.4701610000000  0.5663670000000 1.0
C      1  0.4476230000000  0.4701840000000  0.5523450000000 1.0
C      1  0.4338490000000  0.4703280000000  0.4663770000000 1.0
C      1  0.5116170000000  0.4700220000000  0.4266820000000 1.0
END
