TITL C-2441161-5029-1473 0.0155568754652694 125000 -10326.2132562731 0 0 73 (C1) n - 1
REM
REM in /home/bkarasulu/work/CARBON/AIRSS/Generating-Clusters/ReaxFF-fromJPCA2015/Units_Real/with-SteepDescent/Higher-Symm
REM
REM
REM
REM
REM
REM ./C.cell (1df0a924f5614ab8850e4351716899ee)
REM
REM compiler GCC version 9.2.1 20190827 (Red Hat 9.2.1-1)
REM options -cpp -mtune=generic -march=x86-64 -g -O0 -fpre-include=/usr/include/finclude/math-vector-fortran.h
REM seed 1484380833 1857077643 -817457086 1105505489 2143333880 1053841603 -1755347419 164514086 885781174 1563775599 -1138699510 2058004646 129294801 -708974614 -1401633974 -531818641 1029270584 1265671904 -227000675 -180668170 1075880608 -328645508 -1475966533 745704890 1283287158 807503784 1310732082 -1301604059 -448543580 1303996218 1095586173 -221991748 -1393256832
REM
CELL 1.54180   50.00000   50.00000   50.00000   90.00000   90.00000   90.00000
LATT -1
SFAC C  
C      1  0.5446020000000  0.5043940000000  0.4454040000000 1.0
C      1  0.4611780000000  0.5029160000000  0.5606280000000 1.0
C      1  0.4612510000000  0.5056830000000  0.4425500000000 1.0
C      1  0.5438820000000  0.5058620000000  0.5530400000000 1.0
C      1  0.4535590000000  0.5410730000000  0.5414910000000 1.0
C      1  0.5465270000000  0.5443330000000  0.4602450000000 1.0
C      1  0.5428570000000  0.5475660000000  0.5235480000000 1.0
C      1  0.4567170000000  0.5427950000000  0.4785000000000 1.0
C      1  0.4729500000000  0.5242640000000  0.4627200000000 1.0
C      1  0.5287740000000  0.5258220000000  0.5368720000000 1.0
C      1  0.5274310000000  0.5218440000000  0.4615200000000 1.0
C      1  0.4753610000000  0.5202680000000  0.5410720000000 1.0
C      1  0.4377020000000  0.4559430000000  0.5425150000000 1.0
C      1  0.5615690000000  0.4502770000000  0.4591090000000 1.0
C      1  0.5629560000000  0.4545230000000  0.5427990000000 1.0
C      1  0.4331970000000  0.4638180000000  0.4673020000000 1.0
C      1  0.4901500000000  0.4660460000000  0.4318820000000 1.0
C      1  0.5156580000000  0.4750670000000  0.5602340000000 1.0
C      1  0.5153210000000  0.4747480000000  0.4408890000000 1.0
C      1  0.4915170000000  0.4661030000000  0.5723270000000 1.0
C      1  0.5252480000000  0.4982060000000  0.5741000000000 1.0
C      1  0.4797080000000  0.4938520000000  0.4239500000000 1.0
C      1  0.4805540000000  0.4928460000000  0.5796260000000 1.0
C      1  0.5247560000000  0.4970970000000  0.4255880000000 1.0
C      1  0.5361950000000  0.4384470000000  0.4686750000000 1.0
C      1  0.4683220000000  0.4479650000000  0.5291380000000 1.0
C      1  0.4678460000000  0.4459340000000  0.4749000000000 1.0
C      1  0.5377870000000  0.4403510000000  0.5335740000000 1.0
C      1  0.5274250000000  0.4688130000000  0.5285150000000 1.0
C      1  0.4714870000000  0.4761170000000  0.4747320000000 1.0
C      1  0.4666850000000  0.4785820000000  0.5234350000000 1.0
C      1  0.5276400000000  0.4678770000000  0.4713170000000 1.0
C      1  0.5672580000000  0.5419490000000  0.5090610000000 1.0
C      1  0.4315210000000  0.5323280000000  0.4911160000000 1.0
C      1  0.4393470000000  0.5383290000000  0.5172680000000 1.0
C      1  0.5676620000000  0.5400150000000  0.4802110000000 1.0
C      1  0.4170840000000  0.4807300000000  0.4836630000000 1.0
C      1  0.5824110000000  0.4588200000000  0.5230780000000 1.0
C      1  0.5822520000000  0.4649370000000  0.4729270000000 1.0
C      1  0.4162050000000  0.4504870000000  0.5261440000000 1.0
C      1  0.4459610000000  0.4838730000000  0.5432970000000 1.0
C      1  0.5529170000000  0.4782760000000  0.4611100000000 1.0
C      1  0.5526060000000  0.4814970000000  0.5384410000000 1.0
C      1  0.4520290000000  0.4788410000000  0.4516700000000 1.0
C      1  0.5305020000000  0.5690310000000  0.4557960000000 1.0
C      1  0.4688930000000  0.5668470000000  0.5468590000000 1.0
C      1  0.5029260000000  0.5644360000000  0.4434220000000 1.0
C      1  0.4965930000000  0.5645520000000  0.5589260000000 1.0
C      1  0.4889830000000  0.4428390000000  0.5537300000000 1.0
C      1  0.5110610000000  0.4336440000000  0.4574850000000 1.0
C      1  0.5137030000000  0.4335610000000  0.5448830000000 1.0
C      1  0.4860650000000  0.4417620000000  0.4490540000000 1.0
C      1  0.4794470000000  0.5753390000000  0.5214060000000 1.0
C      1  0.5185830000000  0.5776250000000  0.4807910000000 1.0
C      1  0.5061470000000  0.5756470000000  0.5313360000000 1.0
C      1  0.4920250000000  0.5743700000000  0.4706450000000 1.0
C      1  0.4765340000000  0.5604030000000  0.4926790000000 1.0
C      1  0.5214040000000  0.5625660000000  0.5086980000000 1.0
C      1  0.5013470000000  0.5141120000000  0.5836700000000 1.0
C      1  0.5008870000000  0.5142490000000  0.4180660000000 1.0
C      1  0.5448190000000  0.4973860000000  0.4982140000000 1.0
C      1  0.4615260000000  0.4914510000000  0.4978210000000 1.0
C      1  0.4135110000000  0.4599620000000  0.5023290000000 1.0
C      1  0.5853430000000  0.4620370000000  0.4986660000000 1.0
C      1  0.5003700000000  0.5402370000000  0.4290980000000 1.0
C      1  0.5001590000000  0.5403060000000  0.5729020000000 1.0
C      1  0.5664060000000  0.5147500000000  0.4963830000000 1.0
C      1  0.4344490000000  0.5029690000000  0.4944790000000 1.0
C      1  0.5004730000000  0.5225250000000  0.4740620000000 1.0
C      1  0.5009130000000  0.5222200000000  0.5267530000000 1.0
C      1  0.5247740000000  0.4810010000000  0.4995710000000 1.0
C      1  0.4743020000000  0.4365740000000  0.5017940000000 1.0
C      1  0.4998520000000  0.5363880000000  0.5003670000000 1.0
END
