TITL C-2441165-58-1272 0.0375651824454058 125000 -26516.2850923513 0 0 176 (C1) n - 1
REM
REM in /home/bkarasulu/work/CARBON/AIRSS/Generating-Clusters/ReaxFF-fromJPCA2015/Units_Real/with-SteepDescent/Higher-Symm
REM
REM
REM
REM
REM
REM ./C.cell (1df0a924f5614ab8850e4351716899ee)
REM
REM compiler GCC version 9.2.1 20190827 (Red Hat 9.2.1-1)
REM options -cpp -mtune=generic -march=x86-64 -g -O0 -fpre-include=/usr/include/finclude/math-vector-fortran.h
REM seed 2084202352 -1075524400 -993398521 -1526877133 -2031050281 -2000090698 -1873896593 1077233900 1059696367 -853818507 1900935774 -1108931729 -978167047 1630650100 -1074798067 2099136524 1610318179 229819244 -48892852 661419042 1599648960 1958124305 1678567358 -1003380100 846773224 -705833965 -262046934 1034669259 -900187096 -264534445 849867669 1685793475 -2097609442
REM
CELL 1.54180   50.00000   50.00000   50.00000   90.00000   90.00000   90.00000
LATT -1
SFAC C  
C      1  0.4072300000000  0.4502800000000  0.5221590000000 1.0
C      1  0.4069690000000  0.4653250000000  0.4541470000000 1.0
C      1  0.4073960000000  0.5309640000000  0.4537830000000 1.0
C      1  0.4084800000000  0.5561440000000  0.5166790000000 1.0
C      1  0.4092750000000  0.5024720000000  0.5573590000000 1.0
C      1  0.4001880000000  0.5017790000000  0.5285630000000 1.0
C      1  0.3996430000000  0.4781850000000  0.5129120000000 1.0
C      1  0.4036650000000  0.4859380000000  0.4804490000000 1.0
C      1  0.3988920000000  0.5154940000000  0.4773150000000 1.0
C      1  0.4050270000000  0.5251140000000  0.5054200000000 1.0
C      1  0.5718760000000  0.4369700000000  0.4801590000000 1.0
C      1  0.5907250000000  0.5140570000000  0.4481170000000 1.0
C      1  0.5920290000000  0.5570540000000  0.4977350000000 1.0
C      1  0.5900220000000  0.5224790000000  0.5530940000000 1.0
C      1  0.5684720000000  0.4603620000000  0.5552330000000 1.0
C      1  0.5906350000000  0.4456530000000  0.5006910000000 1.0
C      1  0.5927540000000  0.4858990000000  0.4439870000000 1.0
C      1  0.5893850000000  0.5478910000000  0.4723450000000 1.0
C      1  0.5929690000000  0.5451690000000  0.5379280000000 1.0
C      1  0.5855310000000  0.4812960000000  0.5559320000000 1.0
C      1  0.4467790000000  0.5004840000000  0.5958110000000 1.0
C      1  0.4466400000000  0.4114640000000  0.5271330000000 1.0
C      1  0.4464280000000  0.4453890000000  0.4235110000000 1.0
C      1  0.4460800000000  0.5556850000000  0.4247740000000 1.0
C      1  0.4472780000000  0.5888830000000  0.5321920000000 1.0
C      1  0.4634640000000  0.5442900000000  0.4053350000000 1.0
C      1  0.4643010000000  0.6040260000000  0.5142810000000 1.0
C      1  0.4638450000000  0.5213540000000  0.6050810000000 1.0
C      1  0.4635240000000  0.4063550000000  0.5499910000000 1.0
C      1  0.4637070000000  0.4232590000000  0.4283490000000 1.0
C      1  0.5591850000000  0.4178970000000  0.5524920000000 1.0
C      1  0.5536610000000  0.4266450000000  0.4403720000000 1.0
C      1  0.5564480000000  0.5301870000000  0.4141250000000 1.0
C      1  0.5563280000000  0.5909210000000  0.4999800000000 1.0
C      1  0.5556450000000  0.5286880000000  0.5901210000000 1.0
C      1  0.4587160000000  0.4236100000000  0.5737180000000 1.0
C      1  0.4564340000000  0.4073650000000  0.4514770000000 1.0
C      1  0.4640520000000  0.5159990000000  0.4084450000000 1.0
C      1  0.4581270000000  0.6038140000000  0.4861650000000 1.0
C      1  0.4569540000000  0.5474260000000  0.5953200000000 1.0
C      1  0.4723510000000  0.4741270000000  0.5092940000000 1.0
C      1  0.4815390000000  0.4821960000000  0.4839620000000 1.0
C      1  0.4767990000000  0.5100410000000  0.4813380000000 1.0
C      1  0.4869710000000  0.5223570000000  0.5103810000000 1.0
C      1  0.4710660000000  0.5022700000000  0.5273100000000 1.0
C      1  0.5185600000000  0.5231700000000  0.4349630000000 1.0
C      1  0.5167760000000  0.5629870000000  0.5075440000000 1.0
C      1  0.5182170000000  0.5184180000000  0.5623200000000 1.0
C      1  0.5244420000000  0.4435770000000  0.5288300000000 1.0
C      1  0.5195790000000  0.4518470000000  0.4773700000000 1.0
C      1  0.5432400000000  0.4089550000000  0.4591540000000 1.0
C      1  0.5437440000000  0.5056730000000  0.4058250000000 1.0
C      1  0.5458350000000  0.5937270000000  0.4739330000000 1.0
C      1  0.5452930000000  0.5533200000000  0.5849170000000 1.0
C      1  0.5451950000000  0.4289680000000  0.5755820000000 1.0
C      1  0.4890790000000  0.4308910000000  0.4210930000000 1.0
C      1  0.4888490000000  0.5564650000000  0.4036980000000 1.0
C      1  0.4908470000000  0.6022440000000  0.5225650000000 1.0
C      1  0.4898040000000  0.5119510000000  0.6096860000000 1.0
C      1  0.4894660000000  0.3999470000000  0.5412150000000 1.0
C      1  0.4326070000000  0.5407270000000  0.5835830000000 1.0
C      1  0.4406830000000  0.4427260000000  0.5607380000000 1.0
C      1  0.4336120000000  0.4216370000000  0.4589580000000 1.0
C      1  0.4376410000000  0.5137700000000  0.4150740000000 1.0
C      1  0.4357220000000  0.5875180000000  0.4874780000000 1.0
C      1  0.5948840000000  0.5205660000000  0.4744660000000 1.0
C      1  0.6011290000000  0.5344570000000  0.5125380000000 1.0
C      1  0.5933200000000  0.5006590000000  0.5354930000000 1.0
C      1  0.6001620000000  0.4757070000000  0.4944830000000 1.0
C      1  0.5965790000000  0.4707280000000  0.4674290000000 1.0
C      1  0.4902310000000  0.4036170000000  0.5133320000000 1.0
C      1  0.4893200000000  0.4583670000000  0.4158980000000 1.0
C      1  0.4853820000000  0.5747970000000  0.4254550000000 1.0
C      1  0.4907560000000  0.5816780000000  0.5442010000000 1.0
C      1  0.4889250000000  0.4843130000000  0.6031100000000 1.0
C      1  0.5528880000000  0.4784450000000  0.4133570000000 1.0
C      1  0.5530580000000  0.5769230000000  0.4512250000000 1.0
C      1  0.5529210000000  0.5663650000000  0.5598270000000 1.0
C      1  0.5517300000000  0.4576830000000  0.5785670000000 1.0
C      1  0.5531020000000  0.4146510000000  0.4853150000000 1.0
C      1  0.5436210000000  0.4795020000000  0.5018960000000 1.0
C      1  0.5396210000000  0.4901130000000  0.4757820000000 1.0
C      1  0.5404790000000  0.5185170000000  0.4795860000000 1.0
C      1  0.5410230000000  0.5223390000000  0.5083490000000 1.0
C      1  0.5428580000000  0.4977460000000  0.5227230000000 1.0
C      1  0.4721030000000  0.4912630000000  0.3952650000000 1.0
C      1  0.4716250000000  0.5970940000000  0.4619170000000 1.0
C      1  0.4703210000000  0.5687980000000  0.5806240000000 1.0
C      1  0.4732860000000  0.4424510000000  0.5896180000000 1.0
C      1  0.4699410000000  0.3982590000000  0.4752210000000 1.0
C      1  0.4787900000000  0.5003140000000  0.5545500000000 1.0
C      1  0.4807790000000  0.4506740000000  0.5217020000000 1.0
C      1  0.4824140000000  0.4646000000000  0.4633360000000 1.0
C      1  0.4799700000000  0.5254150000000  0.4568090000000 1.0
C      1  0.4758100000000  0.5492800000000  0.5140460000000 1.0
C      1  0.5182550000000  0.5131910000000  0.3923950000000 1.0
C      1  0.5196350000000  0.6054450000000  0.4786740000000 1.0
C      1  0.5183250000000  0.5532110000000  0.5957530000000 1.0
C      1  0.5181200000000  0.4201210000000  0.5785880000000 1.0
C      1  0.5165510000000  0.4018600000000  0.4516450000000 1.0
C      1  0.5133830000000  0.4059040000000  0.5541210000000 1.0
C      1  0.5123260000000  0.4172720000000  0.4274820000000 1.0
C      1  0.5123300000000  0.5408670000000  0.3967120000000 1.0
C      1  0.5137750000000  0.6074940000000  0.5066970000000 1.0
C      1  0.5135590000000  0.5266940000000  0.6058640000000 1.0
C      1  0.5356380000000  0.4322040000000  0.4194620000000 1.0
C      1  0.5329840000000  0.5479160000000  0.4158620000000 1.0
C      1  0.5337170000000  0.5898510000000  0.5178220000000 1.0
C      1  0.5335770000000  0.5109710000000  0.5909130000000 1.0
C      1  0.5342890000000  0.4145580000000  0.5339790000000 1.0
C      1  0.4255120000000  0.4807440000000  0.5549950000000 1.0
C      1  0.4178280000000  0.4442740000000  0.4972410000000 1.0
C      1  0.4161860000000  0.4820820000000  0.4351570000000 1.0
C      1  0.4197350000000  0.5507290000000  0.4670140000000 1.0
C      1  0.4146160000000  0.5526390000000  0.5413380000000 1.0
C      1  0.4994800000000  0.6014280000000  0.4587030000000 1.0
C      1  0.4991570000000  0.5722550000000  0.5846570000000 1.0
C      1  0.5010300000000  0.4403540000000  0.5925670000000 1.0
C      1  0.4985640000000  0.3936530000000  0.4728010000000 1.0
C      1  0.4999320000000  0.4908980000000  0.3877920000000 1.0
C      1  0.4348480000000  0.5213890000000  0.5025210000000 1.0
C      1  0.4438490000000  0.5001910000000  0.5194670000000 1.0
C      1  0.4418290000000  0.4753220000000  0.5045230000000 1.0
C      1  0.4337430000000  0.4861160000000  0.4782760000000 1.0
C      1  0.4465400000000  0.5126180000000  0.4772970000000 1.0
C      1  0.4521300000000  0.5787420000000  0.5594560000000 1.0
C      1  0.4624320000000  0.4745670000000  0.5930180000000 1.0
C      1  0.4528690000000  0.4047300000000  0.4988720000000 1.0
C      1  0.4574880000000  0.4674290000000  0.4062190000000 1.0
C      1  0.4592210000000  0.5791810000000  0.4399390000000 1.0
C      1  0.5163050000000  0.5359030000000  0.5155680000000 1.0
C      1  0.5265050000000  0.4955210000000  0.5469500000000 1.0
C      1  0.5321890000000  0.4546140000000  0.5034410000000 1.0
C      1  0.5230030000000  0.4735030000000  0.4590020000000 1.0
C      1  0.5235480000000  0.5343450000000  0.4612780000000 1.0
C      1  0.5372290000000  0.4786320000000  0.5926320000000 1.0
C      1  0.5363490000000  0.4039640000000  0.5056500000000 1.0
C      1  0.5346870000000  0.4579120000000  0.4055380000000 1.0
C      1  0.5330130000000  0.5734420000000  0.4321260000000 1.0
C      1  0.5370670000000  0.5863870000000  0.5491320000000 1.0
C      1  0.5766350000000  0.5344670000000  0.4331700000000 1.0
C      1  0.5763670000000  0.5760110000000  0.5114210000000 1.0
C      1  0.5790130000000  0.5184180000000  0.5798490000000 1.0
C      1  0.5783920000000  0.4357350000000  0.5473440000000 1.0
C      1  0.5667560000000  0.4473550000000  0.4525960000000 1.0
C      1  0.4929850000000  0.5097940000000  0.4352550000000 1.0
C      1  0.4923740000000  0.5621180000000  0.4920130000000 1.0
C      1  0.4911600000000  0.5273330000000  0.5571120000000 1.0
C      1  0.5006660000000  0.4545180000000  0.5408420000000 1.0
C      1  0.4929440000000  0.4405870000000  0.4764840000000 1.0
C      1  0.4377860000000  0.5701200000000  0.4652020000000 1.0
C      1  0.4289970000000  0.5600960000000  0.5632970000000 1.0
C      1  0.4509690000000  0.4711580000000  0.5634590000000 1.0
C      1  0.4346200000000  0.4239720000000  0.4865960000000 1.0
C      1  0.4338860000000  0.4868460000000  0.4162740000000 1.0
C      1  0.4856290000000  0.4304650000000  0.5028970000000 1.0
C      1  0.4983770000000  0.4780010000000  0.4418160000000 1.0
C      1  0.4971810000000  0.5461430000000  0.4676450000000 1.0
C      1  0.4840530000000  0.5526430000000  0.5416560000000 1.0
C      1  0.5013010000000  0.4812580000000  0.5522720000000 1.0
C      1  0.4285750000000  0.4327270000000  0.5360500000000 1.0
C      1  0.4252350000000  0.4432080000000  0.4432100000000 1.0
C      1  0.4267150000000  0.5351060000000  0.4294990000000 1.0
C      1  0.4266900000000  0.5800250000000  0.5136550000000 1.0
C      1  0.4262960000000  0.5136210000000  0.5805550000000 1.0
C      1  0.5112380000000  0.3935960000000  0.4982390000000 1.0
C      1  0.5085260000000  0.4653730000000  0.3971440000000 1.0
C      1  0.5082440000000  0.5864070000000  0.4359800000000 1.0
C      1  0.5116890000000  0.5881200000000  0.5635510000000 1.0
C      1  0.5120560000000  0.4676560000000  0.5999080000000 1.0
C      1  0.5749720000000  0.4906990000000  0.5800140000000 1.0
C      1  0.5835930000000  0.4347950000000  0.5244730000000 1.0
C      1  0.5715890000000  0.4699430000000  0.4342910000000 1.0
C      1  0.5745600000000  0.5575700000000  0.4497620000000 1.0
C      1  0.5740670000000  0.5677540000000  0.5395480000000 1.0
C      1  0.5950100000000  0.5032190000000  0.5059400000000 1.0
END
