TITL C-2441164-471-889 0.00451491888380575 125000 -13832.1607674059 0 0 94 (C1) n - 1
REM
REM in /home/bkarasulu/work/CARBON/AIRSS/Generating-Clusters/ReaxFF-fromJPCA2015/Units_Real/with-SteepDescent/Higher-Symm
REM
REM
REM
REM
REM
REM ./C.cell (1df0a924f5614ab8850e4351716899ee)
REM
REM compiler GCC version 9.2.1 20190827 (Red Hat 9.2.1-1)
REM options -cpp -mtune=generic -march=x86-64 -g -O0 -fpre-include=/usr/include/finclude/math-vector-fortran.h
REM seed 846792258 224219638 -1978828632 -454343929 -775102540 1744935857 456589795 -1388392406 2061608042 -1445864208 1212981264 98184715 1239737521 1511930492 -586154063 1426590140 -744125616 -1038794058 -1499132023 -1405549279 -1022763267 -1673393859 934163097 2100384939 1078302686 -1551634782 -643256001 1328392734 -982188597 -660551221 1658304259 -330764008 -1919226614
REM
CELL 1.54180   50.00000   50.00000   50.00000   90.00000   90.00000   90.00000
LATT -1
SFAC C  
C      1  0.5564690000000  0.4355330000000  0.5006610000000 1.0
C      1  0.5624940000000  0.4895370000000  0.5495200000000 1.0
C      1  0.5599110000000  0.5446540000000  0.5302920000000 1.0
C      1  0.5642220000000  0.5454610000000  0.4590480000000 1.0
C      1  0.5668140000000  0.4768410000000  0.4503190000000 1.0
C      1  0.4337270000000  0.4489840000000  0.4934230000000 1.0
C      1  0.4396640000000  0.4831500000000  0.4372270000000 1.0
C      1  0.4478890000000  0.5330640000000  0.4684600000000 1.0
C      1  0.4361280000000  0.5489660000000  0.5410860000000 1.0
C      1  0.4473220000000  0.4850630000000  0.5477780000000 1.0
C      1  0.4666420000000  0.4323570000000  0.4485160000000 1.0
C      1  0.4662030000000  0.4345020000000  0.5481060000000 1.0
C      1  0.4569270000000  0.5270680000000  0.5760760000000 1.0
C      1  0.4644630000000  0.5765150000000  0.4976450000000 1.0
C      1  0.4692740000000  0.5228300000000  0.4165360000000 1.0
C      1  0.5315980000000  0.4326520000000  0.5470470000000 1.0
C      1  0.5315680000000  0.4307540000000  0.4506070000000 1.0
C      1  0.5327560000000  0.5280550000000  0.4231310000000 1.0
C      1  0.5247120000000  0.5859790000000  0.5051610000000 1.0
C      1  0.5228080000000  0.5250870000000  0.5818210000000 1.0
C      1  0.5002590000000  0.5365520000000  0.4892780000000 1.0
C      1  0.4995730000000  0.5003320000000  0.4530890000000 1.0
C      1  0.4994980000000  0.4557210000000  0.4841650000000 1.0
C      1  0.5004520000000  0.4748600000000  0.5345380000000 1.0
C      1  0.4765710000000  0.5320540000000  0.5283070000000 1.0
C      1  0.4984170000000  0.5208270000000  0.5135910000000 1.0
C      1  0.5132800000000  0.5017860000000  0.5331320000000 1.0
C      1  0.4997590000000  0.4560440000000  0.5129690000000 1.0
C      1  0.5001800000000  0.4729690000000  0.4612750000000 1.0
C      1  0.5023930000000  0.5261700000000  0.4634430000000 1.0
C      1  0.5680050000000  0.4604590000000  0.5013210000000 1.0
C      1  0.5564100000000  0.4686600000000  0.5267730000000 1.0
C      1  0.5835880000000  0.5133100000000  0.5117200000000 1.0
C      1  0.5810540000000  0.5433470000000  0.4831250000000 1.0
C      1  0.5805630000000  0.5015360000000  0.4589830000000 1.0
C      1  0.4268970000000  0.4672620000000  0.5156520000000 1.0
C      1  0.4265250000000  0.4898780000000  0.4609140000000 1.0
C      1  0.4235750000000  0.5168530000000  0.4746950000000 1.0
C      1  0.4275080000000  0.5169710000000  0.5041090000000 1.0
C      1  0.4232240000000  0.5019210000000  0.5483520000000 1.0
C      1  0.4557510000000  0.5701760000000  0.5476960000000 1.0
C      1  0.4564760000000  0.5561090000000  0.4520950000000 1.0
C      1  0.4576030000000  0.4734760000000  0.4186470000000 1.0
C      1  0.4521990000000  0.4268710000000  0.4976420000000 1.0
C      1  0.4625820000000  0.4787780000000  0.5721350000000 1.0
C      1  0.5434110000000  0.5649790000000  0.4584890000000 1.0
C      1  0.5403220000000  0.5591880000000  0.5469270000000 1.0
C      1  0.5460910000000  0.4779250000000  0.5723220000000 1.0
C      1  0.5399250000000  0.4140450000000  0.4993250000000 1.0
C      1  0.5463460000000  0.4759750000000  0.4294460000000 1.0
C      1  0.4680700000000  0.4193740000000  0.4735340000000 1.0
C      1  0.4752180000000  0.4516300000000  0.5686850000000 1.0
C      1  0.4684230000000  0.5537930000000  0.5688370000000 1.0
C      1  0.4692200000000  0.5737910000000  0.4694280000000 1.0
C      1  0.4750510000000  0.4968520000000  0.4092150000000 1.0
C      1  0.5242890000000  0.4156460000000  0.5258350000000 1.0
C      1  0.5302490000000  0.4508320000000  0.4305220000000 1.0
C      1  0.5274360000000  0.5537910000000  0.4350990000000 1.0
C      1  0.5287180000000  0.5829720000000  0.5341630000000 1.0
C      1  0.5284920000000  0.4964590000000  0.5852480000000 1.0
C      1  0.4723060000000  0.5807140000000  0.5251360000000 1.0
C      1  0.4733290000000  0.5474560000000  0.4296900000000 1.0
C      1  0.4735810000000  0.4485740000000  0.4269970000000 1.0
C      1  0.4670900000000  0.4213880000000  0.5233700000000 1.0
C      1  0.4749240000000  0.5041000000000  0.5784490000000 1.0
C      1  0.5415990000000  0.5694900000000  0.4877260000000 1.0
C      1  0.5188920000000  0.5457930000000  0.5617450000000 1.0
C      1  0.5310160000000  0.4523990000000  0.5673670000000 1.0
C      1  0.5245460000000  0.4148190000000  0.4725830000000 1.0
C      1  0.5315600000000  0.4999140000000  0.4177700000000 1.0
C      1  0.5559610000000  0.5168570000000  0.4582380000000 1.0
C      1  0.5535460000000  0.4743090000000  0.4775070000000 1.0
C      1  0.5417440000000  0.4937110000000  0.5271610000000 1.0
C      1  0.5734850000000  0.5189070000000  0.5367640000000 1.0
C      1  0.5620620000000  0.5543780000000  0.5025570000000 1.0
C      1  0.4319300000000  0.5269310000000  0.5607990000000 1.0
C      1  0.4542250000000  0.4760350000000  0.5205810000000 1.0
C      1  0.4439180000000  0.4707380000000  0.4760320000000 1.0
C      1  0.4634200000000  0.5137980000000  0.4827530000000 1.0
C      1  0.4480160000000  0.5341290000000  0.5187230000000 1.0
C      1  0.4874370000000  0.5627530000000  0.4864360000000 1.0
C      1  0.5019950000000  0.4990580000000  0.4231810000000 1.0
C      1  0.4974580000000  0.4269180000000  0.4759330000000 1.0
C      1  0.5026890000000  0.4601890000000  0.5601670000000 1.0
C      1  0.4905940000000  0.5462280000000  0.5513750000000 1.0
C      1  0.5014110000000  0.5826760000000  0.5236040000000 1.0
C      1  0.5041920000000  0.5054780000000  0.5689460000000 1.0
C      1  0.4970280000000  0.4274830000000  0.5222520000000 1.0
C      1  0.5010130000000  0.4558070000000  0.4366910000000 1.0
C      1  0.5005650000000  0.5454850000000  0.4425790000000 1.0
C      1  0.4162360000000  0.4950080000000  0.5206310000000 1.0
C      1  0.5903060000000  0.5149690000000  0.4846120000000 1.0
C      1  0.5404970000000  0.5007340000000  0.4794950000000 1.0
C      1  0.4619820000000  0.4872040000000  0.4932160000000 1.0
END
