TITL C-2441162-9305-347 0.00285368435243546 125000 -4024.67997761927 0 0 30 (C1) n - 1
REM
REM in /home/bkarasulu/work/CARBON/AIRSS/Generating-Clusters/ReaxFF-fromJPCA2015/Units_Real/with-SteepDescent/Higher-Symm
REM
REM
REM
REM
REM
REM ./C.cell (1df0a924f5614ab8850e4351716899ee)
REM
REM compiler GCC version 9.2.1 20190827 (Red Hat 9.2.1-1)
REM options -cpp -mtune=generic -march=x86-64 -g -O0 -fpre-include=/usr/include/finclude/math-vector-fortran.h
REM seed -699820955 1481475668 2092376260 -1764131539 1837941307 -602152947 1352692862 241790900 1251034501 723711186 -256188574 -611412870 -2083862176 -1633757927 -268783736 -158592126 767092662 -476416371 -1489420362 -572818053 2037757943 695101112 1299174110 743569183 -1211418413 -179287495 1132427992 212784490 953744300 -1179373324 -1044635011 1803287786 -176044135
REM
CELL 1.54180   50.00000   50.00000   50.00000   90.00000   90.00000   90.00000
LATT -1
SFAC C  
C      1  0.5153790000000  0.4398040000000  0.4957440000000 1.0
C      1  0.5157240000000  0.5299540000000  0.5565130000000 1.0
C      1  0.5177970000000  0.5312900000000  0.4537070000000 1.0
C      1  0.4902260000000  0.5189350000000  0.5529950000000 1.0
C      1  0.4894080000000  0.5381330000000  0.4538260000000 1.0
C      1  0.4863060000000  0.4428170000000  0.4891560000000 1.0
C      1  0.5123020000000  0.5387100000000  0.5065760000000 1.0
C      1  0.5173830000000  0.4853170000000  0.4595720000000 1.0
C      1  0.5165010000000  0.4705120000000  0.5326030000000 1.0
C      1  0.4528710000000  0.4860510000000  0.4929190000000 1.0
C      1  0.4522210000000  0.5039220000000  0.5162360000000 1.0
C      1  0.4524890000000  0.5151660000000  0.4898710000000 1.0
C      1  0.5351670000000  0.5083500000000  0.4620090000000 1.0
C      1  0.5333940000000  0.4581660000000  0.5103380000000 1.0
C      1  0.5309690000000  0.5342720000000  0.5284110000000 1.0
C      1  0.4952070000000  0.4827810000000  0.4428150000000 1.0
C      1  0.4955480000000  0.4565410000000  0.5456540000000 1.0
C      1  0.4876770000000  0.5567960000000  0.5051800000000 1.0
C      1  0.5521310000000  0.5039650000000  0.4861380000000 1.0
C      1  0.5521250000000  0.4760440000000  0.4961070000000 1.0
C      1  0.5499930000000  0.5192400000000  0.5125210000000 1.0
C      1  0.4973540000000  0.5173520000000  0.4930670000000 1.0
C      1  0.5008310000000  0.4882220000000  0.4843590000000 1.0
C      1  0.4995190000000  0.4921210000000  0.5247420000000 1.0
C      1  0.4747490000000  0.5019650000000  0.5366070000000 1.0
C      1  0.4749430000000  0.5342300000000  0.4810680000000 1.0
C      1  0.4767420000000  0.4708940000000  0.4848960000000 1.0
C      1  0.4746480000000  0.4817030000000  0.4299380000000 1.0
C      1  0.4747350000000  0.4472360000000  0.5533350000000 1.0
C      1  0.4756600000000  0.5695130000000  0.5230980000000 1.0
END
