TITL C-2441161-5029-659 0.0195188400406508 125000 -23116.7788905336 0 0 154 (C1) n - 1
REM
REM in /home/bkarasulu/work/CARBON/AIRSS/Generating-Clusters/ReaxFF-fromJPCA2015/Units_Real/with-SteepDescent/Higher-Symm
REM
REM
REM
REM
REM
REM ./C.cell (1df0a924f5614ab8850e4351716899ee)
REM
REM compiler GCC version 9.2.1 20190827 (Red Hat 9.2.1-1)
REM options -cpp -mtune=generic -march=x86-64 -g -O0 -fpre-include=/usr/include/finclude/math-vector-fortran.h
REM seed -1185686750 -1577223965 -1947012942 125133878 1297187096 -1861120324 885137608 -151182083 -462075505 1890744918 -1079487469 174849336 -1606096374 1757148856 784653289 783236709 -563045472 1222992024 1887980176 1590712839 844605451 -2107381484 -263569067 505134611 1444733631 -221156587 316661786 1157827832 2016855505 459239487 1602939674 -995669851 -1327056563
REM
CELL 1.54180   50.00000   50.00000   50.00000   90.00000   90.00000   90.00000
LATT -1
SFAC C  
C      1  0.4188340000000  0.4886350000000  0.4701700000000 1.0
C      1  0.4128330000000  0.4660430000000  0.4869320000000 1.0
C      1  0.4083080000000  0.4690420000000  0.5168670000000 1.0
C      1  0.4138960000000  0.4948440000000  0.5285020000000 1.0
C      1  0.4106540000000  0.5138140000000  0.5096000000000 1.0
C      1  0.4183600000000  0.5319550000000  0.4916950000000 1.0
C      1  0.4105650000000  0.5164870000000  0.4682400000000 1.0
C      1  0.5220020000000  0.4620540000000  0.4584760000000 1.0
C      1  0.5089730000000  0.4353250000000  0.5108210000000 1.0
C      1  0.5077590000000  0.4698510000000  0.5566950000000 1.0
C      1  0.5193480000000  0.5143600000000  0.5553440000000 1.0
C      1  0.5229660000000  0.5490660000000  0.5220850000000 1.0
C      1  0.5227870000000  0.5466840000000  0.4759160000000 1.0
C      1  0.5213690000000  0.5100590000000  0.4471960000000 1.0
C      1  0.5196350000000  0.5952100000000  0.4628600000000 1.0
C      1  0.5194980000000  0.5311080000000  0.3959810000000 1.0
C      1  0.5192970000000  0.4383170000000  0.4092270000000 1.0
C      1  0.5165460000000  0.3992440000000  0.4859320000000 1.0
C      1  0.5177620000000  0.4254390000000  0.5696330000000 1.0
C      1  0.5198370000000  0.5156010000000  0.6013900000000 1.0
C      1  0.5220460000000  0.5913700000000  0.5524080000000 1.0
C      1  0.5238440000000  0.5028780000000  0.4014780000000 1.0
C      1  0.5255720000000  0.4233510000000  0.4340680000000 1.0
C      1  0.5362100000000  0.4060140000000  0.5219370000000 1.0
C      1  0.5320750000000  0.4604760000000  0.5951990000000 1.0
C      1  0.5207740000000  0.5453180000000  0.5942630000000 1.0
C      1  0.5210170000000  0.6031820000000  0.5238250000000 1.0
C      1  0.5226850000000  0.5793220000000  0.4377900000000 1.0
C      1  0.4589480000000  0.5200970000000  0.4741810000000 1.0
C      1  0.4515380000000  0.4936130000000  0.4658350000000 1.0
C      1  0.4577630000000  0.4757880000000  0.4864300000000 1.0
C      1  0.4535240000000  0.4783670000000  0.5133000000000 1.0
C      1  0.4464640000000  0.5006570000000  0.5323350000000 1.0
C      1  0.4554060000000  0.5258210000000  0.5222980000000 1.0
C      1  0.4509930000000  0.5363720000000  0.4963990000000 1.0
C      1  0.4493590000000  0.4313640000000  0.5611240000000 1.0
C      1  0.4434430000000  0.5086640000000  0.5829750000000 1.0
C      1  0.4502900000000  0.5760890000000  0.5547710000000 1.0
C      1  0.4449530000000  0.5772350000000  0.4733330000000 1.0
C      1  0.4354520000000  0.5201800000000  0.4233370000000 1.0
C      1  0.4455410000000  0.4523840000000  0.4258070000000 1.0
C      1  0.4399920000000  0.4210030000000  0.4938370000000 1.0
C      1  0.4755680000000  0.4222320000000  0.4362750000000 1.0
C      1  0.4760530000000  0.4051630000000  0.5194260000000 1.0
C      1  0.4789720000000  0.4539520000000  0.5919020000000 1.0
C      1  0.4728930000000  0.5452390000000  0.5900630000000 1.0
C      1  0.4744770000000  0.6054930000000  0.5246790000000 1.0
C      1  0.4737350000000  0.5776900000000  0.4365770000000 1.0
C      1  0.4752290000000  0.5053890000000  0.4003790000000 1.0
C      1  0.4956650000000  0.5015130000000  0.5972250000000 1.0
C      1  0.4979630000000  0.5827120000000  0.5659960000000 1.0
C      1  0.4947450000000  0.5986860000000  0.4777120000000 1.0
C      1  0.4962530000000  0.5465710000000  0.4067380000000 1.0
C      1  0.4957850000000  0.4581480000000  0.4058940000000 1.0
C      1  0.4925720000000  0.4016220000000  0.4736170000000 1.0
C      1  0.4970750000000  0.4154260000000  0.5605440000000 1.0
C      1  0.5437240000000  0.5402870000000  0.4091090000000 1.0
C      1  0.5417550000000  0.4545970000000  0.4124410000000 1.0
C      1  0.5426380000000  0.4008710000000  0.4938840000000 1.0
C      1  0.5406460000000  0.4365330000000  0.5794520000000 1.0
C      1  0.5452850000000  0.5018610000000  0.5938680000000 1.0
C      1  0.5436750000000  0.5738690000000  0.5582300000000 1.0
C      1  0.5429140000000  0.5921620000000  0.4803350000000 1.0
C      1  0.5231390000000  0.4596720000000  0.5099420000000 1.0
C      1  0.5284480000000  0.4694530000000  0.5365860000000 1.0
C      1  0.5293990000000  0.4991020000000  0.5339690000000 1.0
C      1  0.5286120000000  0.5211040000000  0.5160350000000 1.0
C      1  0.5285150000000  0.5219400000000  0.4881310000000 1.0
C      1  0.5269300000000  0.5000370000000  0.4740660000000 1.0
C      1  0.5337170000000  0.4713640000000  0.4845990000000 1.0
C      1  0.4704060000000  0.5887100000000  0.4640290000000 1.0
C      1  0.4715870000000  0.5336100000000  0.4102280000000 1.0
C      1  0.4730750000000  0.4447460000000  0.4166830000000 1.0
C      1  0.4673430000000  0.4065860000000  0.4919950000000 1.0
C      1  0.4748440000000  0.4303260000000  0.5752480000000 1.0
C      1  0.4705330000000  0.5159090000000  0.5938230000000 1.0
C      1  0.4748060000000  0.5910750000000  0.5510010000000 1.0
C      1  0.4561360000000  0.4699570000000  0.5915310000000 1.0
C      1  0.4488950000000  0.5562310000000  0.5773160000000 1.0
C      1  0.4522680000000  0.5971080000000  0.5094400000000 1.0
C      1  0.4558750000000  0.5558240000000  0.4284590000000 1.0
C      1  0.4508030000000  0.4920460000000  0.3986250000000 1.0
C      1  0.4549510000000  0.4195980000000  0.4559520000000 1.0
C      1  0.4535910000000  0.4138610000000  0.5367080000000 1.0
C      1  0.5878330000000  0.4542230000000  0.5332170000000 1.0
C      1  0.5822580000000  0.4929660000000  0.5558010000000 1.0
C      1  0.5833050000000  0.5395730000000  0.5396750000000 1.0
C      1  0.5819520000000  0.5555070000000  0.4916050000000 1.0
C      1  0.5780030000000  0.5267600000000  0.4490260000000 1.0
C      1  0.5810110000000  0.4758460000000  0.4440040000000 1.0
C      1  0.5769550000000  0.4379090000000  0.4886390000000 1.0
C      1  0.5720480000000  0.4484250000000  0.4480160000000 1.0
C      1  0.5798910000000  0.4313390000000  0.5173750000000 1.0
C      1  0.5760700000000  0.4638620000000  0.5599400000000 1.0
C      1  0.5744960000000  0.5203100000000  0.5600220000000 1.0
C      1  0.5745430000000  0.5589620000000  0.5197040000000 1.0
C      1  0.5710470000000  0.5526780000000  0.4636350000000 1.0
C      1  0.5711700000000  0.5030610000000  0.4327340000000 1.0
C      1  0.4776430000000  0.5540270000000  0.4961620000000 1.0
C      1  0.4800970000000  0.5297080000000  0.4602710000000 1.0
C      1  0.4766870000000  0.4866290000000  0.4485440000000 1.0
C      1  0.4768860000000  0.4572120000000  0.4799450000000 1.0
C      1  0.4701400000000  0.4593240000000  0.5243640000000 1.0
C      1  0.4697430000000  0.4965260000000  0.5511730000000 1.0
C      1  0.4780010000000  0.5358500000000  0.5350750000000 1.0
C      1  0.4314350000000  0.4550100000000  0.5608590000000 1.0
C      1  0.4307240000000  0.5338720000000  0.5716090000000 1.0
C      1  0.4326200000000  0.5675290000000  0.5321340000000 1.0
C      1  0.4372510000000  0.5584430000000  0.4501330000000 1.0
C      1  0.4295970000000  0.4957710000000  0.4123770000000 1.0
C      1  0.4329110000000  0.4359090000000  0.4485620000000 1.0
C      1  0.4319890000000  0.4247980000000  0.5218390000000 1.0
C      1  0.4924520000000  0.5096230000000  0.4437830000000 1.0
C      1  0.4927110000000  0.4644370000000  0.4567340000000 1.0
C      1  0.4837680000000  0.4455300000000  0.5041320000000 1.0
C      1  0.4808610000000  0.4709380000000  0.5482900000000 1.0
C      1  0.4901610000000  0.5170380000000  0.5540540000000 1.0
C      1  0.4944680000000  0.5546080000000  0.5194330000000 1.0
C      1  0.4941290000000  0.5511620000000  0.4735880000000 1.0
C      1  0.5835140000000  0.5118900000000  0.4724350000000 1.0
C      1  0.5821960000000  0.4844800000000  0.4709250000000 1.0
C      1  0.5689580000000  0.4675860000000  0.4894370000000 1.0
C      1  0.5816130000000  0.4733370000000  0.5144010000000 1.0
C      1  0.5836640000000  0.4956670000000  0.5280200000000 1.0
C      1  0.5853560000000  0.5198300000000  0.5196820000000 1.0
C      1  0.5856370000000  0.5276590000000  0.4946710000000 1.0
C      1  0.5433790000000  0.5536040000000  0.5785410000000 1.0
C      1  0.5434000000000  0.5946920000000  0.5091000000000 1.0
C      1  0.5441420000000  0.5595560000000  0.4322550000000 1.0
C      1  0.5474770000000  0.4936760000000  0.4190180000000 1.0
C      1  0.5537720000000  0.4270250000000  0.4481200000000 1.0
C      1  0.5558110000000  0.4240370000000  0.5326300000000 1.0
C      1  0.5536120000000  0.4757660000000  0.5864540000000 1.0
C      1  0.4228570000000  0.5463880000000  0.5469830000000 1.0
C      1  0.4338920000000  0.5797630000000  0.5009670000000 1.0
C      1  0.4238260000000  0.5327980000000  0.4451090000000 1.0
C      1  0.4296760000000  0.4717280000000  0.4247260000000 1.0
C      1  0.4256740000000  0.4406010000000  0.4771390000000 1.0
C      1  0.4190500000000  0.4489390000000  0.5353410000000 1.0
C      1  0.4340790000000  0.4804360000000  0.5797510000000 1.0
C      1  0.5383440000000  0.5306390000000  0.4364420000000 1.0
C      1  0.5383070000000  0.4699240000000  0.4347260000000 1.0
C      1  0.5606040000000  0.4186540000000  0.4751540000000 1.0
C      1  0.5513740000000  0.4473400000000  0.5521400000000 1.0
C      1  0.5476580000000  0.5236250000000  0.5714350000000 1.0
C      1  0.5474300000000  0.5687180000000  0.5266450000000 1.0
C      1  0.5455760000000  0.5633710000000  0.4732980000000 1.0
C      1  0.5042270000000  0.4721940000000  0.5861110000000 1.0
C      1  0.4974240000000  0.5600120000000  0.5857770000000 1.0
C      1  0.4975560000000  0.6054180000000  0.5066040000000 1.0
C      1  0.4990170000000  0.5713990000000  0.4236370000000 1.0
C      1  0.4992110000000  0.4871590000000  0.4004900000000 1.0
C      1  0.5016020000000  0.4136880000000  0.4473100000000 1.0
C      1  0.5046170000000  0.4120820000000  0.5288660000000 1.0
END
