TITL C-2441168-9922-1167 0.0121554036367678 125000 -7682.70535979129 0 0 54 (C1) n - 1
REM
REM in /home/bkarasulu/work/CARBON/AIRSS/Generating-Clusters/ReaxFF-fromJPCA2015/Units_Real/with-SteepDescent/Higher-Symm
REM
REM
REM
REM
REM
REM ./C.cell (1df0a924f5614ab8850e4351716899ee)
REM
REM compiler GCC version 9.2.1 20190827 (Red Hat 9.2.1-1)
REM options -cpp -mtune=generic -march=x86-64 -g -O0 -fpre-include=/usr/include/finclude/math-vector-fortran.h
REM seed 246137174 -416221686 -1159394899 1205090102 -1188661795 -793372250 -85209495 887476554 -1808516859 -434305592 510401029 -1685741080 1882348204 930077053 -2047957762 802330334 1471647947 -679369651 -445292643 -1088350877 795159723 313125375 1235454888 -1290259610 23488680 1599418192 1705488910 -1904036239 -1133817770 -1143410083 85091374 -766456591 -952979658
REM
CELL 1.54180   50.00000   50.00000   50.00000   90.00000   90.00000   90.00000
LATT -1
SFAC C  
C      1  0.4413870000000  0.4841390000000  0.5514750000000 1.0
C      1  0.4909650000000  0.4703270000000  0.5652730000000 1.0
C      1  0.5418390000000  0.4868040000000  0.5677170000000 1.0
C      1  0.5627430000000  0.4689640000000  0.5220580000000 1.0
C      1  0.5619120000000  0.4694740000000  0.4750190000000 1.0
C      1  0.5382150000000  0.4850600000000  0.4300710000000 1.0
C      1  0.4879960000000  0.4683020000000  0.4335010000000 1.0
C      1  0.4386820000000  0.4848290000000  0.4502600000000 1.0
C      1  0.4328300000000  0.4682340000000  0.5002470000000 1.0
C      1  0.5283170000000  0.5502190000000  0.4687970000000 1.0
C      1  0.5012500000000  0.5532580000000  0.4582850000000 1.0
C      1  0.4742100000000  0.5501200000000  0.4675000000000 1.0
C      1  0.4581490000000  0.5535320000000  0.4916470000000 1.0
C      1  0.4629090000000  0.5503400000000  0.5197810000000 1.0
C      1  0.4840690000000  0.5547500000000  0.5391230000000 1.0
C      1  0.5126680000000  0.5525500000000  0.5387790000000 1.0
C      1  0.5365140000000  0.5535670000000  0.5217270000000 1.0
C      1  0.5444510000000  0.5529700000000  0.4933070000000 1.0
C      1  0.5600800000000  0.4854040000000  0.5449730000000 1.0
C      1  0.5736000000000  0.4803400000000  0.4979690000000 1.0
C      1  0.5496510000000  0.4855640000000  0.4557180000000 1.0
C      1  0.5092350000000  0.4842590000000  0.4251030000000 1.0
C      1  0.4657600000000  0.4839450000000  0.4405950000000 1.0
C      1  0.4287080000000  0.4839900000000  0.4776260000000 1.0
C      1  0.4378820000000  0.4838510000000  0.5230260000000 1.0
C      1  0.4663450000000  0.4839530000000  0.5668190000000 1.0
C      1  0.5144340000000  0.4826140000000  0.5732180000000 1.0
C      1  0.4937330000000  0.4481620000000  0.5428930000000 1.0
C      1  0.5178920000000  0.4486050000000  0.5283350000000 1.0
C      1  0.5413410000000  0.4494360000000  0.5147090000000 1.0
C      1  0.5408220000000  0.4494370000000  0.4834760000000 1.0
C      1  0.5171730000000  0.4484440000000  0.4705040000000 1.0
C      1  0.4924790000000  0.4477040000000  0.4564650000000 1.0
C      1  0.4750300000000  0.4471420000000  0.4786990000000 1.0
C      1  0.4563600000000  0.4475980000000  0.5000300000000 1.0
C      1  0.4755950000000  0.4472240000000  0.5212460000000 1.0
C      1  0.5075670000000  0.5330420000000  0.4376060000000 1.0
C      1  0.4552120000000  0.5307170000000  0.4581470000000 1.0
C      1  0.4396550000000  0.5329580000000  0.4816550000000 1.0
C      1  0.4511960000000  0.5310550000000  0.5370950000000 1.0
C      1  0.4717430000000  0.5339570000000  0.5564210000000 1.0
C      1  0.5232570000000  0.5292170000000  0.5513740000000 1.0
C      1  0.5465150000000  0.5307120000000  0.5369600000000 1.0
C      1  0.5600050000000  0.5297700000000  0.4909240000000 1.0
C      1  0.5340950000000  0.5315150000000  0.4476790000000 1.0
C      1  0.4520140000000  0.5084940000000  0.4419880000000 1.0
C      1  0.4323920000000  0.5075600000000  0.4906560000000 1.0
C      1  0.4352140000000  0.5080900000000  0.5372620000000 1.0
C      1  0.4771700000000  0.5080960000000  0.5642780000000 1.0
C      1  0.5235120000000  0.5092710000000  0.5720840000000 1.0
C      1  0.5587380000000  0.5071890000000  0.5361350000000 1.0
C      1  0.5698320000000  0.5065890000000  0.4902300000000 1.0
C      1  0.5493070000000  0.5089430000000  0.4417940000000 1.0
C      1  0.4973520000000  0.5077120000000  0.4317360000000 1.0
END
