TITL C-2441158-471-148 0.0869743820395553 125000 -947.607939238532 0 0 32 (D3h) n - 1
REM
REM in /home/bkarasulu/work/CARBON/AIRSS/Generating-Clusters/ReaxFF-fromJPCA2015/Units_Real/with-SteepDescent/Higher-Symm
REM
REM
REM
REM
REM
REM ./C.cell (1df0a924f5614ab8850e4351716899ee)
REM
REM compiler GCC version 9.2.1 20190827 (Red Hat 9.2.1-1)
REM options -cpp -mtune=generic -march=x86-64 -g -O0 -fpre-include=/usr/include/finclude/math-vector-fortran.h
REM seed 425043955 1023239518 1636293443 2125041802 83513136 -1539328322 1383504156 -957480236 -1256505136 -1417019643 -10768451 1976741520 496418362 -1596505013 -586307144 -2136676560 738620050 1779065701 -243915755 2047977355 -1712496823 165588924 1615508911 -994375691 -874960075 457248920 1833570160 -73672679 -332426822 1999785680 1805117072 -1942312491 -898303079
REM
CELL 1.54180   50.00000   50.00000   50.00000   90.00000   90.00000   90.00000
LATT -1
SFAC C  
C      1  0.5485950000000  0.5124980000000  0.5294990000000 1.0
C      1  0.4639630000000  0.5347770000000  0.5294990000000 1.0
C      1  0.4869840000000  0.4503440000000  0.5294990000000 1.0
C      1  0.5485950000000  0.5124980000000  0.4678430000000 1.0
C      1  0.4639630000000  0.5347770000000  0.4678430000000 1.0
C      1  0.4869840000000  0.4503440000000  0.4678430000000 1.0
C      1  0.5485950000000  0.4859150000000  0.5294990000000 1.0
C      1  0.4639630000000  0.4636360000000  0.5294990000000 1.0
C      1  0.4869840000000  0.5480690000000  0.5294990000000 1.0
C      1  0.5485950000000  0.4859150000000  0.4678430000000 1.0
C      1  0.4639630000000  0.4636360000000  0.4678430000000 1.0
C      1  0.4869840000000  0.5480690000000  0.4678430000000 1.0
C      1  0.5001670000000  0.4713300000000  0.4831950000000 1.0
C      1  0.5238290000000  0.5134220000000  0.4831950000000 1.0
C      1  0.4755460000000  0.5128670000000  0.4831950000000 1.0
C      1  0.5001670000000  0.4713300000000  0.5141460000000 1.0
C      1  0.5238290000000  0.5134220000000  0.5141460000000 1.0
C      1  0.4755460000000  0.5128670000000  0.5141460000000 1.0
C      1  0.5001680000000  0.5270830000000  0.4831950000000 1.0
C      1  0.5238290000000  0.4849910000000  0.4831950000000 1.0
C      1  0.4755460000000  0.4855460000000  0.4831950000000 1.0
C      1  0.5001680000000  0.5270830000000  0.5141460000000 1.0
C      1  0.5238290000000  0.4849910000000  0.5141460000000 1.0
C      1  0.4755460000000  0.4855460000000  0.5141460000000 1.0
C      1  0.5107040000000  0.4495790000000  0.4986710000000 1.0
C      1  0.5107040000000  0.5488340000000  0.4986710000000 1.0
C      1  0.5373980000000  0.4649900000000  0.4986710000000 1.0
C      1  0.4514400000000  0.4837950000000  0.4986710000000 1.0
C      1  0.5373980000000  0.5334220000000  0.4986710000000 1.0
C      1  0.4514400000000  0.5146180000000  0.4986710000000 1.0
C      1  0.4998470000000  0.4992060000000  0.4594640000000 1.0
C      1  0.4998470000000  0.4992060000000  0.5378770000000 1.0
END
