TITL C-2441161-5029-81 0.0197250891136018 125000 -11458.299188187 0 0 83 (C1) n - 1
REM
REM in /home/bkarasulu/work/CARBON/AIRSS/Generating-Clusters/ReaxFF-fromJPCA2015/Units_Real/with-SteepDescent/Higher-Symm
REM
REM
REM
REM
REM
REM ./C.cell (1df0a924f5614ab8850e4351716899ee)
REM
REM compiler GCC version 9.2.1 20190827 (Red Hat 9.2.1-1)
REM options -cpp -mtune=generic -march=x86-64 -g -O0 -fpre-include=/usr/include/finclude/math-vector-fortran.h
REM seed 88222514 643545330 -2085230396 1924756480 19437067 -592196440 1207220444 -1159865152 -1220617409 -1596135190 -1335871398 -505399819 1306788095 278356846 -1818113871 -768984924 -558993575 1528880100 549139308 -113133153 1367001293 -407163685 1337707984 -791366179 -1521959085 -1092226023 609245918 -2004352470 2078435863 -1372786902 1879039567 -1913287384 1597986539
REM
CELL 1.54180   50.00000   50.00000   50.00000   90.00000   90.00000   90.00000
LATT -1
SFAC C  
C      1  0.4174140000000  0.4978330000000  0.5115500000000 1.0
C      1  0.5437280000000  0.4264100000000  0.5042850000000 1.0
C      1  0.4975170000000  0.4771170000000  0.5702660000000 1.0
C      1  0.5589430000000  0.4404960000000  0.5218440000000 1.0
C      1  0.5649740000000  0.5097040000000  0.5450390000000 1.0
C      1  0.4856180000000  0.5258510000000  0.4963770000000 1.0
C      1  0.4470710000000  0.5574330000000  0.5064520000000 1.0
C      1  0.4387010000000  0.4501690000000  0.5323950000000 1.0
C      1  0.4575230000000  0.5597220000000  0.4781140000000 1.0
C      1  0.4279510000000  0.4794570000000  0.5301280000000 1.0
C      1  0.5177300000000  0.5672460000000  0.5137190000000 1.0
C      1  0.4884230000000  0.4176790000000  0.4917990000000 1.0
C      1  0.5053530000000  0.5065940000000  0.5677460000000 1.0
C      1  0.4488340000000  0.4791140000000  0.4338570000000 1.0
C      1  0.5561350000000  0.4416980000000  0.4818790000000 1.0
C      1  0.5606510000000  0.4686300000000  0.5201180000000 1.0
C      1  0.5124530000000  0.4193080000000  0.5126230000000 1.0
C      1  0.4567620000000  0.5363840000000  0.4588500000000 1.0
C      1  0.4864380000000  0.5410110000000  0.5203160000000 1.0
C      1  0.4698620000000  0.5639370000000  0.5237290000000 1.0
C      1  0.4792450000000  0.4887710000000  0.5252830000000 1.0
C      1  0.4792270000000  0.5213630000000  0.4469580000000 1.0
C      1  0.5106540000000  0.5060290000000  0.4705520000000 1.0
C      1  0.4517300000000  0.4966350000000  0.5728990000000 1.0
C      1  0.4526740000000  0.4573780000000  0.5558030000000 1.0
C      1  0.5337630000000  0.4530060000000  0.4679280000000 1.0
C      1  0.4451820000000  0.4428080000000  0.5046180000000 1.0
C      1  0.5212000000000  0.5145380000000  0.4223540000000 1.0
C      1  0.4400290000000  0.4670560000000  0.4883680000000 1.0
C      1  0.5170180000000  0.4887830000000  0.4940610000000 1.0
C      1  0.4294520000000  0.4938740000000  0.4503880000000 1.0
C      1  0.5186190000000  0.4914250000000  0.4439480000000 1.0
C      1  0.4725690000000  0.4899980000000  0.4482470000000 1.0
C      1  0.4741560000000  0.5472670000000  0.5447140000000 1.0
C      1  0.5539120000000  0.5524550000000  0.4936570000000 1.0
C      1  0.5837830000000  0.4869940000000  0.4909460000000 1.0
C      1  0.5081940000000  0.4591350000000  0.4831700000000 1.0
C      1  0.5626040000000  0.5222640000000  0.4690520000000 1.0
C      1  0.5440240000000  0.4840010000000  0.5000890000000 1.0
C      1  0.5364390000000  0.4643520000000  0.5578830000000 1.0
C      1  0.4959730000000  0.5609470000000  0.4594790000000 1.0
C      1  0.4636430000000  0.5347990000000  0.5665670000000 1.0
C      1  0.5419100000000  0.4722570000000  0.4487510000000 1.0
C      1  0.4658610000000  0.4382850000000  0.4616420000000 1.0
C      1  0.5648210000000  0.5422500000000  0.5188250000000 1.0
C      1  0.4744860000000  0.4986970000000  0.4976770000000 1.0
C      1  0.4932780000000  0.4414340000000  0.5072040000000 1.0
C      1  0.5693980000000  0.4815320000000  0.4508170000000 1.0
C      1  0.4611150000000  0.4247190000000  0.4876750000000 1.0
C      1  0.4448080000000  0.5167310000000  0.5534390000000 1.0
C      1  0.5589640000000  0.4817210000000  0.5466090000000 1.0
C      1  0.4913370000000  0.5307490000000  0.5763570000000 1.0
C      1  0.5248860000000  0.4627790000000  0.5843250000000 1.0
C      1  0.5454290000000  0.5344110000000  0.5412540000000 1.0
C      1  0.5073500000000  0.5834740000000  0.4917300000000 1.0
C      1  0.4953270000000  0.4741580000000  0.4418170000000 1.0
C      1  0.5265580000000  0.5460550000000  0.4964430000000 1.0
C      1  0.4259330000000  0.5195740000000  0.4950190000000 1.0
C      1  0.4913890000000  0.4527470000000  0.4595950000000 1.0
C      1  0.4363980000000  0.5330750000000  0.5169980000000 1.0
C      1  0.5373690000000  0.5579400000000  0.4491440000000 1.0
C      1  0.5035510000000  0.4366820000000  0.5336230000000 1.0
C      1  0.5776770000000  0.4643210000000  0.4755310000000 1.0
C      1  0.5066480000000  0.4983330000000  0.5234400000000 1.0
C      1  0.5603930000000  0.5465380000000  0.4650360000000 1.0
C      1  0.5082000000000  0.5537870000000  0.5664490000000 1.0
C      1  0.4523390000000  0.4977090000000  0.5321580000000 1.0
C      1  0.5197890000000  0.5129350000000  0.5433400000000 1.0
C      1  0.4444320000000  0.4536690000000  0.4477310000000 1.0
C      1  0.5260660000000  0.5422130000000  0.4271530000000 1.0
C      1  0.4659270000000  0.4723420000000  0.5760240000000 1.0
C      1  0.4608540000000  0.4843100000000  0.4783790000000 1.0
C      1  0.5081140000000  0.4617480000000  0.5463990000000 1.0
C      1  0.4972220000000  0.5295340000000  0.4258340000000 1.0
C      1  0.4347720000000  0.5184190000000  0.4644400000000 1.0
C      1  0.5062720000000  0.5335410000000  0.4772980000000 1.0
C      1  0.5774800000000  0.5160790000000  0.5195310000000 1.0
C      1  0.4802030000000  0.5778460000000  0.4773430000000 1.0
C      1  0.5680350000000  0.5098510000000  0.4496830000000 1.0
C      1  0.5197990000000  0.5768730000000  0.4638820000000 1.0
C      1  0.4236300000000  0.4673570000000  0.4635880000000 1.0
C      1  0.5250050000000  0.5573980000000  0.5429560000000 1.0
C      1  0.5608070000000  0.5062540000000  0.4968110000000 1.0
END
