TITL C-2441168-9922-1168 0.0331331062953148 125000 -14351.7297924443 0 0 110 (C1) n - 1
REM
REM in /home/bkarasulu/work/CARBON/AIRSS/Generating-Clusters/ReaxFF-fromJPCA2015/Units_Real/with-SteepDescent/Higher-Symm
REM
REM
REM
REM
REM
REM ./C.cell (1df0a924f5614ab8850e4351716899ee)
REM
REM compiler GCC version 9.2.1 20190827 (Red Hat 9.2.1-1)
REM options -cpp -mtune=generic -march=x86-64 -g -O0 -fpre-include=/usr/include/finclude/math-vector-fortran.h
REM seed 1731439250 -1549182105 97878609 1669520265 1768662320 -1896600933 2083881619 -745668619 592605725 1368335865 -1638188419 1953262596 1812635716 -1529577677 -669423063 -1627968008 -712826002 -203997454 -1795545329 1289503395 -770578548 684491145 -655795168 -572275800 -289641452 -1842650502 1597796861 1637546632 1149916345 1588646108 -2014870695 -1003011783 -1380837383
REM
CELL 1.54180   50.00000   50.00000   50.00000   90.00000   90.00000   90.00000
LATT -1
SFAC C  
C      1  0.5347030000000  0.5768720000000  0.5321610000000 1.0
C      1  0.5364450000000  0.4683440000000  0.5790630000000 1.0
C      1  0.5358650000000  0.4200850000000  0.4689500000000 1.0
C      1  0.5353090000000  0.5319470000000  0.4224810000000 1.0
C      1  0.4606670000000  0.5793140000000  0.5320710000000 1.0
C      1  0.4626580000000  0.4685790000000  0.5778230000000 1.0
C      1  0.4622840000000  0.4220800000000  0.4687360000000 1.0
C      1  0.4605460000000  0.5320120000000  0.4208410000000 1.0
C      1  0.5823200000000  0.4878790000000  0.5267050000000 1.0
C      1  0.5826760000000  0.4730100000000  0.4887360000000 1.0
C      1  0.5829240000000  0.5114850000000  0.4735100000000 1.0
C      1  0.5848890000000  0.5260370000000  0.5115620000000 1.0
C      1  0.4142070000000  0.4867470000000  0.5255570000000 1.0
C      1  0.4131370000000  0.4729660000000  0.4878250000000 1.0
C      1  0.4147580000000  0.5118030000000  0.4737930000000 1.0
C      1  0.4153970000000  0.5263380000000  0.5113400000000 1.0
C      1  0.5783450000000  0.5445500000000  0.5365530000000 1.0
C      1  0.5784420000000  0.4648610000000  0.5459520000000 1.0
C      1  0.5796290000000  0.4542110000000  0.4647580000000 1.0
C      1  0.5797980000000  0.5352690000000  0.4547220000000 1.0
C      1  0.4183140000000  0.5456270000000  0.5343340000000 1.0
C      1  0.4180180000000  0.4642020000000  0.5461370000000 1.0
C      1  0.4179720000000  0.4532710000000  0.4652870000000 1.0
C      1  0.4180390000000  0.5348070000000  0.4543850000000 1.0
C      1  0.5373540000000  0.4308710000000  0.5447060000000 1.0
C      1  0.5377260000000  0.4534200000000  0.4318390000000 1.0
C      1  0.5367630000000  0.5674060000000  0.4549380000000 1.0
C      1  0.5363280000000  0.5449790000000  0.5674910000000 1.0
C      1  0.4617590000000  0.4326000000000  0.5454200000000 1.0
C      1  0.4609900000000  0.4542410000000  0.4330560000000 1.0
C      1  0.4597690000000  0.5688490000000  0.4549420000000 1.0
C      1  0.4599710000000  0.5449960000000  0.5683670000000 1.0
C      1  0.4371690000000  0.5653210000000  0.5234000000000 1.0
C      1  0.4374650000000  0.4761750000000  0.5660280000000 1.0
C      1  0.4369730000000  0.4335750000000  0.4761860000000 1.0
C      1  0.4371820000000  0.5234930000000  0.4351280000000 1.0
C      1  0.5611300000000  0.5660890000000  0.5255660000000 1.0
C      1  0.5596270000000  0.4771270000000  0.5650340000000 1.0
C      1  0.5602450000000  0.4335780000000  0.4763830000000 1.0
C      1  0.5603780000000  0.5238760000000  0.4341740000000 1.0
C      1  0.4732810000000  0.5537340000000  0.4344700000000 1.0
C      1  0.4738280000000  0.5650910000000  0.5532310000000 1.0
C      1  0.4772860000000  0.4504030000000  0.5613990000000 1.0
C      1  0.4768190000000  0.4398310000000  0.4519740000000 1.0
C      1  0.5204840000000  0.5500040000000  0.4389890000000 1.0
C      1  0.5204250000000  0.5588790000000  0.5481900000000 1.0
C      1  0.5243460000000  0.4461740000000  0.5653760000000 1.0
C      1  0.5235480000000  0.4332350000000  0.4466870000000 1.0
C      1  0.4838900000000  0.5157550000000  0.4158810000000 1.0
C      1  0.4835400000000  0.5830760000000  0.5151640000000 1.0
C      1  0.4848440000000  0.4860170000000  0.5836190000000 1.0
C      1  0.4848470000000  0.4157890000000  0.4858870000000 1.0
C      1  0.5128950000000  0.5147950000000  0.4167890000000 1.0
C      1  0.5125410000000  0.5835690000000  0.5149750000000 1.0
C      1  0.5137280000000  0.4853300000000  0.5843080000000 1.0
C      1  0.5140380000000  0.4152570000000  0.4877380000000 1.0
C      1  0.5248770000000  0.4943310000000  0.4625190000000 1.0
C      1  0.5262450000000  0.5363340000000  0.4965600000000 1.0
C      1  0.5236410000000  0.5018980000000  0.5370660000000 1.0
C      1  0.5210860000000  0.4636160000000  0.5022660000000 1.0
C      1  0.4732960000000  0.4969340000000  0.4613310000000 1.0
C      1  0.4765800000000  0.5369380000000  0.4965600000000 1.0
C      1  0.4727110000000  0.5046860000000  0.5359190000000 1.0
C      1  0.4703850000000  0.4630470000000  0.5024900000000 1.0
C      1  0.4401910000000  0.5364290000000  0.5216290000000 1.0
C      1  0.4394000000000  0.4784960000000  0.5362490000000 1.0
C      1  0.4373280000000  0.4624500000000  0.4774900000000 1.0
C      1  0.4401380000000  0.5208220000000  0.4639320000000 1.0
C      1  0.5612650000000  0.5391090000000  0.5166500000000 1.0
C      1  0.5568480000000  0.4789970000000  0.5363280000000 1.0
C      1  0.5576660000000  0.4628680000000  0.4799980000000 1.0
C      1  0.5577310000000  0.5202510000000  0.4635680000000 1.0
C      1  0.4846300000000  0.4676660000000  0.4223100000000 1.0
C      1  0.4835770000000  0.5779380000000  0.4690000000000 1.0
C      1  0.4839970000000  0.5307310000000  0.5777530000000 1.0
C      1  0.4848390000000  0.4221040000000  0.5308760000000 1.0
C      1  0.5139570000000  0.4678320000000  0.4223130000000 1.0
C      1  0.5130470000000  0.5774180000000  0.4692280000000 1.0
C      1  0.5132980000000  0.5303810000000  0.5780520000000 1.0
C      1  0.5142740000000  0.4210060000000  0.5289930000000 1.0
C      1  0.4826870000000  0.5286710000000  0.5230760000000 1.0
C      1  0.4815480000000  0.4819890000000  0.5211750000000 1.0
C      1  0.4717760000000  0.4792690000000  0.4805960000000 1.0
C      1  0.4881330000000  0.5241470000000  0.4725330000000 1.0
C      1  0.5252810000000  0.5204220000000  0.5186990000000 1.0
C      1  0.5089020000000  0.4750410000000  0.5268370000000 1.0
C      1  0.5142710000000  0.4709390000000  0.4755760000000 1.0
C      1  0.5152640000000  0.5157530000000  0.4790770000000 1.0
C      1  0.5597700000000  0.4638380000000  0.4465390000000 1.0
C      1  0.5593930000000  0.5531230000000  0.4648280000000 1.0
C      1  0.5606320000000  0.5378340000000  0.5558020000000 1.0
C      1  0.5590000000000  0.4463960000000  0.5350800000000 1.0
C      1  0.4374220000000  0.4638540000000  0.4467090000000 1.0
C      1  0.4382490000000  0.5526750000000  0.4649460000000 1.0
C      1  0.4380990000000  0.5350650000000  0.5527310000000 1.0
C      1  0.4381570000000  0.4458550000000  0.5362070000000 1.0
C      1  0.5235750000000  0.4357020000000  0.5058900000000 1.0
C      1  0.5222930000000  0.4930560000000  0.4334670000000 1.0
C      1  0.5216950000000  0.5663490000000  0.4941170000000 1.0
C      1  0.5225540000000  0.5059430000000  0.5663440000000 1.0
C      1  0.4757620000000  0.4332620000000  0.5064280000000 1.0
C      1  0.4753430000000  0.4931980000000  0.4317200000000 1.0
C      1  0.4757690000000  0.5650830000000  0.4938070000000 1.0
C      1  0.4754740000000  0.5062660000000  0.5651320000000 1.0
C      1  0.4948150000000  0.5423400000000  0.4489500000000 1.0
C      1  0.4941850000000  0.5487590000000  0.5413300000000 1.0
C      1  0.5028070000000  0.4568640000000  0.5505290000000 1.0
C      1  0.5032760000000  0.4496130000000  0.4585420000000 1.0
C      1  0.4217000000000  0.4994230000000  0.4999360000000 1.0
C      1  0.5759870000000  0.4994510000000  0.4998530000000 1.0
END
