TITL C-2441159-1093-1496 0.127048028784729 125000 -25782.7158062562 0 0 194 (C1) n - 1
REM
REM in /home/bkarasulu/work/CARBON/AIRSS/Generating-Clusters/ReaxFF-fromJPCA2015/Units_Real/with-SteepDescent/Higher-Symm
REM
REM
REM
REM
REM
REM ./C.cell (1df0a924f5614ab8850e4351716899ee)
REM
REM compiler GCC version 9.2.1 20190827 (Red Hat 9.2.1-1)
REM options -cpp -mtune=generic -march=x86-64 -g -O0 -fpre-include=/usr/include/finclude/math-vector-fortran.h
REM seed 206894 1869801824 -1698078746 -2135523717 1557438697 -449021800 -1255888285 1449929340 -164998209 -344549300 -1083856796 922269780 -2002987861 -2049374709 1692109968 -19094089 -795586769 1879859731 -290891686 1355166878 1720534645 1528081645 -1894374928 -2072458408 -960983485 -1660787044 425947783 1032385448 -513165918 -1749341752 -1348482093 1863296628 2122111351
REM
CELL 1.54180   50.00000   50.00000   50.00000   90.00000   90.00000   90.00000
LATT -1
SFAC C  
C      1  0.4503490000000  0.5156750000000  0.4571500000000 1.0
C      1  0.4503950000000  0.4795040000000  0.5340980000000 1.0
C      1  0.5445670000000  0.4355040000000  0.4113370000000 1.0
C      1  0.5461880000000  0.5639150000000  0.5862550000000 1.0
C      1  0.5231770000000  0.6049370000000  0.5363370000000 1.0
C      1  0.5247160000000  0.3959070000000  0.4630240000000 1.0
C      1  0.4727920000000  0.4695410000000  0.3960050000000 1.0
C      1  0.4762610000000  0.5343810000000  0.6026310000000 1.0
C      1  0.4592210000000  0.4124570000000  0.4960400000000 1.0
C      1  0.4584610000000  0.5810750000000  0.5114110000000 1.0
C      1  0.5448970000000  0.4658030000000  0.5760670000000 1.0
C      1  0.5445060000000  0.5327200000000  0.4227250000000 1.0
C      1  0.5461330000000  0.4123960000000  0.4724210000000 1.0
C      1  0.5457840000000  0.5882380000000  0.5276320000000 1.0
C      1  0.5045090000000  0.4054430000000  0.5451920000000 1.0
C      1  0.5037810000000  0.5953250000000  0.4552640000000 1.0
C      1  0.5334230000000  0.4004610000000  0.5464890000000 1.0
C      1  0.5325810000000  0.5990510000000  0.4556510000000 1.0
C      1  0.3866810000000  0.5134130000000  0.5351910000000 1.0
C      1  0.3882570000000  0.4853640000000  0.4651990000000 1.0
C      1  0.5146570000000  0.5623720000000  0.4074920000000 1.0
C      1  0.5106610000000  0.4366550000000  0.5902080000000 1.0
C      1  0.4937440000000  0.5274610000000  0.4422160000000 1.0
C      1  0.4948660000000  0.4744560000000  0.5582560000000 1.0
C      1  0.5926660000000  0.5064180000000  0.5257710000000 1.0
C      1  0.5892810000000  0.4947020000000  0.4776590000000 1.0
C      1  0.4998130000000  0.4453540000000  0.5195660000000 1.0
C      1  0.4980470000000  0.5527490000000  0.4806520000000 1.0
C      1  0.4760890000000  0.5900260000000  0.4442420000000 1.0
C      1  0.4772030000000  0.4111300000000  0.5543000000000 1.0
C      1  0.4853250000000  0.5867030000000  0.4989590000000 1.0
C      1  0.4875300000000  0.4093720000000  0.5042930000000 1.0
C      1  0.5223900000000  0.4759500000000  0.4909290000000 1.0
C      1  0.5203440000000  0.5221400000000  0.5076000000000 1.0
C      1  0.4650340000000  0.6032180000000  0.5304760000000 1.0
C      1  0.4665850000000  0.3948840000000  0.4725750000000 1.0
C      1  0.5853740000000  0.4566840000000  0.5665840000000 1.0
C      1  0.5859280000000  0.5421250000000  0.4382550000000 1.0
C      1  0.5168030000000  0.4879020000000  0.4531390000000 1.0
C      1  0.5133000000000  0.5120430000000  0.5492170000000 1.0
C      1  0.4561570000000  0.5477070000000  0.5172670000000 1.0
C      1  0.4545030000000  0.4568040000000  0.4871360000000 1.0
C      1  0.5494530000000  0.4698820000000  0.5470440000000 1.0
C      1  0.5477050000000  0.5290960000000  0.4517680000000 1.0
C      1  0.4689990000000  0.5528520000000  0.5859140000000 1.0
C      1  0.4671640000000  0.4479410000000  0.4148140000000 1.0
C      1  0.5630730000000  0.4417140000000  0.4337210000000 1.0
C      1  0.5634700000000  0.5596850000000  0.5628480000000 1.0
C      1  0.3947190000000  0.4772910000000  0.4914040000000 1.0
C      1  0.3945680000000  0.5256120000000  0.5143110000000 1.0
C      1  0.5292610000000  0.5019480000000  0.5271150000000 1.0
C      1  0.5321100000000  0.4973630000000  0.4747310000000 1.0
C      1  0.4589500000000  0.5104260000000  0.4884690000000 1.0
C      1  0.4416430000000  0.4816410000000  0.4827610000000 1.0
C      1  0.3997710000000  0.5146480000000  0.4689020000000 1.0
C      1  0.3940750000000  0.4863160000000  0.5392380000000 1.0
C      1  0.5189140000000  0.4249710000000  0.4226170000000 1.0
C      1  0.5196710000000  0.5749340000000  0.5769450000000 1.0
C      1  0.5725370000000  0.4929540000000  0.4286080000000 1.0
C      1  0.5749900000000  0.5101920000000  0.5705860000000 1.0
C      1  0.4720580000000  0.4447930000000  0.5288270000000 1.0
C      1  0.4674720000000  0.5539530000000  0.4733980000000 1.0
C      1  0.5054560000000  0.4303070000000  0.4945430000000 1.0
C      1  0.5066730000000  0.5685270000000  0.5058100000000 1.0
C      1  0.4234610000000  0.5397570000000  0.5586420000000 1.0
C      1  0.4270280000000  0.4625980000000  0.4344150000000 1.0
C      1  0.5907330000000  0.4843340000000  0.5680410000000 1.0
C      1  0.5922400000000  0.5159340000000  0.4335400000000 1.0
C      1  0.5845220000000  0.5538050000000  0.4799130000000 1.0
C      1  0.5868890000000  0.4411300000000  0.5273540000000 1.0
C      1  0.5081220000000  0.5368820000000  0.3941640000000 1.0
C      1  0.5081870000000  0.4625270000000  0.6052400000000 1.0
C      1  0.4628470000000  0.5203940000000  0.5500680000000 1.0
C      1  0.4775250000000  0.4845200000000  0.4378080000000 1.0
C      1  0.5006480000000  0.4401310000000  0.4676580000000 1.0
C      1  0.5024610000000  0.5592220000000  0.5335930000000 1.0
C      1  0.4361660000000  0.5412500000000  0.4144510000000 1.0
C      1  0.4370050000000  0.4583210000000  0.5837820000000 1.0
C      1  0.5525670000000  0.4366800000000  0.4598680000000 1.0
C      1  0.5467760000000  0.5612130000000  0.5390760000000 1.0
C      1  0.4610940000000  0.5730210000000  0.5676620000000 1.0
C      1  0.4614770000000  0.4269520000000  0.4333890000000 1.0
C      1  0.5355720000000  0.5430970000000  0.4943220000000 1.0
C      1  0.5424740000000  0.4589660000000  0.5038690000000 1.0
C      1  0.5142900000000  0.3791610000000  0.4838410000000 1.0
C      1  0.5114600000000  0.6193310000000  0.5149540000000 1.0
C      1  0.5072000000000  0.4047090000000  0.4413280000000 1.0
C      1  0.5074330000000  0.5951850000000  0.5589250000000 1.0
C      1  0.4901570000000  0.4798920000000  0.4590160000000 1.0
C      1  0.4879600000000  0.5188640000000  0.5383650000000 1.0
C      1  0.4787530000000  0.4067300000000  0.4483390000000 1.0
C      1  0.4787590000000  0.5932970000000  0.5544520000000 1.0
C      1  0.4094170000000  0.5626290000000  0.4852330000000 1.0
C      1  0.4080310000000  0.4380350000000  0.5174370000000 1.0
C      1  0.4112210000000  0.5642620000000  0.5160760000000 1.0
C      1  0.4098300000000  0.4378860000000  0.4871490000000 1.0
C      1  0.5809500000000  0.4288510000000  0.5019250000000 1.0
C      1  0.5829970000000  0.5690640000000  0.5042920000000 1.0
C      1  0.5237110000000  0.3844470000000  0.5093600000000 1.0
C      1  0.5220710000000  0.6133970000000  0.4923290000000 1.0
C      1  0.4768330000000  0.5717750000000  0.4211870000000 1.0
C      1  0.4775550000000  0.4262040000000  0.5793970000000 1.0
C      1  0.4791980000000  0.5295900000000  0.3930830000000 1.0
C      1  0.4796550000000  0.4678940000000  0.6085400000000 1.0
C      1  0.6054270000000  0.5334600000000  0.4807950000000 1.0
C      1  0.6025490000000  0.4653710000000  0.5210690000000 1.0
C      1  0.4341480000000  0.4856840000000  0.4154370000000 1.0
C      1  0.4319610000000  0.5142950000000  0.5784870000000 1.0
C      1  0.4252910000000  0.5130660000000  0.4175290000000 1.0
C      1  0.4251940000000  0.4865360000000  0.5802200000000 1.0
C      1  0.5009370000000  0.5563470000000  0.4325670000000 1.0
C      1  0.5061220000000  0.4483850000000  0.5635370000000 1.0
C      1  0.5535060000000  0.5383240000000  0.5963740000000 1.0
C      1  0.5511170000000  0.4608230000000  0.3997360000000 1.0
C      1  0.4295590000000  0.4298860000000  0.5375780000000 1.0
C      1  0.4285150000000  0.5700540000000  0.4608600000000 1.0
C      1  0.4876900000000  0.3834650000000  0.4905750000000 1.0
C      1  0.4850810000000  0.6136840000000  0.5096590000000 1.0
C      1  0.4305990000000  0.5792260000000  0.5303640000000 1.0
C      1  0.4358410000000  0.4313120000000  0.4755970000000 1.0
C      1  0.4834840000000  0.5412070000000  0.5234730000000 1.0
C      1  0.4794730000000  0.4575420000000  0.4719600000000 1.0
C      1  0.4588150000000  0.5069900000000  0.5715920000000 1.0
C      1  0.4523090000000  0.4914450000000  0.4404040000000 1.0
C      1  0.4221250000000  0.5217600000000  0.4474130000000 1.0
C      1  0.4238460000000  0.4795370000000  0.5500270000000 1.0
C      1  0.6057590000000  0.4863680000000  0.5419350000000 1.0
C      1  0.6050760000000  0.5123850000000  0.4604590000000 1.0
C      1  0.5059960000000  0.4772320000000  0.5287360000000 1.0
C      1  0.5034430000000  0.5251340000000  0.4708870000000 1.0
C      1  0.5615190000000  0.4799950000000  0.5010860000000 1.0
C      1  0.5622940000000  0.5323940000000  0.4977020000000 1.0
C      1  0.5740600000000  0.4675400000000  0.4423440000000 1.0
C      1  0.5776380000000  0.5365360000000  0.5502810000000 1.0
C      1  0.5188510000000  0.4887970000000  0.4067300000000 1.0
C      1  0.5211440000000  0.5106600000000  0.5935250000000 1.0
C      1  0.4845650000000  0.4962490000000  0.5789700000000 1.0
C      1  0.4905510000000  0.5018930000000  0.4207750000000 1.0
C      1  0.4973410000000  0.4831570000000  0.5027170000000 1.0
C      1  0.4903580000000  0.5097890000000  0.4925050000000 1.0
C      1  0.5509770000000  0.5760950000000  0.4423240000000 1.0
C      1  0.5510930000000  0.4189730000000  0.5627270000000 1.0
C      1  0.5611930000000  0.5878750000000  0.5035890000000 1.0
C      1  0.5589890000000  0.4112080000000  0.4979750000000 1.0
C      1  0.5944820000000  0.5504610000000  0.5238790000000 1.0
C      1  0.5894190000000  0.4481020000000  0.4824710000000 1.0
C      1  0.5275740000000  0.5180070000000  0.4037100000000 1.0
C      1  0.5266130000000  0.4820900000000  0.5940530000000 1.0
C      1  0.4253370000000  0.4495180000000  0.5590680000000 1.0
C      1  0.4235290000000  0.5508520000000  0.4390710000000 1.0
C      1  0.5134220000000  0.4461650000000  0.4403960000000 1.0
C      1  0.5128330000000  0.5529460000000  0.5608490000000 1.0
C      1  0.5035030000000  0.5277740000000  0.6129200000000 1.0
C      1  0.5001370000000  0.4723750000000  0.3870370000000 1.0
C      1  0.5227570000000  0.5273200000000  0.5703390000000 1.0
C      1  0.5262350000000  0.4713240000000  0.4313070000000 1.0
C      1  0.4117210000000  0.5144810000000  0.4960700000000 1.0
C      1  0.4204400000000  0.4883200000000  0.5002820000000 1.0
C      1  0.5769750000000  0.4326170000000  0.5543080000000 1.0
C      1  0.5780690000000  0.5644010000000  0.4513000000000 1.0
C      1  0.3942140000000  0.4603570000000  0.5282490000000 1.0
C      1  0.3902260000000  0.5449490000000  0.4740460000000 1.0
C      1  0.6056190000000  0.5277130000000  0.5099000000000 1.0
C      1  0.6019650000000  0.4721160000000  0.4920880000000 1.0
C      1  0.5673280000000  0.4585700000000  0.4692210000000 1.0
C      1  0.5572140000000  0.5363250000000  0.5291710000000 1.0
C      1  0.3937730000000  0.4566850000000  0.4705810000000 1.0
C      1  0.3993600000000  0.5437550000000  0.5354970000000 1.0
C      1  0.5151350000000  0.4352180000000  0.5402680000000 1.0
C      1  0.5111520000000  0.5660020000000  0.4590240000000 1.0
C      1  0.5415440000000  0.5613670000000  0.4178890000000 1.0
C      1  0.5403310000000  0.4371900000000  0.5817380000000 1.0
C      1  0.5403180000000  0.4493240000000  0.5309830000000 1.0
C      1  0.5384740000000  0.5536890000000  0.4633480000000 1.0
C      1  0.4551860000000  0.5807240000000  0.4627430000000 1.0
C      1  0.4557730000000  0.4177150000000  0.5317290000000 1.0
C      1  0.5445500000000  0.6032360000000  0.4825330000000 1.0
C      1  0.5462200000000  0.3953830000000  0.5194580000000 1.0
C      1  0.4677290000000  0.5363970000000  0.4498080000000 1.0
C      1  0.4684920000000  0.4647270000000  0.5505250000000 1.0
C      1  0.4785400000000  0.4965130000000  0.6063330000000 1.0
C      1  0.4709840000000  0.5022920000000  0.3987310000000 1.0
C      1  0.5621530000000  0.4905150000000  0.5275270000000 1.0
C      1  0.5580720000000  0.5115740000000  0.4734880000000 1.0
C      1  0.5622030000000  0.4844110000000  0.4046730000000 1.0
C      1  0.5637220000000  0.5160580000000  0.5928000000000 1.0
C      1  0.4629060000000  0.4479760000000  0.5919930000000 1.0
C      1  0.4624760000000  0.5507930000000  0.4064440000000 1.0
C      1  0.4343590000000  0.5684510000000  0.5569280000000 1.0
C      1  0.4368250000000  0.4362460000000  0.4457830000000 1.0
C      1  0.4558460000000  0.4603840000000  0.5133680000000 1.0
C      1  0.4520360000000  0.5380490000000  0.4922050000000 1.0
C      1  0.4422630000000  0.5324460000000  0.5375520000000 1.0
C      1  0.4345400000000  0.4784690000000  0.4564350000000 1.0
END
