TITL C-2441154-10-400 0.0129365548635828 125000 -13534.3228534964 0 0 91 (C1) n - 1
REM
REM in /home/bkarasulu/work/CARBON/AIRSS/Generating-Clusters/ReaxFF-fromJPCA2015/Units_Real/with-SteepDescent/Higher-Symm
REM
REM
REM
REM
REM
REM ./C.cell (1df0a924f5614ab8850e4351716899ee)
REM
REM compiler GCC version 9.2.1 20190827 (Red Hat 9.2.1-1)
REM options -cpp -mtune=generic -march=x86-64 -g -O0 -fpre-include=/usr/include/finclude/math-vector-fortran.h
REM seed 1751858003 1073928703 1856569550 1149361526 1026876513 1292723321 -1426314569 1015227564 -1444838558 696669192 1617531790 146199097 198448112 -1804150433 768187702 1273934681 1226500256 1143869630 -1817807756 -2043543985 -1341232179 288845804 -1079716310 -609119960 1035695081 1538144490 1552850357 -1738496174 -342382715 1749165973 -1941848070 1160059341 760948724
REM
CELL 1.54180   50.00000   50.00000   50.00000   90.00000   90.00000   90.00000
LATT -1
SFAC C  
C      1  0.4654550000000  0.4819400000000  0.5229660000000 1.0
C      1  0.5129760000000  0.4646430000000  0.5175350000000 1.0
C      1  0.5274370000000  0.5118020000000  0.5194390000000 1.0
C      1  0.4822170000000  0.5348140000000  0.5215570000000 1.0
C      1  0.5344970000000  0.4824720000000  0.4867800000000 1.0
C      1  0.4866210000000  0.4733270000000  0.4815250000000 1.0
C      1  0.4637610000000  0.5172840000000  0.4768950000000 1.0
C      1  0.5192990000000  0.5331090000000  0.4807880000000 1.0
C      1  0.4259250000000  0.5170540000000  0.4496480000000 1.0
C      1  0.4852960000000  0.4308840000000  0.4483010000000 1.0
C      1  0.5804550000000  0.4843180000000  0.4649800000000 1.0
C      1  0.5126600000000  0.5695570000000  0.4604110000000 1.0
C      1  0.5694740000000  0.5138710000000  0.5393510000000 1.0
C      1  0.5170910000000  0.4262880000000  0.5507720000000 1.0
C      1  0.4315260000000  0.4869170000000  0.5550940000000 1.0
C      1  0.4827330000000  0.5820800000000  0.5367430000000 1.0
C      1  0.5552130000000  0.5397440000000  0.4570980000000 1.0
C      1  0.4563430000000  0.5579230000000  0.4587490000000 1.0
C      1  0.4433460000000  0.4585090000000  0.4557820000000 1.0
C      1  0.5433030000000  0.4440610000000  0.4595260000000 1.0
C      1  0.4453930000000  0.5424720000000  0.5421730000000 1.0
C      1  0.5394800000000  0.5560540000000  0.5439420000000 1.0
C      1  0.5598350000000  0.4540360000000  0.5409630000000 1.0
C      1  0.4575860000000  0.4439330000000  0.5460940000000 1.0
C      1  0.5025870000000  0.4216450000000  0.5264740000000 1.0
C      1  0.5784930000000  0.4968810000000  0.5164420000000 1.0
C      1  0.5030320000000  0.5812860000000  0.5139350000000 1.0
C      1  0.4237680000000  0.4998130000000  0.5297380000000 1.0
C      1  0.4994160000000  0.4249060000000  0.4739890000000 1.0
C      1  0.4204320000000  0.5033530000000  0.4744150000000 1.0
C      1  0.4971130000000  0.5786260000000  0.4847480000000 1.0
C      1  0.5803210000000  0.5038470000000  0.4878710000000 1.0
C      1  0.4875210000000  0.5411680000000  0.5709120000000 1.0
C      1  0.4776570000000  0.4834810000000  0.5740580000000 1.0
C      1  0.5194540000000  0.4683670000000  0.5758470000000 1.0
C      1  0.5274760000000  0.5114620000000  0.5721030000000 1.0
C      1  0.5122500000000  0.5254340000000  0.4291540000000 1.0
C      1  0.5390800000000  0.4924580000000  0.4323440000000 1.0
C      1  0.4828980000000  0.4763490000000  0.4269900000000 1.0
C      1  0.4683900000000  0.5198180000000  0.4252620000000 1.0
C      1  0.5291200000000  0.4848570000000  0.5282650000000 1.0
C      1  0.5094220000000  0.5322300000000  0.5301990000000 1.0
C      1  0.4791380000000  0.5062230000000  0.5177350000000 1.0
C      1  0.4852890000000  0.4624240000000  0.5227070000000 1.0
C      1  0.4618070000000  0.4896780000000  0.4757490000000 1.0
C      1  0.4928790000000  0.5225690000000  0.4831010000000 1.0
C      1  0.5340270000000  0.5108300000000  0.4920650000000 1.0
C      1  0.5136820000000  0.4750040000000  0.4691340000000 1.0
C      1  0.4315620000000  0.5264180000000  0.5221130000000 1.0
C      1  0.4751910000000  0.4334900000000  0.5221660000000 1.0
C      1  0.5723160000000  0.4682630000000  0.5188280000000 1.0
C      1  0.5284320000000  0.5707890000000  0.5214610000000 1.0
C      1  0.5715700000000  0.5306750000000  0.4803200000000 1.0
C      1  0.5274580000000  0.4302460000000  0.4789710000000 1.0
C      1  0.4340790000000  0.4768590000000  0.4781730000000 1.0
C      1  0.4699210000000  0.5698550000000  0.4822250000000 1.0
C      1  0.4864480000000  0.5657140000000  0.5589290000000 1.0
C      1  0.4550580000000  0.5003270000000  0.5678360000000 1.0
C      1  0.5034570000000  0.4453940000000  0.5690420000000 1.0
C      1  0.5534490000000  0.5035770000000  0.5615480000000 1.0
C      1  0.5013980000000  0.5514810000000  0.4395700000000 1.0
C      1  0.5646400000000  0.4884530000000  0.4422370000000 1.0
C      1  0.4978110000000  0.4527220000000  0.4332910000000 1.0
C      1  0.4452410000000  0.5034330000000  0.4320680000000 1.0
C      1  0.5564590000000  0.4635380000000  0.4942490000000 1.0
C      1  0.5383320000000  0.5577460000000  0.4946850000000 1.0
C      1  0.4346740000000  0.5254540000000  0.4900620000000 1.0
C      1  0.4772520000000  0.4400050000000  0.4883650000000 1.0
C      1  0.4368380000000  0.4758190000000  0.5148910000000 1.0
C      1  0.4659060000000  0.5555440000000  0.5079300000000 1.0
C      1  0.5643070000000  0.5463330000000  0.5037250000000 1.0
C      1  0.5243850000000  0.4362600000000  0.5108920000000 1.0
C      1  0.4601400000000  0.4362740000000  0.4641160000000 1.0
C      1  0.5686820000000  0.4566230000000  0.4684040000000 1.0
C      1  0.5413770000000  0.5643540000000  0.4646560000000 1.0
C      1  0.4320910000000  0.5423030000000  0.4644960000000 1.0
C      1  0.5422220000000  0.4318490000000  0.5360760000000 1.0
C      1  0.4343840000000  0.4605360000000  0.5411770000000 1.0
C      1  0.4561460000000  0.5689590000000  0.5319510000000 1.0
C      1  0.5626250000000  0.5417060000000  0.5325570000000 1.0
C      1  0.5386910000000  0.5208790000000  0.4398860000000 1.0
C      1  0.4732750000000  0.5467190000000  0.4378810000000 1.0
C      1  0.4542340000000  0.4756510000000  0.4349290000000 1.0
C      1  0.5239350000000  0.4645360000000  0.4436520000000 1.0
C      1  0.4619960000000  0.5284340000000  0.5628830000000 1.0
C      1  0.5172610000000  0.5368950000000  0.5591840000000 1.0
C      1  0.5429830000000  0.4758260000000  0.5546100000000 1.0
C      1  0.4755680000000  0.4548630000000  0.5661240000000 1.0
C      1  0.5056820000000  0.4924760000000  0.5809940000000 1.0
C      1  0.4921000000000  0.5043730000000  0.4216240000000 1.0
C      1  0.4938710000000  0.4974890000000  0.4966380000000 1.0
END
