TITL C-2441159-1093-585 0.0170610230089875 125000 -6309.77617092353 0 0 49 (C1) n - 1
REM
REM in /home/bkarasulu/work/CARBON/AIRSS/Generating-Clusters/ReaxFF-fromJPCA2015/Units_Real/with-SteepDescent/Higher-Symm
REM
REM
REM
REM
REM
REM ./C.cell (1df0a924f5614ab8850e4351716899ee)
REM
REM compiler GCC version 9.2.1 20190827 (Red Hat 9.2.1-1)
REM options -cpp -mtune=generic -march=x86-64 -g -O0 -fpre-include=/usr/include/finclude/math-vector-fortran.h
REM seed 881431947 1829454451 1173715999 -1337874952 1796399039 -770771696 123131617 1898947758 -351547904 1302084151 -1125358084 1172622796 -2073210120 -2041117109 -1912496684 1594124007 -28926862 817575340 -1036281386 35313069 -859600619 -550897505 -922251500 -1766249385 -2126697294 1269931918 -1831111893 1387790960 1781960292 1562609884 -1208700465 2067566708 1651764562
REM
CELL 1.54180   50.00000   50.00000   50.00000   90.00000   90.00000   90.00000
LATT -1
SFAC C  
C      1  0.4315230000000  0.4976080000000  0.5069810000000 1.0
C      1  0.5306650000000  0.5597810000000  0.5072760000000 1.0
C      1  0.5364790000000  0.4433960000000  0.5068810000000 1.0
C      1  0.4771180000000  0.5170930000000  0.4411500000000 1.0
C      1  0.5253420000000  0.5108550000000  0.4411700000000 1.0
C      1  0.4957630000000  0.4721420000000  0.4424520000000 1.0
C      1  0.5367090000000  0.4646810000000  0.4866230000000 1.0
C      1  0.4478230000000  0.4833660000000  0.4881350000000 1.0
C      1  0.5108760000000  0.5508560000000  0.4878120000000 1.0
C      1  0.5110700000000  0.5524160000000  0.5290760000000 1.0
C      1  0.5390930000000  0.4650260000000  0.5282530000000 1.0
C      1  0.4461100000000  0.4843180000000  0.5295830000000 1.0
C      1  0.4812370000000  0.4536130000000  0.5345950000000 1.0
C      1  0.4684780000000  0.5359070000000  0.5386820000000 1.0
C      1  0.5457490000000  0.5090710000000  0.5387820000000 1.0
C      1  0.5559690000000  0.5460400000000  0.5027950000000 1.0
C      1  0.5116530000000  0.4287290000000  0.5025940000000 1.0
C      1  0.4316950000000  0.5261280000000  0.5025820000000 1.0
C      1  0.4711330000000  0.4882780000000  0.4403880000000 1.0
C      1  0.5031960000000  0.5305720000000  0.4407590000000 1.0
C      1  0.5234490000000  0.4816530000000  0.4399150000000 1.0
C      1  0.5643890000000  0.5188690000000  0.4945010000000 1.0
C      1  0.4824820000000  0.4357430000000  0.4974040000000 1.0
C      1  0.4509230000000  0.5473820000000  0.4937680000000 1.0
C      1  0.4569000000000  0.4729700000000  0.4621440000000 1.0
C      1  0.4980910000000  0.5507360000000  0.4615650000000 1.0
C      1  0.5437050000000  0.4784550000000  0.4614280000000 1.0
C      1  0.4941490000000  0.5409700000000  0.5087420000000 1.0
C      1  0.5358580000000  0.4854420000000  0.5069920000000 1.0
C      1  0.4657460000000  0.4722930000000  0.5092360000000 1.0
C      1  0.4906430000000  0.5109670000000  0.4928520000000 1.0
C      1  0.5202520000000  0.5073870000000  0.4934130000000 1.0
C      1  0.4892570000000  0.4817640000000  0.4945730000000 1.0
C      1  0.5292250000000  0.4764890000000  0.5524190000000 1.0
C      1  0.4633890000000  0.4863370000000  0.5522080000000 1.0
C      1  0.5051940000000  0.5376750000000  0.5526620000000 1.0
C      1  0.4692520000000  0.5194690000000  0.4690890000000 1.0
C      1  0.5323440000000  0.5174090000000  0.4695560000000 1.0
C      1  0.4969920000000  0.4643880000000  0.4714810000000 1.0
C      1  0.4557530000000  0.5306320000000  0.5165420000000 1.0
C      1  0.5487180000000  0.5234850000000  0.5176620000000 1.0
C      1  0.4989490000000  0.4490210000000  0.5167680000000 1.0
C      1  0.4724090000000  0.4491510000000  0.4721970000000 1.0
C      1  0.4698800000000  0.5481920000000  0.4710160000000 1.0
C      1  0.5571220000000  0.5035240000000  0.4716310000000 1.0
C      1  0.5252440000000  0.5038870000000  0.5529120000000 1.0
C      1  0.4899860000000  0.4751030000000  0.5521970000000 1.0
C      1  0.4834190000000  0.5206890000000  0.5527580000000 1.0
C      1  0.4991460000000  0.5000360000000  0.5397110000000 1.0
END
