TITL C-2441166-8118-892 0.0243334723875324 125000 -8479.12374411892 0 0 65 (C1) n - 1
REM
REM in /home/bkarasulu/work/CARBON/AIRSS/Generating-Clusters/ReaxFF-fromJPCA2015/Units_Real/with-SteepDescent/Higher-Symm
REM
REM
REM
REM
REM
REM ./C.cell (1df0a924f5614ab8850e4351716899ee)
REM
REM compiler GCC version 9.2.1 20190827 (Red Hat 9.2.1-1)
REM options -cpp -mtune=generic -march=x86-64 -g -O0 -fpre-include=/usr/include/finclude/math-vector-fortran.h
REM seed -1615788639 1226716767 932843468 1561305112 -1311449559 1098335224 -925775416 -1234129132 1353396395 -1023159780 -558432843 -2003111803 1346621840 1452338097 703677861 1246449177 482656824 1161152919 58997679 1600721490 -85873355 -1607277685 -417049370 -1784898887 500793059 944816551 2023112156 -517502360 -263374235 2109363894 -1378035306 655405587 -234166481
REM
CELL 1.54180   50.00000   50.00000   50.00000   90.00000   90.00000   90.00000
LATT -1
SFAC C  
C      1  0.5458170000000  0.4813910000000  0.4627800000000 1.0
C      1  0.4466000000000  0.4875920000000  0.5262710000000 1.0
C      1  0.5453960000000  0.5096950000000  0.4699790000000 1.0
C      1  0.4526870000000  0.5140710000000  0.5246400000000 1.0
C      1  0.4883840000000  0.4777850000000  0.5171050000000 1.0
C      1  0.5152590000000  0.4773720000000  0.4744620000000 1.0
C      1  0.4854920000000  0.5185930000000  0.5220610000000 1.0
C      1  0.5176170000000  0.5203700000000  0.4788280000000 1.0
C      1  0.5298470000000  0.5476450000000  0.5539900000000 1.0
C      1  0.4682240000000  0.5464800000000  0.4470770000000 1.0
C      1  0.5288770000000  0.4522770000000  0.5542410000000 1.0
C      1  0.4673110000000  0.4521840000000  0.4468410000000 1.0
C      1  0.5116190000000  0.5296950000000  0.4495610000000 1.0
C      1  0.4891950000000  0.5289210000000  0.5498110000000 1.0
C      1  0.5111850000000  0.4714970000000  0.4465880000000 1.0
C      1  0.4880480000000  0.4721220000000  0.5476890000000 1.0
C      1  0.5015010000000  0.5687210000000  0.4845090000000 1.0
C      1  0.4975900000000  0.5705800000000  0.5138380000000 1.0
C      1  0.5027200000000  0.4308870000000  0.4846140000000 1.0
C      1  0.4981400000000  0.4280240000000  0.5139680000000 1.0
C      1  0.4603300000000  0.5695500000000  0.4864850000000 1.0
C      1  0.5383320000000  0.5620930000000  0.5101830000000 1.0
C      1  0.4612510000000  0.4303520000000  0.4868970000000 1.0
C      1  0.5382970000000  0.4385660000000  0.5100410000000 1.0
C      1  0.5286720000000  0.4792980000000  0.5686220000000 1.0
C      1  0.4676490000000  0.4786610000000  0.4321740000000 1.0
C      1  0.5298170000000  0.5199630000000  0.5681320000000 1.0
C      1  0.4696730000000  0.5201840000000  0.4313780000000 1.0
C      1  0.5381580000000  0.4689630000000  0.4373510000000 1.0
C      1  0.4655570000000  0.4727740000000  0.5631740000000 1.0
C      1  0.5336030000000  0.5303950000000  0.4334540000000 1.0
C      1  0.4654250000000  0.5272890000000  0.5638180000000 1.0
C      1  0.5650630000000  0.5148500000000  0.5254800000000 1.0
C      1  0.4367000000000  0.5138880000000  0.4771850000000 1.0
C      1  0.5640530000000  0.4858800000000  0.5289300000000 1.0
C      1  0.4362000000000  0.4851600000000  0.4783060000000 1.0
C      1  0.4799310000000  0.4326290000000  0.4652040000000 1.0
C      1  0.5207430000000  0.4347910000000  0.5323640000000 1.0
C      1  0.4798560000000  0.5664250000000  0.4649120000000 1.0
C      1  0.5202040000000  0.5653380000000  0.5327870000000 1.0
C      1  0.4416470000000  0.4846750000000  0.5550790000000 1.0
C      1  0.5582440000000  0.4885380000000  0.4370980000000 1.0
C      1  0.4424260000000  0.5150420000000  0.5549030000000 1.0
C      1  0.5565880000000  0.5171590000000  0.4417120000000 1.0
C      1  0.4694450000000  0.4319360000000  0.5143530000000 1.0
C      1  0.5287930000000  0.4409700000000  0.4843130000000 1.0
C      1  0.4690120000000  0.5672620000000  0.5146320000000 1.0
C      1  0.5282550000000  0.5590820000000  0.4831660000000 1.0
C      1  0.4950930000000  0.4876330000000  0.4279210000000 1.0
C      1  0.5017180000000  0.4851880000000  0.5713150000000 1.0
C      1  0.4973930000000  0.5160310000000  0.4271150000000 1.0
C      1  0.5016030000000  0.5141150000000  0.5729240000000 1.0
C      1  0.4595470000000  0.5453440000000  0.4999060000000 1.0
C      1  0.5331300000000  0.5362100000000  0.4969740000000 1.0
C      1  0.4650820000000  0.4594200000000  0.5025590000000 1.0
C      1  0.5321620000000  0.4668160000000  0.4967640000000 1.0
C      1  0.4400100000000  0.5269930000000  0.5023890000000 1.0
C      1  0.5625480000000  0.5107420000000  0.4958340000000 1.0
C      1  0.4402070000000  0.4728090000000  0.5037080000000 1.0
C      1  0.5583010000000  0.4822680000000  0.5015220000000 1.0
C      1  0.4563390000000  0.4760240000000  0.4590760000000 1.0
C      1  0.5443320000000  0.4742840000000  0.5466120000000 1.0
C      1  0.4567640000000  0.5226560000000  0.4578480000000 1.0
C      1  0.5423940000000  0.5244340000000  0.5421190000000 1.0
C      1  0.4995140000000  0.5011750000000  0.5040800000000 1.0
END
