TITL C-2441154-10-867 0.0150330740372053 125000 -14739.6488018959 0 0 101 (C1) n - 1
REM
REM in /home/bkarasulu/work/CARBON/AIRSS/Generating-Clusters/ReaxFF-fromJPCA2015/Units_Real/with-SteepDescent/Higher-Symm
REM
REM
REM
REM
REM
REM ./C.cell (1df0a924f5614ab8850e4351716899ee)
REM
REM compiler GCC version 9.2.1 20190827 (Red Hat 9.2.1-1)
REM options -cpp -mtune=generic -march=x86-64 -g -O0 -fpre-include=/usr/include/finclude/math-vector-fortran.h
REM seed -407301219 404676008 -710250273 -2080779449 709422976 -2137318446 1312189187 1195372794 177420845 304090175 1002695114 -1468278209 208555709 1975325282 588093519 -1623230006 -2106160940 -1131803496 985844883 -601110268 2136982032 -513892609 1696901024 599878881 635162204 -1749482968 -103659013 -2010340110 859114744 -2098033457 -2032907238 974405890 -981037277
REM
CELL 1.54180   50.00000   50.00000   50.00000   90.00000   90.00000   90.00000
LATT -1
SFAC C  
C      1  0.5724430000000  0.5481790000000  0.5365040000000 1.0
C      1  0.5099850000000  0.4173200000000  0.5361920000000 1.0
C      1  0.4261110000000  0.5346130000000  0.5341480000000 1.0
C      1  0.5711470000000  0.4519580000000  0.4642160000000 1.0
C      1  0.5102080000000  0.5824540000000  0.4691140000000 1.0
C      1  0.4244670000000  0.4624460000000  0.4692320000000 1.0
C      1  0.5023870000000  0.4867930000000  0.5313290000000 1.0
C      1  0.4783540000000  0.5042690000000  0.5347310000000 1.0
C      1  0.5216710000000  0.5100090000000  0.5234160000000 1.0
C      1  0.5035890000000  0.5135530000000  0.4697570000000 1.0
C      1  0.4796400000000  0.4937990000000  0.4693750000000 1.0
C      1  0.5198100000000  0.4899320000000  0.4797020000000 1.0
C      1  0.4800640000000  0.5896340000000  0.5398030000000 1.0
C      1  0.5837640000000  0.4708850000000  0.5349250000000 1.0
C      1  0.4347800000000  0.4406520000000  0.5332430000000 1.0
C      1  0.4832760000000  0.4135470000000  0.4649180000000 1.0
C      1  0.5836910000000  0.5285960000000  0.4675120000000 1.0
C      1  0.4356280000000  0.5620960000000  0.4663210000000 1.0
C      1  0.4822670000000  0.5794450000000  0.4604040000000 1.0
C      1  0.5815760000000  0.4797810000000  0.4588580000000 1.0
C      1  0.4435790000000  0.4429250000000  0.4600380000000 1.0
C      1  0.4811310000000  0.4206860000000  0.5433330000000 1.0
C      1  0.5825440000000  0.5203790000000  0.5443550000000 1.0
C      1  0.4429330000000  0.5567900000000  0.5443990000000 1.0
C      1  0.5628970000000  0.4731790000000  0.5541250000000 1.0
C      1  0.4477800000000  0.4585680000000  0.5506710000000 1.0
C      1  0.4961160000000  0.5679440000000  0.5500470000000 1.0
C      1  0.5621910000000  0.5258670000000  0.4491890000000 1.0
C      1  0.4474150000000  0.5416650000000  0.4510890000000 1.0
C      1  0.4965190000000  0.4332920000000  0.4494090000000 1.0
C      1  0.4712720000000  0.5466540000000  0.5536110000000 1.0
C      1  0.5586610000000  0.5037540000000  0.5542330000000 1.0
C      1  0.4773230000000  0.4493380000000  0.5485080000000 1.0
C      1  0.4708630000000  0.4511700000000  0.4483680000000 1.0
C      1  0.5574310000000  0.4943540000000  0.4509100000000 1.0
C      1  0.4784390000000  0.5504510000000  0.4512130000000 1.0
C      1  0.4572540000000  0.5803130000000  0.4754110000000 1.0
C      1  0.5881090000000  0.5013650000000  0.4772270000000 1.0
C      1  0.4541880000000  0.4189070000000  0.4739720000000 1.0
C      1  0.4546240000000  0.4183290000000  0.5286410000000 1.0
C      1  0.5896810000000  0.4984350000000  0.5270750000000 1.0
C      1  0.4537050000000  0.5789680000000  0.5290080000000 1.0
C      1  0.4955360000000  0.4590850000000  0.5732060000000 1.0
C      1  0.4666380000000  0.5241620000000  0.5734940000000 1.0
C      1  0.5355300000000  0.5175110000000  0.5702510000000 1.0
C      1  0.4949900000000  0.5408690000000  0.4279510000000 1.0
C      1  0.4641170000000  0.4734320000000  0.4265820000000 1.0
C      1  0.5339900000000  0.4807610000000  0.4354980000000 1.0
C      1  0.4643610000000  0.4977200000000  0.4439310000000 1.0
C      1  0.5166080000000  0.5257010000000  0.4384480000000 1.0
C      1  0.5177930000000  0.4733010000000  0.4561960000000 1.0
C      1  0.4640420000000  0.5013870000000  0.5578620000000 1.0
C      1  0.5155100000000  0.4727150000000  0.5584030000000 1.0
C      1  0.5207380000000  0.5274930000000  0.5467930000000 1.0
C      1  0.4408780000000  0.5136380000000  0.4512530000000 1.0
C      1  0.5395240000000  0.5429410000000  0.4498130000000 1.0
C      1  0.5227570000000  0.4465770000000  0.4564460000000 1.0
C      1  0.4410840000000  0.4865600000000  0.5531160000000 1.0
C      1  0.5389150000000  0.4565320000000  0.5515540000000 1.0
C      1  0.5214620000000  0.5565940000000  0.5412250000000 1.0
C      1  0.5490100000000  0.5586340000000  0.4948470000000 1.0
C      1  0.4917500000000  0.4501020000000  0.4960730000000 1.0
C      1  0.4180270000000  0.5196440000000  0.4869300000000 1.0
C      1  0.5480410000000  0.4411520000000  0.5056520000000 1.0
C      1  0.4794480000000  0.5457260000000  0.5026350000000 1.0
C      1  0.4282030000000  0.4868390000000  0.5087850000000 1.0
C      1  0.5466440000000  0.5590150000000  0.5247370000000 1.0
C      1  0.5324720000000  0.4370760000000  0.5301520000000 1.0
C      1  0.4296290000000  0.5028350000000  0.5314630000000 1.0
C      1  0.5455050000000  0.4421530000000  0.4757780000000 1.0
C      1  0.5325550000000  0.5618490000000  0.4707140000000 1.0
C      1  0.4275920000000  0.4964840000000  0.4741510000000 1.0
C      1  0.5491830000000  0.5059550000000  0.5234910000000 1.0
C      1  0.4903110000000  0.4608610000000  0.5220150000000 1.0
C      1  0.4787760000000  0.5316350000000  0.5280910000000 1.0
C      1  0.5480680000000  0.4932280000000  0.4796990000000 1.0
C      1  0.4896040000000  0.5378370000000  0.4778240000000 1.0
C      1  0.4804980000000  0.4658860000000  0.4750500000000 1.0
C      1  0.5045970000000  0.5909590000000  0.4944850000000 1.0
C      1  0.5850320000000  0.4519460000000  0.4882370000000 1.0
C      1  0.4099990000000  0.4482020000000  0.4881700000000 1.0
C      1  0.5006930000000  0.4058880000000  0.5129790000000 1.0
C      1  0.5859020000000  0.5528500000000  0.5126980000000 1.0
C      1  0.4169750000000  0.5506120000000  0.5138390000000 1.0
C      1  0.4799840000000  0.4838540000000  0.4068080000000 1.0
C      1  0.4888320000000  0.5229340000000  0.4082590000000 1.0
C      1  0.5232450000000  0.5032470000000  0.4204440000000 1.0
C      1  0.4835250000000  0.5179830000000  0.5944430000000 1.0
C      1  0.4927340000000  0.4778010000000  0.5934400000000 1.0
C      1  0.5224520000000  0.5068900000000  0.5917960000000 1.0
C      1  0.5759560000000  0.4495590000000  0.5143820000000 1.0
C      1  0.4209540000000  0.4583970000000  0.5125320000000 1.0
C      1  0.4979600000000  0.5941820000000  0.5188780000000 1.0
C      1  0.5772530000000  0.5515580000000  0.4863680000000 1.0
C      1  0.4158060000000  0.5483720000000  0.4854200000000 1.0
C      1  0.4991670000000  0.4189420000000  0.4889240000000 1.0
C      1  0.4623630000000  0.5704020000000  0.5025620000000 1.0
C      1  0.4523950000000  0.4190260000000  0.5015690000000 1.0
C      1  0.5670120000000  0.4999420000000  0.5007330000000 1.0
C      1  0.5001740000000  0.5007600000000  0.6039040000000 1.0
C      1  0.5024650000000  0.4999330000000  0.3990830000000 1.0
END
