TITL C-2441156-4686-593 0.0351730856074366 125000 -26862.3623141998 0 0 185 (C1) n - 1
REM
REM in /home/bkarasulu/work/CARBON/AIRSS/Generating-Clusters/ReaxFF-fromJPCA2015/Units_Real/with-SteepDescent/Higher-Symm
REM
REM
REM
REM
REM
REM ./C.cell (1df0a924f5614ab8850e4351716899ee)
REM
REM compiler GCC version 9.2.1 20190827 (Red Hat 9.2.1-1)
REM options -cpp -mtune=generic -march=x86-64 -g -O0 -fpre-include=/usr/include/finclude/math-vector-fortran.h
REM seed -235955075 -484085167 -1838691040 -1458392750 -929011211 -125105522 517052338 -336922541 1996259086 1431399882 -702726246 -1921720866 -1382497788 1648422859 -921676029 1273211511 -614990767 677999402 -1804578088 -112074954 -242019164 -27490516 242975610 1911054278 -95963270 -957132425 -2138722276 -641896134 1445640295 24551770 -551142010 -1129682987 1826871754
REM
CELL 1.54180   50.00000   50.00000   50.00000   90.00000   90.00000   90.00000
LATT -1
SFAC C  
C      1  0.4092710000000  0.4751160000000  0.5568370000000 1.0
C      1  0.4053680000000  0.4805940000000  0.4655230000000 1.0
C      1  0.4641500000000  0.4774040000000  0.3997540000000 1.0
C      1  0.5557950000000  0.4811360000000  0.4106340000000 1.0
C      1  0.6049210000000  0.4712370000000  0.4883610000000 1.0
C      1  0.5707340000000  0.4825070000000  0.5744810000000 1.0
C      1  0.4872260000000  0.4827990000000  0.6032180000000 1.0
C      1  0.5612370000000  0.5093440000000  0.5743940000000 1.0
C      1  0.4803020000000  0.5019540000000  0.5819130000000 1.0
C      1  0.4097090000000  0.5028310000000  0.5495940000000 1.0
C      1  0.4184410000000  0.5063200000000  0.4612300000000 1.0
C      1  0.4804250000000  0.4985750000000  0.4145690000000 1.0
C      1  0.5586330000000  0.5062520000000  0.4246910000000 1.0
C      1  0.6003250000000  0.4983300000000  0.4973440000000 1.0
C      1  0.4871060000000  0.5477610000000  0.4049620000000 1.0
C      1  0.5737020000000  0.5489170000000  0.4298120000000 1.0
C      1  0.5910050000000  0.5450290000000  0.5073660000000 1.0
C      1  0.5517290000000  0.5513120000000  0.5848100000000 1.0
C      1  0.4691370000000  0.5489990000000  0.5924820000000 1.0
C      1  0.4107840000000  0.5491020000000  0.5375360000000 1.0
C      1  0.4163000000000  0.5492440000000  0.4498820000000 1.0
C      1  0.4899730000000  0.3947600000000  0.4405580000000 1.0
C      1  0.5474400000000  0.4144340000000  0.4556000000000 1.0
C      1  0.5585810000000  0.4022830000000  0.5129110000000 1.0
C      1  0.5300800000000  0.4059240000000  0.5510460000000 1.0
C      1  0.4814670000000  0.4046180000000  0.5589410000000 1.0
C      1  0.4415700000000  0.4004140000000  0.5224350000000 1.0
C      1  0.4473030000000  0.4002840000000  0.4679550000000 1.0
C      1  0.4864860000000  0.5832760000000  0.4417290000000 1.0
C      1  0.5436760000000  0.6038190000000  0.4559730000000 1.0
C      1  0.5631650000000  0.5879220000000  0.4969730000000 1.0
C      1  0.5340070000000  0.6022310000000  0.5528500000000 1.0
C      1  0.4898460000000  0.5876930000000  0.5626730000000 1.0
C      1  0.4429620000000  0.5883000000000  0.5302110000000 1.0
C      1  0.4488830000000  0.5795320000000  0.4806980000000 1.0
C      1  0.5491670000000  0.5516380000000  0.4152760000000 1.0
C      1  0.5732600000000  0.5300590000000  0.4828130000000 1.0
C      1  0.5703690000000  0.5524160000000  0.5630130000000 1.0
C      1  0.4928470000000  0.5430370000000  0.5887680000000 1.0
C      1  0.4464970000000  0.5334980000000  0.5533140000000 1.0
C      1  0.4075050000000  0.5491560000000  0.4768170000000 1.0
C      1  0.4596840000000  0.5451440000000  0.4130410000000 1.0
C      1  0.5259650000000  0.4608270000000  0.5503020000000 1.0
C      1  0.4772490000000  0.4616330000000  0.5519350000000 1.0
C      1  0.4484030000000  0.4635270000000  0.5170880000000 1.0
C      1  0.4514670000000  0.4515110000000  0.4710360000000 1.0
C      1  0.4929660000000  0.4791340000000  0.4341270000000 1.0
C      1  0.5365090000000  0.4651960000000  0.4612390000000 1.0
C      1  0.5532090000000  0.4554180000000  0.5074700000000 1.0
C      1  0.4553610000000  0.4802400000000  0.5395390000000 1.0
C      1  0.4360960000000  0.4684370000000  0.4912910000000 1.0
C      1  0.4753950000000  0.4719650000000  0.4560430000000 1.0
C      1  0.5195740000000  0.4823120000000  0.4443460000000 1.0
C      1  0.5537180000000  0.4780450000000  0.4814300000000 1.0
C      1  0.5425190000000  0.4723680000000  0.5293440000000 1.0
C      1  0.5023990000000  0.4766100000000  0.5577680000000 1.0
C      1  0.5800630000000  0.5740320000000  0.5452370000000 1.0
C      1  0.5090590000000  0.5522220000000  0.6029240000000 1.0
C      1  0.4284470000000  0.5550260000000  0.5606590000000 1.0
C      1  0.4061280000000  0.5727180000000  0.4936350000000 1.0
C      1  0.4453040000000  0.5677480000000  0.4195560000000 1.0
C      1  0.5296240000000  0.5744410000000  0.4122680000000 1.0
C      1  0.5878580000000  0.5519490000000  0.4684130000000 1.0
C      1  0.5168840000000  0.5881320000000  0.5730700000000 1.0
C      1  0.4428420000000  0.5814800000000  0.5586840000000 1.0
C      1  0.4242850000000  0.5928030000000  0.4858770000000 1.0
C      1  0.4581640000000  0.5852080000000  0.4359390000000 1.0
C      1  0.5371130000000  0.5921520000000  0.4317480000000 1.0
C      1  0.5676190000000  0.5908010000000  0.4686560000000 1.0
C      1  0.5590140000000  0.5903630000000  0.5505500000000 1.0
C      1  0.4890220000000  0.4014670000000  0.5315820000000 1.0
C      1  0.4679430000000  0.3969590000000  0.5125820000000 1.0
C      1  0.4731550000000  0.4039140000000  0.4838640000000 1.0
C      1  0.4993540000000  0.3964280000000  0.4676440000000 1.0
C      1  0.5269720000000  0.4024620000000  0.4733480000000 1.0
C      1  0.5312660000000  0.4052520000000  0.5046200000000 1.0
C      1  0.5163520000000  0.3974340000000  0.5275700000000 1.0
C      1  0.5329360000000  0.4180950000000  0.4300650000000 1.0
C      1  0.5842810000000  0.4109190000000  0.5042410000000 1.0
C      1  0.5558560000000  0.4185070000000  0.5576610000000 1.0
C      1  0.4931280000000  0.4181980000000  0.5823600000000 1.0
C      1  0.4292830000000  0.4132140000000  0.5459040000000 1.0
C      1  0.4205500000000  0.4118640000000  0.4688590000000 1.0
C      1  0.4776170000000  0.4158880000000  0.4218280000000 1.0
C      1  0.4141180000000  0.4523740000000  0.5399570000000 1.0
C      1  0.4145290000000  0.4560240000000  0.4526800000000 1.0
C      1  0.4824090000000  0.4547880000000  0.4018570000000 1.0
C      1  0.5619610000000  0.4558550000000  0.4220900000000 1.0
C      1  0.5974660000000  0.4514590000000  0.5078570000000 1.0
C      1  0.5551360000000  0.4594340000000  0.5804420000000 1.0
C      1  0.4743690000000  0.4572880000000  0.5968270000000 1.0
C      1  0.4091110000000  0.4375740000000  0.4775040000000 1.0
C      1  0.4637460000000  0.4407110000000  0.4188010000000 1.0
C      1  0.5361640000000  0.4427060000000  0.4147690000000 1.0
C      1  0.5917870000000  0.4320260000000  0.4859650000000 1.0
C      1  0.5708840000000  0.4435540000000  0.5587080000000 1.0
C      1  0.5009240000000  0.4442060000000  0.5935220000000 1.0
C      1  0.4316830000000  0.4396820000000  0.5581150000000 1.0
C      1  0.5115400000000  0.5490250000000  0.5322870000000 1.0
C      1  0.4844010000000  0.5515530000000  0.5203570000000 1.0
C      1  0.4600610000000  0.5515920000000  0.4952820000000 1.0
C      1  0.4792390000000  0.5425400000000  0.4740080000000 1.0
C      1  0.5081260000000  0.5515340000000  0.4640360000000 1.0
C      1  0.5293780000000  0.5507670000000  0.4839590000000 1.0
C      1  0.5329390000000  0.5469810000000  0.5130160000000 1.0
C      1  0.4715750000000  0.4373610000000  0.4858190000000 1.0
C      1  0.4934240000000  0.4547250000000  0.4754720000000 1.0
C      1  0.5205000000000  0.4433230000000  0.4713500000000 1.0
C      1  0.5275230000000  0.4382080000000  0.4997660000000 1.0
C      1  0.5080820000000  0.4538650000000  0.5146360000000 1.0
C      1  0.4876940000000  0.4419460000000  0.5305460000000 1.0
C      1  0.4662330000000  0.4422710000000  0.5123650000000 1.0
C      1  0.5355770000000  0.5016400000000  0.4856190000000 1.0
C      1  0.5345400000000  0.4991710000000  0.5192250000000 1.0
C      1  0.5059550000000  0.5017490000000  0.5405220000000 1.0
C      1  0.4800600000000  0.5129950000000  0.5351460000000 1.0
C      1  0.4613450000000  0.5046700000000  0.5155040000000 1.0
C      1  0.4776750000000  0.4992560000000  0.4688340000000 1.0
C      1  0.5116150000000  0.5051520000000  0.4621140000000 1.0
C      1  0.5972400000000  0.4724230000000  0.4584540000000 1.0
C      1  0.5897480000000  0.4808840000000  0.5507780000000 1.0
C      1  0.5172610000000  0.4852200000000  0.6040380000000 1.0
C      1  0.4280040000000  0.4766970000000  0.5816670000000 1.0
C      1  0.4089600000000  0.4797500000000  0.4952110000000 1.0
C      1  0.4385870000000  0.4794550000000  0.4149540000000 1.0
C      1  0.5286490000000  0.4809670000000  0.3971620000000 1.0
C      1  0.5885370000000  0.4555730000000  0.5369890000000 1.0
C      1  0.5282300000000  0.4605900000000  0.5935870000000 1.0
C      1  0.4456090000000  0.4544320000000  0.5839850000000 1.0
C      1  0.4076010000000  0.4403590000000  0.5066350000000 1.0
C      1  0.4335910000000  0.4555950000000  0.4299230000000 1.0
C      1  0.5133340000000  0.4570440000000  0.4022110000000 1.0
C      1  0.5796760000000  0.4520730000000  0.4458050000000 1.0
C      1  0.5347720000000  0.5974500000000  0.5018230000000 1.0
C      1  0.5195050000000  0.6016250000000  0.5264650000000 1.0
C      1  0.4917590000000  0.5978370000000  0.5343640000000 1.0
C      1  0.4682630000000  0.5968240000000  0.5173560000000 1.0
C      1  0.4719530000000  0.5965810000000  0.4879950000000 1.0
C      1  0.4939140000000  0.5947130000000  0.4686760000000 1.0
C      1  0.5214070000000  0.6007020000000  0.4762720000000 1.0
C      1  0.5794010000000  0.5015300000000  0.4789380000000 1.0
C      1  0.5690610000000  0.5245770000000  0.5509210000000 1.0
C      1  0.5044050000000  0.5196570000000  0.5771600000000 1.0
C      1  0.4375620000000  0.5058410000000  0.5555360000000 1.0
C      1  0.4196540000000  0.5227830000000  0.4873030000000 1.0
C      1  0.4588340000000  0.5207290000000  0.4295400000000 1.0
C      1  0.5345030000000  0.5255840000000  0.4209110000000 1.0
C      1  0.5655250000000  0.4288170000000  0.5159260000000 1.0
C      1  0.5304940000000  0.4329890000000  0.5594600000000 1.0
C      1  0.4715280000000  0.4295910000000  0.5665750000000 1.0
C      1  0.4154400000000  0.4154450000000  0.5189320000000 1.0
C      1  0.4431900000000  0.4259940000000  0.4558960000000 1.0
C      1  0.5067170000000  0.4076960000000  0.4213680000000 1.0
C      1  0.5724220000000  0.4300220000000  0.4626040000000 1.0
C      1  0.4046940000000  0.5069090000000  0.5059370000000 1.0
C      1  0.4327070000000  0.5078130000000  0.4230650000000 1.0
C      1  0.5212190000000  0.5094630000000  0.3972330000000 1.0
C      1  0.5943290000000  0.5004160000000  0.4524900000000 1.0
C      1  0.5930810000000  0.5084550000000  0.5420760000000 1.0
C      1  0.5230850000000  0.5140320000000  0.5999060000000 1.0
C      1  0.4366250000000  0.5043120000000  0.5851470000000 1.0
C      1  0.5456050000000  0.5281830000000  0.4789910000000 1.0
C      1  0.5473520000000  0.5248650000000  0.5254150000000 1.0
C      1  0.5158540000000  0.5273800000000  0.5511020000000 1.0
C      1  0.4720820000000  0.5381750000000  0.5437450000000 1.0
C      1  0.4465760000000  0.5276550000000  0.5024250000000 1.0
C      1  0.4668320000000  0.5222290000000  0.4578440000000 1.0
C      1  0.5154500000000  0.5299170000000  0.4469660000000 1.0
C      1  0.5289020000000  0.5689390000000  0.5917400000000 1.0
C      1  0.4664120000000  0.5736780000000  0.5733790000000 1.0
C      1  0.4191130000000  0.5718670000000  0.5215530000000 1.0
C      1  0.4328020000000  0.5730340000000  0.4442530000000 1.0
C      1  0.5005630000000  0.5694000000000  0.4198260000000 1.0
C      1  0.5819100000000  0.5713200000000  0.4500040000000 1.0
C      1  0.5802980000000  0.5703380000000  0.5145860000000 1.0
C      1  0.5822190000000  0.5193300000000  0.4332610000000 1.0
C      1  0.6021930000000  0.5192540000000  0.5174390000000 1.0
C      1  0.5477590000000  0.5241350000000  0.5923780000000 1.0
C      1  0.4597380000000  0.5192570000000  0.5921750000000 1.0
C      1  0.4024370000000  0.5216160000000  0.5298630000000 1.0
C      1  0.4163850000000  0.5220420000000  0.4397890000000 1.0
C      1  0.4953660000000  0.5200850000000  0.3979780000000 1.0
C      1  0.4989540000000  0.4737730000000  0.4972680000000 1.0
C      1  0.4841180000000  0.4988200000000  0.4970640000000 1.0
C      1  0.4956820000000  0.5298520000000  0.4995810000000 1.0
END
