TITL C-2441167-4473-1457 0.013448011824173 125000 -15067.249340685 0 0 102 (C1) n - 1
REM
REM in /home/bkarasulu/work/CARBON/AIRSS/Generating-Clusters/ReaxFF-fromJPCA2015/Units_Real/with-SteepDescent/Higher-Symm
REM
REM
REM
REM
REM
REM ./C.cell (1df0a924f5614ab8850e4351716899ee)
REM
REM compiler GCC version 9.2.1 20190827 (Red Hat 9.2.1-1)
REM options -cpp -mtune=generic -march=x86-64 -g -O0 -fpre-include=/usr/include/finclude/math-vector-fortran.h
REM seed -1040994062 1363214642 -526537771 62087754 -451112811 2144099221 1604541542 356671092 -773061415 -1361623864 1838502299 -1456654494 -679618482 -2073506773 243789578 -1979204891 2123512703 -459989434 1815014342 -908968031 -1185348301 1868187382 -533367420 -1060478241 -2063326212 -31097320 1493054895 -68292641 -250663636 -1621220857 1068860435 2047710809 283596155
REM
CELL 1.54180   50.00000   50.00000   50.00000   90.00000   90.00000   90.00000
LATT -1
SFAC C  
C      1  0.4612530000000  0.5894080000000  0.5017710000000 1.0
C      1  0.4434020000000  0.5287050000000  0.5130120000000 1.0
C      1  0.5624570000000  0.5049330000000  0.5757220000000 1.0
C      1  0.4491720000000  0.5087380000000  0.5698810000000 1.0
C      1  0.4846640000000  0.5678220000000  0.4409200000000 1.0
C      1  0.5096260000000  0.5006910000000  0.4142600000000 1.0
C      1  0.4562490000000  0.5759160000000  0.5258410000000 1.0
C      1  0.5772370000000  0.4574300000000  0.4972760000000 1.0
C      1  0.4190100000000  0.5332290000000  0.5015500000000 1.0
C      1  0.5582480000000  0.4360450000000  0.4963400000000 1.0
C      1  0.5067470000000  0.5009780000000  0.5912300000000 1.0
C      1  0.5259550000000  0.5813080000000  0.4688880000000 1.0
C      1  0.5353440000000  0.5139190000000  0.4181850000000 1.0
C      1  0.4827770000000  0.5120010000000  0.4690770000000 1.0
C      1  0.4628290000000  0.5302660000000  0.5600630000000 1.0
C      1  0.4558950000000  0.4386900000000  0.5163560000000 1.0
C      1  0.4448540000000  0.4440980000000  0.5428550000000 1.0
C      1  0.4882280000000  0.4741720000000  0.5281740000000 1.0
C      1  0.5229990000000  0.5529370000000  0.5511520000000 1.0
C      1  0.5748680000000  0.4816940000000  0.4767430000000 1.0
C      1  0.4974000000000  0.5826340000000  0.4628260000000 1.0
C      1  0.5117660000000  0.5389160000000  0.5074290000000 1.0
C      1  0.4522830000000  0.5022870000000  0.5143820000000 1.0
C      1  0.5264840000000  0.5338330000000  0.4566560000000 1.0
C      1  0.5779120000000  0.5073250000000  0.5522580000000 1.0
C      1  0.5242330000000  0.5391160000000  0.4282300000000 1.0
C      1  0.4871820000000  0.4175980000000  0.4349860000000 1.0
C      1  0.5079680000000  0.5350100000000  0.5354070000000 1.0
C      1  0.4458970000000  0.4282310000000  0.4627700000000 1.0
C      1  0.5033700000000  0.5776640000000  0.5400080000000 1.0
C      1  0.4936300000000  0.4096000000000  0.5103520000000 1.0
C      1  0.4765160000000  0.4583740000000  0.5068260000000 1.0
C      1  0.4874870000000  0.5221790000000  0.4145520000000 1.0
C      1  0.5126960000000  0.4736590000000  0.4755090000000 1.0
C      1  0.5729540000000  0.5313070000000  0.4949970000000 1.0
C      1  0.4718220000000  0.5377260000000  0.5860810000000 1.0
C      1  0.5830530000000  0.4928480000000  0.5262680000000 1.0
C      1  0.5080570000000  0.4259920000000  0.5289730000000 1.0
C      1  0.5190460000000  0.5141000000000  0.4961630000000 1.0
C      1  0.4102920000000  0.4839810000000  0.4966860000000 1.0
C      1  0.5538470000000  0.4349730000000  0.4676490000000 1.0
C      1  0.4301240000000  0.4692380000000  0.5434210000000 1.0
C      1  0.4850640000000  0.5482740000000  0.4974450000000 1.0
C      1  0.4658530000000  0.5587670000000  0.5692580000000 1.0
C      1  0.5376600000000  0.5609350000000  0.5044770000000 1.0
C      1  0.4630120000000  0.4119520000000  0.4812140000000 1.0
C      1  0.5056320000000  0.5902250000000  0.5142160000000 1.0
C      1  0.5349730000000  0.4728710000000  0.5517810000000 1.0
C      1  0.5359330000000  0.4986770000000  0.5389300000000 1.0
C      1  0.5606480000000  0.5049220000000  0.4293330000000 1.0
C      1  0.4860440000000  0.5199440000000  0.5433280000000 1.0
C      1  0.5628200000000  0.5514540000000  0.5146260000000 1.0
C      1  0.4399940000000  0.4830680000000  0.5677520000000 1.0
C      1  0.5663130000000  0.5411850000000  0.4679540000000 1.0
C      1  0.5573540000000  0.4621760000000  0.4577860000000 1.0
C      1  0.4600920000000  0.5033150000000  0.4522610000000 1.0
C      1  0.5779990000000  0.5032050000000  0.4997720000000 1.0
C      1  0.5736410000000  0.5220290000000  0.4473670000000 1.0
C      1  0.5253700000000  0.4678360000000  0.5015160000000 1.0
C      1  0.5101880000000  0.4741310000000  0.4252170000000 1.0
C      1  0.4923080000000  0.4114550000000  0.4804240000000 1.0
C      1  0.5792080000000  0.4954760000000  0.4500010000000 1.0
C      1  0.5373990000000  0.5134190000000  0.5855800000000 1.0
C      1  0.4860760000000  0.5905420000000  0.4899250000000 1.0
C      1  0.4634570000000  0.4112410000000  0.5105650000000 1.0
C      1  0.4972440000000  0.5492750000000  0.4206550000000 1.0
C      1  0.5297650000000  0.5878010000000  0.4975910000000 1.0
C      1  0.4949580000000  0.4365680000000  0.5521440000000 1.0
C      1  0.4740230000000  0.5383160000000  0.4732340000000 1.0
C      1  0.5278740000000  0.4937190000000  0.5119440000000 1.0
C      1  0.5509860000000  0.5470470000000  0.5409540000000 1.0
C      1  0.4415600000000  0.4570330000000  0.4624020000000 1.0
C      1  0.5058450000000  0.4173990000000  0.4564280000000 1.0
C      1  0.4921040000000  0.4793420000000  0.5797100000000 1.0
C      1  0.5514770000000  0.4541090000000  0.5383020000000 1.0
C      1  0.4164810000000  0.5249340000000  0.4745130000000 1.0
C      1  0.5767220000000  0.4640070000000  0.5256860000000 1.0
C      1  0.5341780000000  0.4423030000000  0.5162590000000 1.0
C      1  0.5286360000000  0.4619900000000  0.4483930000000 1.0
C      1  0.4754000000000  0.4398180000000  0.4200240000000 1.0
C      1  0.5289220000000  0.4324840000000  0.4528410000000 1.0
C      1  0.4623890000000  0.5494810000000  0.5144750000000 1.0
C      1  0.4586730000000  0.4223380000000  0.4371010000000 1.0
C      1  0.4778750000000  0.4990790000000  0.5263730000000 1.0
C      1  0.4648060000000  0.4686650000000  0.5770360000000 1.0
C      1  0.4763790000000  0.5766730000000  0.5491700000000 1.0
C      1  0.4223060000000  0.4776740000000  0.4703190000000 1.0
C      1  0.4636920000000  0.5487990000000  0.4469050000000 1.0
C      1  0.5423310000000  0.5572610000000  0.4618060000000 1.0
C      1  0.4016080000000  0.5117830000000  0.4956340000000 1.0
C      1  0.4679790000000  0.4702210000000  0.4552230000000 1.0
C      1  0.5047060000000  0.4658610000000  0.5534450000000 1.0
C      1  0.5549680000000  0.5194060000000  0.5394690000000 1.0
C      1  0.4676170000000  0.4435970000000  0.5615420000000 1.0
C      1  0.5228170000000  0.5378520000000  0.5792910000000 1.0
C      1  0.4309660000000  0.4821720000000  0.5172300000000 1.0
C      1  0.4310300000000  0.5037040000000  0.4614860000000 1.0
C      1  0.4826210000000  0.4666220000000  0.4274480000000 1.0
C      1  0.4636120000000  0.5246440000000  0.4299380000000 1.0
C      1  0.5109330000000  0.5084720000000  0.4711910000000 1.0
C      1  0.4850890000000  0.4641250000000  0.4796210000000 1.0
C      1  0.4985530000000  0.5287560000000  0.5917610000000 1.0
END
