TITL C-2441157-2117-773 0.0282253390161751 125000 -6088.16536268249 0 0 49 (C1) n - 1
REM
REM in /home/bkarasulu/work/CARBON/AIRSS/Generating-Clusters/ReaxFF-fromJPCA2015/Units_Real/with-SteepDescent/Higher-Symm
REM
REM
REM
REM
REM
REM ./C.cell (1df0a924f5614ab8850e4351716899ee)
REM
REM compiler GCC version 9.2.1 20190827 (Red Hat 9.2.1-1)
REM options -cpp -mtune=generic -march=x86-64 -g -O0 -fpre-include=/usr/include/finclude/math-vector-fortran.h
REM seed 886283345 -1558542130 -1020454040 357238348 1722943441 1949893490 1550876663 -1002463370 151661187 2064605766 -1204125863 -1421664847 745719358 178270852 -355732090 -649550210 2020899873 -1487570753 -497653721 -941979344 1792440343 -136661313 -1335795332 82935663 -240617195 -558201657 -2106618778 -140835711 -295538104 1396402943 -14816688 552208355 128105903
REM
CELL 1.54180   50.00000   50.00000   50.00000   90.00000   90.00000   90.00000
LATT -1
SFAC C  
C      1  0.5226160000000  0.4707100000000  0.5665200000000 1.0
C      1  0.5224030000000  0.4701410000000  0.4328090000000 1.0
C      1  0.4501790000000  0.4786970000000  0.4764640000000 1.0
C      1  0.4505340000000  0.4791820000000  0.5221920000000 1.0
C      1  0.4826930000000  0.5253800000000  0.5507810000000 1.0
C      1  0.4829610000000  0.5254600000000  0.4491630000000 1.0
C      1  0.4527360000000  0.5503280000000  0.4599870000000 1.0
C      1  0.4540370000000  0.5514290000000  0.5383720000000 1.0
C      1  0.5003010000000  0.5565580000000  0.4850080000000 1.0
C      1  0.5013660000000  0.5565520000000  0.5149250000000 1.0
C      1  0.5338510000000  0.5154760000000  0.4604310000000 1.0
C      1  0.5361200000000  0.5153710000000  0.5410790000000 1.0
C      1  0.4770120000000  0.5397760000000  0.4889840000000 1.0
C      1  0.4865600000000  0.5317730000000  0.5123810000000 1.0
C      1  0.4890110000000  0.4976350000000  0.5497490000000 1.0
C      1  0.4892880000000  0.4975940000000  0.4500960000000 1.0
C      1  0.5596640000000  0.5097560000000  0.5450720000000 1.0
C      1  0.5590910000000  0.5096130000000  0.4555550000000 1.0
C      1  0.5316080000000  0.5377680000000  0.5467710000000 1.0
C      1  0.5317240000000  0.5381570000000  0.4529230000000 1.0
C      1  0.5025710000000  0.4549410000000  0.5545290000000 1.0
C      1  0.5022210000000  0.4550070000000  0.4453320000000 1.0
C      1  0.5053150000000  0.5464860000000  0.5430110000000 1.0
C      1  0.5050930000000  0.5452870000000  0.4580510000000 1.0
C      1  0.5641490000000  0.4855670000000  0.5345220000000 1.0
C      1  0.5662630000000  0.4866570000000  0.4649100000000 1.0
C      1  0.4899460000000  0.4445010000000  0.5142620000000 1.0
C      1  0.4900740000000  0.4442350000000  0.4858690000000 1.0
C      1  0.4561410000000  0.5227650000000  0.4595480000000 1.0
C      1  0.4563200000000  0.5241730000000  0.5389280000000 1.0
C      1  0.4767010000000  0.4708860000000  0.4471240000000 1.0
C      1  0.4767880000000  0.4706430000000  0.5521870000000 1.0
C      1  0.4658660000000  0.4569050000000  0.5287150000000 1.0
C      1  0.4665280000000  0.4568690000000  0.4710860000000 1.0
C      1  0.5147630000000  0.4458770000000  0.4714340000000 1.0
C      1  0.5148570000000  0.4461590000000  0.5282510000000 1.0
C      1  0.4472970000000  0.5049250000000  0.4844230000000 1.0
C      1  0.4470720000000  0.5052100000000  0.5143660000000 1.0
C      1  0.5128760000000  0.5084980000000  0.4852020000000 1.0
C      1  0.5070410000000  0.5118140000000  0.5128130000000 1.0
C      1  0.5392110000000  0.4566860000000  0.5150710000000 1.0
C      1  0.5383460000000  0.4555210000000  0.4856150000000 1.0
C      1  0.4506250000000  0.5579950000000  0.4866480000000 1.0
C      1  0.4502660000000  0.5569630000000  0.5147720000000 1.0
C      1  0.5443330000000  0.4866660000000  0.5151090000000 1.0
C      1  0.5461280000000  0.4842520000000  0.4843650000000 1.0
C      1  0.5171560000000  0.4942650000000  0.5529280000000 1.0
C      1  0.5166120000000  0.4941080000000  0.4451230000000 1.0
C      1  0.5029410000000  0.4883210000000  0.4977430000000 1.0
END
