TITL C-2441157-2117-1205 0.0495759807652202 125000 -21176.8471311845 0 0 145 (C1) n - 1
REM
REM in /home/bkarasulu/work/CARBON/AIRSS/Generating-Clusters/ReaxFF-fromJPCA2015/Units_Real/with-SteepDescent/Higher-Symm
REM
REM
REM
REM
REM
REM ./C.cell (1df0a924f5614ab8850e4351716899ee)
REM
REM compiler GCC version 9.2.1 20190827 (Red Hat 9.2.1-1)
REM options -cpp -mtune=generic -march=x86-64 -g -O0 -fpre-include=/usr/include/finclude/math-vector-fortran.h
REM seed 942581102 -2063944295 -1116737755 -2034157687 1273274734 668504569 931852470 -92129719 635587831 -1189975793 -1233630956 -940899910 1415211759 1467941800 402885096 -1826735999 129226138 -1383354521 -587582602 -961077737 -232357027 999179071 906485096 1351627229 -1503614226 1506898958 -1533292149 -622479401 569737612 -225151894 -1072363288 -258393554 -1315964925
REM
CELL 1.54180   50.00000   50.00000   50.00000   90.00000   90.00000   90.00000
LATT -1
SFAC C  
C      1  0.4602780000000  0.4174220000000  0.4940030000000 1.0
C      1  0.4728800000000  0.4318430000000  0.4728380000000 1.0
C      1  0.4979540000000  0.4208660000000  0.4623900000000 1.0
C      1  0.5235420000000  0.4282930000000  0.4694500000000 1.0
C      1  0.5377310000000  0.4207690000000  0.4928070000000 1.0
C      1  0.5335310000000  0.4200850000000  0.5200360000000 1.0
C      1  0.5126390000000  0.4221220000000  0.5379070000000 1.0
C      1  0.4852410000000  0.4216030000000  0.5381100000000 1.0
C      1  0.4642330000000  0.4196690000000  0.5207390000000 1.0
C      1  0.4284350000000  0.4655910000000  0.5356460000000 1.0
C      1  0.4216640000000  0.4646840000000  0.4816640000000 1.0
C      1  0.4513370000000  0.4642230000000  0.4358900000000 1.0
C      1  0.5043560000000  0.4666120000000  0.4236910000000 1.0
C      1  0.5553370000000  0.4653560000000  0.4409700000000 1.0
C      1  0.5797090000000  0.4639530000000  0.4899620000000 1.0
C      1  0.5656900000000  0.4649810000000  0.5423860000000 1.0
C      1  0.5226510000000  0.4665660000000  0.5755510000000 1.0
C      1  0.4693240000000  0.4671810000000  0.5704900000000 1.0
C      1  0.5767240000000  0.4238860000000  0.5149650000000 1.0
C      1  0.5495910000000  0.4253800000000  0.5618220000000 1.0
C      1  0.4983570000000  0.4262340000000  0.5802260000000 1.0
C      1  0.4474590000000  0.4258490000000  0.5609460000000 1.0
C      1  0.4216280000000  0.4245210000000  0.5130360000000 1.0
C      1  0.4302660000000  0.4236760000000  0.4599080000000 1.0
C      1  0.4730640000000  0.4251900000000  0.4257480000000 1.0
C      1  0.5261560000000  0.4246850000000  0.4257750000000 1.0
C      1  0.5681630000000  0.4245490000000  0.4610650000000 1.0
C      1  0.5657430000000  0.4952120000000  0.5440450000000 1.0
C      1  0.5194860000000  0.4962290000000  0.5774750000000 1.0
C      1  0.4673340000000  0.4968940000000  0.5702420000000 1.0
C      1  0.4169570000000  0.4911650000000  0.5401580000000 1.0
C      1  0.4122950000000  0.4913180000000  0.4779900000000 1.0
C      1  0.4459100000000  0.4902020000000  0.4259920000000 1.0
C      1  0.5067360000000  0.4967680000000  0.4244280000000 1.0
C      1  0.5644230000000  0.4916370000000  0.4343060000000 1.0
C      1  0.5918210000000  0.4896010000000  0.4905250000000 1.0
C      1  0.5404710000000  0.5388900000000  0.5860330000000 1.0
C      1  0.4735330000000  0.5372720000000  0.5913250000000 1.0
C      1  0.4178120000000  0.5373280000000  0.5537760000000 1.0
C      1  0.4085350000000  0.5378400000000  0.4903890000000 1.0
C      1  0.4348840000000  0.5359150000000  0.4299780000000 1.0
C      1  0.4917860000000  0.5377600000000  0.4065600000000 1.0
C      1  0.5565180000000  0.5392500000000  0.4241100000000 1.0
C      1  0.5887210000000  0.5369830000000  0.4836180000000 1.0
C      1  0.5877600000000  0.5371060000000  0.5378300000000 1.0
C      1  0.5306260000000  0.5443400000000  0.4992950000000 1.0
C      1  0.5214580000000  0.5591960000000  0.5213540000000 1.0
C      1  0.5078800000000  0.5471920000000  0.5428380000000 1.0
C      1  0.4784940000000  0.5431070000000  0.5373860000000 1.0
C      1  0.4691350000000  0.5558600000000  0.5136250000000 1.0
C      1  0.4664370000000  0.5453320000000  0.4875610000000 1.0
C      1  0.4855040000000  0.5567620000000  0.4700580000000 1.0
C      1  0.5077390000000  0.5462330000000  0.4568700000000 1.0
C      1  0.5315240000000  0.5514030000000  0.4719200000000 1.0
C      1  0.5084480000000  0.5678330000000  0.5633180000000 1.0
C      1  0.4664450000000  0.5666190000000  0.5575960000000 1.0
C      1  0.4337990000000  0.5705310000000  0.5271670000000 1.0
C      1  0.4418130000000  0.5678250000000  0.4753370000000 1.0
C      1  0.4604630000000  0.5704340000000  0.4386650000000 1.0
C      1  0.5152690000000  0.5703040000000  0.4364190000000 1.0
C      1  0.5503050000000  0.5706150000000  0.4623570000000 1.0
C      1  0.5678800000000  0.5737060000000  0.4993410000000 1.0
C      1  0.5560310000000  0.5726220000000  0.5448110000000 1.0
C      1  0.4508500000000  0.5350750000000  0.4073620000000 1.0
C      1  0.5195710000000  0.5377790000000  0.4034570000000 1.0
C      1  0.5763470000000  0.5397610000000  0.4442170000000 1.0
C      1  0.6032240000000  0.5341710000000  0.5082950000000 1.0
C      1  0.5777840000000  0.5355340000000  0.5666780000000 1.0
C      1  0.5143650000000  0.5401610000000  0.5988220000000 1.0
C      1  0.4472110000000  0.5382590000000  0.5821450000000 1.0
C      1  0.4018250000000  0.5364920000000  0.5308000000000 1.0
C      1  0.4108340000000  0.5388170000000  0.4625060000000 1.0
C      1  0.4675250000000  0.4628520000000  0.4793020000000 1.0
C      1  0.4857390000000  0.4779720000000  0.4643950000000 1.0
C      1  0.5116200000000  0.4637490000000  0.4700990000000 1.0
C      1  0.5350390000000  0.4795250000000  0.4787440000000 1.0
C      1  0.5331820000000  0.4666700000000  0.5046600000000 1.0
C      1  0.5296980000000  0.4796660000000  0.5290930000000 1.0
C      1  0.5026680000000  0.4791540000000  0.5373430000000 1.0
C      1  0.4875080000000  0.4651090000000  0.5175220000000 1.0
C      1  0.4636150000000  0.4757780000000  0.5048360000000 1.0
C      1  0.4586260000000  0.5072530000000  0.4064750000000 1.0
C      1  0.5268830000000  0.5099200000000  0.4065150000000 1.0
C      1  0.5804310000000  0.5113980000000  0.4475220000000 1.0
C      1  0.6026790000000  0.5057370000000  0.5117210000000 1.0
C      1  0.5701500000000  0.5079300000000  0.5712320000000 1.0
C      1  0.5072900000000  0.5118540000000  0.6006910000000 1.0
C      1  0.4419950000000  0.5101270000000  0.5795140000000 1.0
C      1  0.4016640000000  0.5086850000000  0.5236870000000 1.0
C      1  0.4113790000000  0.5106830000000  0.4567610000000 1.0
C      1  0.4698180000000  0.5566500000000  0.4153080000000 1.0
C      1  0.5344310000000  0.5580850000000  0.4182140000000 1.0
C      1  0.5784020000000  0.5602540000000  0.4674890000000 1.0
C      1  0.5741760000000  0.5635380000000  0.5255230000000 1.0
C      1  0.5576180000000  0.5563400000000  0.5690340000000 1.0
C      1  0.4946040000000  0.5584400000000  0.5877600000000 1.0
C      1  0.4369960000000  0.5620950000000  0.5559640000000 1.0
C      1  0.4125810000000  0.5568780000000  0.5129060000000 1.0
C      1  0.4311750000000  0.5610690000000  0.4480620000000 1.0
C      1  0.5217080000000  0.4176020000000  0.5648120000000 1.0
C      1  0.4752890000000  0.4174270000000  0.5648210000000 1.0
C      1  0.4396720000000  0.4160960000000  0.5346440000000 1.0
C      1  0.4326110000000  0.4141380000000  0.4880160000000 1.0
C      1  0.4560100000000  0.4188930000000  0.4482790000000 1.0
C      1  0.4993860000000  0.4154940000000  0.4346230000000 1.0
C      1  0.5424720000000  0.4186900000000  0.4486320000000 1.0
C      1  0.5655920000000  0.4157170000000  0.4889100000000 1.0
C      1  0.5576870000000  0.4156000000000  0.5353590000000 1.0
C      1  0.4651050000000  0.5038620000000  0.5120280000000 1.0
C      1  0.4686080000000  0.5172340000000  0.4878690000000 1.0
C      1  0.4836140000000  0.5063660000000  0.4671000000000 1.0
C      1  0.5095020000000  0.5144810000000  0.4555640000000 1.0
C      1  0.5299610000000  0.5074130000000  0.4763230000000 1.0
C      1  0.5345280000000  0.5177660000000  0.5024510000000 1.0
C      1  0.5353080000000  0.5081590000000  0.5305300000000 1.0
C      1  0.5050390000000  0.5065150000000  0.5461920000000 1.0
C      1  0.4757740000000  0.5124560000000  0.5385630000000 1.0
C      1  0.4596990000000  0.5832330000000  0.5153740000000 1.0
C      1  0.4579050000000  0.5889330000000  0.4847470000000 1.0
C      1  0.4787070000000  0.5836600000000  0.4617870000000 1.0
C      1  0.5107700000000  0.5909020000000  0.4555490000000 1.0
C      1  0.5347360000000  0.5941910000000  0.4721420000000 1.0
C      1  0.5452760000000  0.5904190000000  0.4995180000000 1.0
C      1  0.5323460000000  0.5855710000000  0.5284250000000 1.0
C      1  0.5062400000000  0.5912100000000  0.5462360000000 1.0
C      1  0.4780600000000  0.5885950000000  0.5425890000000 1.0
C      1  0.5474070000000  0.4544630000000  0.5627230000000 1.0
C      1  0.4959180000000  0.4552550000000  0.5787440000000 1.0
C      1  0.4464010000000  0.4547330000000  0.5577930000000 1.0
C      1  0.4215390000000  0.4533440000000  0.5097510000000 1.0
C      1  0.4318000000000  0.4527620000000  0.4565290000000 1.0
C      1  0.4769730000000  0.4543480000000  0.4248140000000 1.0
C      1  0.5302000000000  0.4537100000000  0.4275270000000 1.0
C      1  0.5706960000000  0.4534380000000  0.4631450000000 1.0
C      1  0.5766240000000  0.4528710000000  0.5175440000000 1.0
C      1  0.4041960000000  0.5100210000000  0.4970220000000 1.0
C      1  0.4285580000000  0.5098410000000  0.4365320000000 1.0
C      1  0.4860160000000  0.5097130000000  0.4068820000000 1.0
C      1  0.5528740000000  0.5112280000000  0.4168720000000 1.0
C      1  0.5879120000000  0.5106490000000  0.4725660000000 1.0
C      1  0.5887500000000  0.5081470000000  0.5347860000000 1.0
C      1  0.5459680000000  0.5099520000000  0.5855400000000 1.0
C      1  0.4801600000000  0.5093520000000  0.5944160000000 1.0
C      1  0.4213690000000  0.5099710000000  0.5612040000000 1.0
C      1  0.5075830000000  0.4565540000000  0.4984180000000 1.0
END
