TITL C-2441161-5029-529 0.0735565342839301 125000 -9277.87830483652 0 0 78 (C1) n - 1
REM
REM in /home/bkarasulu/work/CARBON/AIRSS/Generating-Clusters/ReaxFF-fromJPCA2015/Units_Real/with-SteepDescent/Higher-Symm
REM
REM
REM
REM
REM
REM ./C.cell (1df0a924f5614ab8850e4351716899ee)
REM
REM compiler GCC version 9.2.1 20190827 (Red Hat 9.2.1-1)
REM options -cpp -mtune=generic -march=x86-64 -g -O0 -fpre-include=/usr/include/finclude/math-vector-fortran.h
REM seed 1824083362 302983983 1601010722 -1639110672 737377704 -1373297112 -360582170 -1334471047 1187223953 1627833534 -542333925 1855233415 -667338990 607297517 -1966583522 -726164229 -819563293 -1331624705 -115510368 1834792594 817065753 -129327677 -1420128569 457295832 -371603344 -730137467 -1584449241 -1520508076 -906299525 -1916771820 -1863201160 363821054 -1337010569
REM
CELL 1.54180   50.00000   50.00000   50.00000   90.00000   90.00000   90.00000
LATT -1
SFAC C  
C      1  0.4480730000000  0.4503710000000  0.4789590000000 1.0
C      1  0.4474250000000  0.5491860000000  0.4666860000000 1.0
C      1  0.4474020000000  0.5057030000000  0.5550370000000 1.0
C      1  0.5184710000000  0.5612820000000  0.4500040000000 1.0
C      1  0.5184620000000  0.5121140000000  0.5810380000000 1.0
C      1  0.5185660000000  0.4264800000000  0.4739820000000 1.0
C      1  0.4571850000000  0.4571780000000  0.5412250000000 1.0
C      1  0.4564640000000  0.4863720000000  0.4413120000000 1.0
C      1  0.4574160000000  0.5607100000000  0.5143390000000 1.0
C      1  0.4992730000000  0.5109720000000  0.5597640000000 1.0
C      1  0.4985380000000  0.4440600000000  0.4863890000000 1.0
C      1  0.4975340000000  0.5437470000000  0.4592590000000 1.0
C      1  0.4378880000000  0.5395180000000  0.5195640000000 1.0
C      1  0.4380130000000  0.4550250000000  0.5188170000000 1.0
C      1  0.4446350000000  0.5038360000000  0.4611730000000 1.0
C      1  0.5616810000000  0.4853280000000  0.5277690000000 1.0
C      1  0.5666940000000  0.4847610000000  0.4686360000000 1.0
C      1  0.5616870000000  0.5322930000000  0.5041080000000 1.0
C      1  0.5396530000000  0.5346200000000  0.5229470000000 1.0
C      1  0.5454180000000  0.4629330000000  0.5200820000000 1.0
C      1  0.5459610000000  0.5016110000000  0.4583270000000 1.0
C      1  0.5547530000000  0.4580100000000  0.4694760000000 1.0
C      1  0.5537470000000  0.5463150000000  0.4789800000000 1.0
C      1  0.5516380000000  0.4968220000000  0.5528470000000 1.0
C      1  0.5265850000000  0.5421990000000  0.4297560000000 1.0
C      1  0.5262500000000  0.5400530000000  0.5740550000000 1.0
C      1  0.5264220000000  0.4166070000000  0.5002680000000 1.0
C      1  0.5294630000000  0.5137050000000  0.5404270000000 1.0
C      1  0.5377620000000  0.4622880000000  0.4927560000000 1.0
C      1  0.5343770000000  0.5238070000000  0.4726740000000 1.0
C      1  0.5047010000000  0.4542520000000  0.5140380000000 1.0
C      1  0.5048100000000  0.5140390000000  0.4564560000000 1.0
C      1  0.4992720000000  0.5474270000000  0.5267200000000 1.0
C      1  0.5039000000000  0.5571870000000  0.5644510000000 1.0
C      1  0.5046260000000  0.4145720000000  0.5213970000000 1.0
C      1  0.5047460000000  0.5255940000000  0.4174140000000 1.0
C      1  0.4309510000000  0.5399300000000  0.4902590000000 1.0
C      1  0.4302390000000  0.5005200000000  0.5325860000000 1.0
C      1  0.4278650000000  0.4660770000000  0.4939400000000 1.0
C      1  0.4722690000000  0.5012020000000  0.4228860000000 1.0
C      1  0.4771060000000  0.5653230000000  0.5352390000000 1.0
C      1  0.4738750000000  0.4347320000000  0.5396290000000 1.0
C      1  0.5152730000000  0.4377810000000  0.5356160000000 1.0
C      1  0.5145710000000  0.5016300000000  0.4309660000000 1.0
C      1  0.5173620000000  0.5649930000000  0.5383130000000 1.0
C      1  0.5021090000000  0.4783590000000  0.5275100000000 1.0
C      1  0.5004370000000  0.4885520000000  0.4697160000000 1.0
C      1  0.4981560000000  0.5302240000000  0.5044310000000 1.0
C      1  0.5150130000000  0.4720810000000  0.5577260000000 1.0
C      1  0.5113680000000  0.4628770000000  0.4496320000000 1.0
C      1  0.5190410000000  0.5742170000000  0.4950040000000 1.0
C      1  0.4572860000000  0.5299220000000  0.5429920000000 1.0
C      1  0.4595220000000  0.4435700000000  0.5038010000000 1.0
C      1  0.4565260000000  0.5268430000000  0.4506410000000 1.0
C      1  0.5446710000000  0.5374510000000  0.5511790000000 1.0
C      1  0.5462910000000  0.4375840000000  0.5063470000000 1.0
C      1  0.5471610000000  0.5271960000000  0.4449790000000 1.0
C      1  0.5358790000000  0.5699760000000  0.4741500000000 1.0
C      1  0.5342380000000  0.4871100000000  0.5743420000000 1.0
C      1  0.5335030000000  0.4439540000000  0.4544660000000 1.0
C      1  0.4754220000000  0.5572210000000  0.4716110000000 1.0
C      1  0.4750630000000  0.4962310000000  0.5596840000000 1.0
C      1  0.4763940000000  0.4496590000000  0.4671410000000 1.0
C      1  0.4736940000000  0.4832160000000  0.5337090000000 1.0
C      1  0.4751720000000  0.4771810000000  0.4619010000000 1.0
C      1  0.4743670000000  0.5442090000000  0.4963280000000 1.0
C      1  0.4755870000000  0.5479920000000  0.5584440000000 1.0
C      1  0.4766290000000  0.4212810000000  0.5161470000000 1.0
C      1  0.4759340000000  0.5275870000000  0.4253970000000 1.0
C      1  0.5253070000000  0.4757950000000  0.4301690000000 1.0
C      1  0.5307950000000  0.5736150000000  0.5151420000000 1.0
C      1  0.5286700000000  0.4489750000000  0.5582540000000 1.0
C      1  0.5751870000000  0.4990310000000  0.4920050000000 1.0
C      1  0.4489990000000  0.5015030000000  0.4903350000000 1.0
C      1  0.5568410000000  0.5033450000000  0.5060510000000 1.0
C      1  0.5004330000000  0.5002700000000  0.5011750000000 1.0
C      1  0.4720030000000  0.4970960000000  0.5058670000000 1.0
C      1  0.4242320000000  0.4935560000000  0.5056710000000 1.0
END
