TITL C-2441169-1362-1469 0.0778234983482574 125000 -14391.7361213294 0 0 111 (C1) n - 1
REM
REM in /home/bkarasulu/work/CARBON/AIRSS/Generating-Clusters/ReaxFF-fromJPCA2015/Units_Real/with-SteepDescent/Higher-Symm
REM
REM
REM
REM
REM
REM ./C.cell (1df0a924f5614ab8850e4351716899ee)
REM
REM compiler GCC version 9.2.1 20190827 (Red Hat 9.2.1-1)
REM options -cpp -mtune=generic -march=x86-64 -g -O0 -fpre-include=/usr/include/finclude/math-vector-fortran.h
REM seed 653561375 773826244 1074747688 -409173137 847037667 1078560230 -331323134 -1107345052 3080780 -1669576241 135315492 -1231113955 1555205226 -62782218 2053035550 -985265143 1171913136 -929123776 -1685376626 -1402293358 -345069529 -1769259186 -1253630147 1861887811 -1732451437 626993172 -429350402 -112844590 -239440352 -1823525190 1641266234 252805669 1904031068
REM
CELL 1.54180   50.00000   50.00000   50.00000   90.00000   90.00000   90.00000
LATT -1
SFAC C  
C      1  0.5450470000000  0.5128390000000  0.5743940000000 1.0
C      1  0.5404140000000  0.5763690000000  0.5043570000000 1.0
C      1  0.5443980000000  0.5308680000000  0.4287660000000 1.0
C      1  0.5459310000000  0.4426150000000  0.4460830000000 1.0
C      1  0.5409280000000  0.4341520000000  0.5412810000000 1.0
C      1  0.5638930000000  0.4345950000000  0.4960390000000 1.0
C      1  0.5672700000000  0.4751480000000  0.5600370000000 1.0
C      1  0.5636540000000  0.5510570000000  0.5417890000000 1.0
C      1  0.5664950000000  0.5547980000000  0.4648040000000 1.0
C      1  0.5659590000000  0.4833350000000  0.4350830000000 1.0
C      1  0.4938230000000  0.4451030000000  0.4518760000000 1.0
C      1  0.4959210000000  0.4302660000000  0.5390320000000 1.0
C      1  0.4983680000000  0.5111910000000  0.5859970000000 1.0
C      1  0.4966850000000  0.5828570000000  0.5091130000000 1.0
C      1  0.4936160000000  0.5358570000000  0.4227800000000 1.0
C      1  0.5002410000000  0.5206640000000  0.4881780000000 1.0
C      1  0.5002000000000  0.4962940000000  0.4746670000000 1.0
C      1  0.5021890000000  0.4756150000000  0.4952990000000 1.0
C      1  0.5010830000000  0.4896800000000  0.5205400000000 1.0
C      1  0.5002970000000  0.5164020000000  0.5155690000000 1.0
C      1  0.4274390000000  0.4823020000000  0.5443120000000 1.0
C      1  0.4257450000000  0.5361890000000  0.5298440000000 1.0
C      1  0.4276610000000  0.5389900000000  0.4737510000000 1.0
C      1  0.4257300000000  0.4865050000000  0.4543270000000 1.0
C      1  0.4256310000000  0.4514790000000  0.4977430000000 1.0
C      1  0.5201350000000  0.5401650000000  0.4818730000000 1.0
C      1  0.5191890000000  0.4947250000000  0.4543750000000 1.0
C      1  0.5239680000000  0.4586430000000  0.4918750000000 1.0
C      1  0.5121180000000  0.4770300000000  0.5431180000000 1.0
C      1  0.5181080000000  0.5344400000000  0.5282510000000 1.0
C      1  0.4500610000000  0.5601110000000  0.4624810000000 1.0
C      1  0.4462670000000  0.4826040000000  0.4293240000000 1.0
C      1  0.4455820000000  0.4267370000000  0.4937170000000 1.0
C      1  0.4493990000000  0.4705690000000  0.5657100000000 1.0
C      1  0.4444870000000  0.5539070000000  0.5478590000000 1.0
C      1  0.5709300000000  0.4999090000000  0.5442880000000 1.0
C      1  0.5663240000000  0.5411930000000  0.5143790000000 1.0
C      1  0.5688080000000  0.5257940000000  0.4635520000000 1.0
C      1  0.5694910000000  0.4725040000000  0.4617510000000 1.0
C      1  0.5701700000000  0.4556460000000  0.5145150000000 1.0
C      1  0.4873410000000  0.5073440000000  0.4104660000000 1.0
C      1  0.4865860000000  0.4190370000000  0.4666670000000 1.0
C      1  0.4897470000000  0.4349210000000  0.5663890000000 1.0
C      1  0.4844140000000  0.5543350000000  0.5714810000000 1.0
C      1  0.4916200000000  0.5856110000000  0.4781510000000 1.0
C      1  0.4726510000000  0.4602290000000  0.4659290000000 1.0
C      1  0.4696170000000  0.4555700000000  0.5250460000000 1.0
C      1  0.4662860000000  0.5099120000000  0.5482070000000 1.0
C      1  0.4654110000000  0.5493780000000  0.5063440000000 1.0
C      1  0.4600110000000  0.5209810000000  0.4562810000000 1.0
C      1  0.4628440000000  0.5034450000000  0.5216080000000 1.0
C      1  0.4622280000000  0.5223250000000  0.5019610000000 1.0
C      1  0.4621200000000  0.5081610000000  0.4776850000000 1.0
C      1  0.4622000000000  0.4803830000000  0.4816650000000 1.0
C      1  0.4613950000000  0.4776940000000  0.5091880000000 1.0
C      1  0.5447180000000  0.5236000000000  0.4812000000000 1.0
C      1  0.5426010000000  0.4839320000000  0.4669030000000 1.0
C      1  0.5457710000000  0.4749600000000  0.5071030000000 1.0
C      1  0.5453610000000  0.4956600000000  0.5299540000000 1.0
C      1  0.5436720000000  0.5226040000000  0.5215280000000 1.0
C      1  0.4907970000000  0.4763490000000  0.4247860000000 1.0
C      1  0.4898580000000  0.4220330000000  0.5004160000000 1.0
C      1  0.4984360000000  0.4803100000000  0.5700710000000 1.0
C      1  0.4890150000000  0.5667320000000  0.5459800000000 1.0
C      1  0.4948480000000  0.5615450000000  0.4575420000000 1.0
C      1  0.4568330000000  0.5428880000000  0.5717510000000 1.0
C      1  0.4590640000000  0.5805350000000  0.4804360000000 1.0
C      1  0.4586400000000  0.5062630000000  0.4186270000000 1.0
C      1  0.4561310000000  0.4228920000000  0.4673220000000 1.0
C      1  0.4591660000000  0.4434440000000  0.5630310000000 1.0
C      1  0.5185760000000  0.4753250000000  0.4163610000000 1.0
C      1  0.5176930000000  0.4136280000000  0.4989940000000 1.0
C      1  0.5217330000000  0.4667500000000  0.5828110000000 1.0
C      1  0.5195310000000  0.5695380000000  0.5533960000000 1.0
C      1  0.5226540000000  0.5713380000000  0.4531260000000 1.0
C      1  0.5632770000000  0.5613190000000  0.4934690000000 1.0
C      1  0.5656620000000  0.5126720000000  0.4374130000000 1.0
C      1  0.5653610000000  0.4442320000000  0.4675180000000 1.0
C      1  0.5653560000000  0.4514520000000  0.5426290000000 1.0
C      1  0.5652110000000  0.5255720000000  0.5576400000000 1.0
C      1  0.5167410000000  0.4497270000000  0.5323440000000 1.0
C      1  0.5170930000000  0.5218800000000  0.5660460000000 1.0
C      1  0.5165710000000  0.5571400000000  0.5071340000000 1.0
C      1  0.5189610000000  0.5198610000000  0.4361900000000 1.0
C      1  0.5217430000000  0.4432280000000  0.4644860000000 1.0
C      1  0.4226970000000  0.5082650000000  0.5338070000000 1.0
C      1  0.4223720000000  0.5347500000000  0.5011420000000 1.0
C      1  0.4217030000000  0.5115640000000  0.4670920000000 1.0
C      1  0.4214370000000  0.4715270000000  0.4779880000000 1.0
C      1  0.4232550000000  0.4689600000000  0.5199620000000 1.0
C      1  0.5425160000000  0.4226900000000  0.5129380000000 1.0
C      1  0.5460610000000  0.4836070000000  0.5777720000000 1.0
C      1  0.5423190000000  0.5703500000000  0.5360750000000 1.0
C      1  0.5460060000000  0.5560920000000  0.4439650000000 1.0
C      1  0.5441830000000  0.4651650000000  0.4276670000000 1.0
C      1  0.4676140000000  0.4859300000000  0.5817100000000 1.0
C      1  0.4612080000000  0.5754970000000  0.5378480000000 1.0
C      1  0.4704490000000  0.5570770000000  0.4402660000000 1.0
C      1  0.4654660000000  0.4608260000000  0.4257620000000 1.0
C      1  0.4641680000000  0.4160850000000  0.5141580000000 1.0
C      1  0.4553090000000  0.5125860000000  0.5736970000000 1.0
C      1  0.4528650000000  0.5744410000000  0.5088390000000 1.0
C      1  0.4540240000000  0.5312010000000  0.4338020000000 1.0
C      1  0.4519210000000  0.4464250000000  0.4500870000000 1.0
C      1  0.4524860000000  0.4349210000000  0.5353900000000 1.0
C      1  0.5178210000000  0.4402600000000  0.5718890000000 1.0
C      1  0.5136040000000  0.5502160000000  0.5754100000000 1.0
C      1  0.5220640000000  0.5862870000000  0.4778010000000 1.0
C      1  0.5179620000000  0.5045000000000  0.4111410000000 1.0
C      1  0.5153710000000  0.4143390000000  0.4696180000000 1.0
C      1  0.5477440000000  0.4972970000000  0.4884280000000 1.0
END
