TITL C-2441168-9922-247 0.00640427308767788 125000 -21157.9019970685 0 0 140 (C1) n - 1
REM
REM in /home/bkarasulu/work/CARBON/AIRSS/Generating-Clusters/ReaxFF-fromJPCA2015/Units_Real/with-SteepDescent/Higher-Symm
REM
REM
REM
REM
REM
REM ./C.cell (1df0a924f5614ab8850e4351716899ee)
REM
REM compiler GCC version 9.2.1 20190827 (Red Hat 9.2.1-1)
REM options -cpp -mtune=generic -march=x86-64 -g -O0 -fpre-include=/usr/include/finclude/math-vector-fortran.h
REM seed 364828269 -710285374 -978436682 926577148 -667991984 1094715591 364243383 717065682 736127364 23686622 1076069757 2120493780 544236306 -22910956 -1918729927 -1797150501 -183108713 -1798849401 -1087327052 -900223044 -648286560 106709393 215786294 -1716918527 847362729 -1364093703 863162934 -1352091307 2035734334 1061669156 1535301318 -1348658416 -1063739902
REM
CELL 1.54180   50.00000   50.00000   50.00000   90.00000   90.00000   90.00000
LATT -1
SFAC C  
C      1  0.4094210000000  0.5121730000000  0.5177130000000 1.0
C      1  0.5934920000000  0.4864320000000  0.4814530000000 1.0
C      1  0.4815470000000  0.5095670000000  0.5279170000000 1.0
C      1  0.5197690000000  0.4860260000000  0.4796620000000 1.0
C      1  0.5353450000000  0.4390120000000  0.5548060000000 1.0
C      1  0.4594640000000  0.5636090000000  0.4463470000000 1.0
C      1  0.4848220000000  0.5111690000000  0.3980860000000 1.0
C      1  0.5161220000000  0.4920310000000  0.6031560000000 1.0
C      1  0.5134960000000  0.5431930000000  0.4285830000000 1.0
C      1  0.4897020000000  0.4572550000000  0.5743890000000 1.0
C      1  0.4390980000000  0.5347080000000  0.4269390000000 1.0
C      1  0.5604980000000  0.4657720000000  0.5720300000000 1.0
C      1  0.5600120000000  0.5731200000000  0.5000470000000 1.0
C      1  0.4394700000000  0.4261430000000  0.4976250000000 1.0
C      1  0.5432360000000  0.5037060000000  0.5500170000000 1.0
C      1  0.4558790000000  0.5021800000000  0.4512640000000 1.0
C      1  0.5376810000000  0.5908250000000  0.4903600000000 1.0
C      1  0.4627200000000  0.4094070000000  0.5041930000000 1.0
C      1  0.4400670000000  0.4181300000000  0.5421820000000 1.0
C      1  0.5805140000000  0.5745190000000  0.4526180000000 1.0
C      1  0.5572990000000  0.5723540000000  0.4328860000000 1.0
C      1  0.4496690000000  0.4294320000000  0.5674440000000 1.0
C      1  0.5068590000000  0.5122690000000  0.4759550000000 1.0
C      1  0.4873920000000  0.4843240000000  0.5293050000000 1.0
C      1  0.4948330000000  0.4318880000000  0.4236780000000 1.0
C      1  0.5055160000000  0.5727640000000  0.5751560000000 1.0
C      1  0.5863230000000  0.4866140000000  0.5294580000000 1.0
C      1  0.4127590000000  0.5118240000000  0.4681690000000 1.0
C      1  0.4205620000000  0.4632420000000  0.5292210000000 1.0
C      1  0.5804090000000  0.5349370000000  0.4698120000000 1.0
C      1  0.5789330000000  0.5648760000000  0.4802130000000 1.0
C      1  0.4262560000000  0.4335040000000  0.5219470000000 1.0
C      1  0.5711980000000  0.4636730000000  0.4376710000000 1.0
C      1  0.4405880000000  0.5391380000000  0.5422870000000 1.0
C      1  0.5129160000000  0.4204940000000  0.4441660000000 1.0
C      1  0.4903580000000  0.5869460000000  0.5552270000000 1.0
C      1  0.5054330000000  0.5268600000000  0.5613360000000 1.0
C      1  0.4973840000000  0.4786420000000  0.4440800000000 1.0
C      1  0.4882580000000  0.4689610000000  0.3935980000000 1.0
C      1  0.5142530000000  0.5392600000000  0.6054320000000 1.0
C      1  0.4618230000000  0.5500090000000  0.4198220000000 1.0
C      1  0.5388520000000  0.4516600000000  0.5826400000000 1.0
C      1  0.5225970000000  0.4682660000000  0.4248670000000 1.0
C      1  0.4779270000000  0.5353240000000  0.5783680000000 1.0
C      1  0.5232900000000  0.5838320000000  0.4640390000000 1.0
C      1  0.4648040000000  0.4055670000000  0.5322440000000 1.0
C      1  0.5605240000000  0.4593100000000  0.4916770000000 1.0
C      1  0.4536950000000  0.5271900000000  0.4954990000000 1.0
C      1  0.4198260000000  0.4988030000000  0.5648880000000 1.0
C      1  0.5770740000000  0.4898850000000  0.4288230000000 1.0
C      1  0.4657980000000  0.5057230000000  0.4799990000000 1.0
C      1  0.5324680000000  0.5128810000000  0.5254420000000 1.0
C      1  0.5446370000000  0.4547640000000  0.4375140000000 1.0
C      1  0.4569720000000  0.5487410000000  0.5643100000000 1.0
C      1  0.4095030000000  0.4855320000000  0.5086330000000 1.0
C      1  0.5921950000000  0.5128030000000  0.4906260000000 1.0
C      1  0.5050300000000  0.5252330000000  0.5277890000000 1.0
C      1  0.4870430000000  0.4654290000000  0.4676890000000 1.0
C      1  0.4460160000000  0.5858110000000  0.4601870000000 1.0
C      1  0.5424950000000  0.4128520000000  0.5434650000000 1.0
C      1  0.5880320000000  0.5137370000000  0.5195960000000 1.0
C      1  0.4114270000000  0.4849420000000  0.4797920000000 1.0
C      1  0.4973290000000  0.5270040000000  0.4515170000000 1.0
C      1  0.5045560000000  0.4765570000000  0.5499620000000 1.0
C      1  0.5464690000000  0.5100940000000  0.5017930000000 1.0
C      1  0.4692020000000  0.4782210000000  0.4872900000000 1.0
C      1  0.5693500000000  0.5478580000000  0.4228230000000 1.0
C      1  0.4349820000000  0.4535340000000  0.5748870000000 1.0
C      1  0.4497020000000  0.4695820000000  0.5355520000000 1.0
C      1  0.5527080000000  0.5278930000000  0.4600260000000 1.0
C      1  0.4875380000000  0.4026980000000  0.4896310000000 1.0
C      1  0.5213870000000  0.6037100000000  0.5101030000000 1.0
C      1  0.5514800000000  0.4339410000000  0.4787280000000 1.0
C      1  0.4411150000000  0.5730970000000  0.5351840000000 1.0
C      1  0.4582020000000  0.4707750000000  0.5654950000000 1.0
C      1  0.5467630000000  0.5283380000000  0.4304680000000 1.0
C      1  0.5262080000000  0.5516440000000  0.5650000000000 1.0
C      1  0.4676840000000  0.4408510000000  0.4294590000000 1.0
C      1  0.4743090000000  0.4097740000000  0.4650530000000 1.0
C      1  0.5133730000000  0.5672860000000  0.5234030000000 1.0
C      1  0.4564240000000  0.5225830000000  0.5228840000000 1.0
C      1  0.5464240000000  0.4839740000000  0.4887870000000 1.0
C      1  0.5128330000000  0.4451210000000  0.5102150000000 1.0
C      1  0.4750620000000  0.5527120000000  0.4941140000000 1.0
C      1  0.5090780000000  0.4602480000000  0.4857670000000 1.0
C      1  0.4977920000000  0.5485320000000  0.5123090000000 1.0
C      1  0.4455360000000  0.4945820000000  0.5792390000000 1.0
C      1  0.5550050000000  0.5039630000000  0.4188730000000 1.0
C      1  0.4825320000000  0.5543540000000  0.4630250000000 1.0
C      1  0.5214360000000  0.4555330000000  0.5352930000000 1.0
C      1  0.5846320000000  0.4354930000000  0.5173600000000 1.0
C      1  0.4102880000000  0.5581010000000  0.4859850000000 1.0
C      1  0.5709650000000  0.4844480000000  0.5538160000000 1.0
C      1  0.4246490000000  0.5161560000000  0.4419300000000 1.0
C      1  0.5025590000000  0.5956710000000  0.5291130000000 1.0
C      1  0.4993100000000  0.4024580000000  0.4618100000000 1.0
C      1  0.5107090000000  0.5044040000000  0.4003400000000 1.0
C      1  0.4896790000000  0.4980230000000  0.5996620000000 1.0
C      1  0.4665770000000  0.4844750000000  0.3995450000000 1.0
C      1  0.5337450000000  0.5201660000000  0.6026040000000 1.0
C      1  0.4410510000000  0.5865450000000  0.5100440000000 1.0
C      1  0.5451870000000  0.4136630000000  0.4981500000000 1.0
C      1  0.4660750000000  0.5104810000000  0.5933090000000 1.0
C      1  0.5335400000000  0.4904770000000  0.4073040000000 1.0
C      1  0.4395930000000  0.4776620000000  0.4416470000000 1.0
C      1  0.5638920000000  0.5250670000000  0.5608560000000 1.0
C      1  0.5062930000000  0.4503900000000  0.4048160000000 1.0
C      1  0.4939110000000  0.5558360000000  0.5956710000000 1.0
C      1  0.4794210000000  0.4301490000000  0.5677500000000 1.0
C      1  0.5288380000000  0.5681610000000  0.4399550000000 1.0
C      1  0.5479050000000  0.5360410000000  0.5823520000000 1.0
C      1  0.4550490000000  0.4658140000000  0.4197600000000 1.0
C      1  0.5133450000000  0.4644320000000  0.5914580000000 1.0
C      1  0.4887480000000  0.5384620000000  0.4120300000000 1.0
C      1  0.4251000000000  0.4644370000000  0.4632340000000 1.0
C      1  0.5756330000000  0.5355410000000  0.5363640000000 1.0
C      1  0.4368570000000  0.4393250000000  0.4713320000000 1.0
C      1  0.5601170000000  0.5581240000000  0.5257690000000 1.0
C      1  0.5354510000000  0.5609920000000  0.5392960000000 1.0
C      1  0.4578110000000  0.4297560000000  0.4540310000000 1.0
C      1  0.5333520000000  0.5242810000000  0.4802470000000 1.0
C      1  0.4695070000000  0.4691470000000  0.5154300000000 1.0
C      1  0.4893710000000  0.4104540000000  0.5483210000000 1.0
C      1  0.4948320000000  0.5824400000000  0.4601840000000 1.0
C      1  0.4710570000000  0.5956790000000  0.4715000000000 1.0
C      1  0.5155930000000  0.4051800000000  0.5359210000000 1.0
C      1  0.5178240000000  0.5007150000000  0.5635650000000 1.0
C      1  0.4834250000000  0.5027780000000  0.4401960000000 1.0
C      1  0.5899460000000  0.4798780000000  0.4537460000000 1.0
C      1  0.4167010000000  0.5194550000000  0.5444040000000 1.0
C      1  0.5870310000000  0.4644590000000  0.5075210000000 1.0
C      1  0.4198290000000  0.5292890000000  0.4917000000000 1.0
C      1  0.4669310000000  0.5828620000000  0.4974540000000 1.0
C      1  0.5158560000000  0.4145790000000  0.5071260000000 1.0
C      1  0.4157030000000  0.4700330000000  0.5599330000000 1.0
C      1  0.5904140000000  0.5484350000000  0.4431800000000 1.0
C      1  0.5635160000000  0.4156110000000  0.5211610000000 1.0
C      1  0.4261360000000  0.5818080000000  0.4830220000000 1.0
C      1  0.4626070000000  0.5751930000000  0.5540190000000 1.0
C      1  0.5373790000000  0.4332430000000  0.4528640000000 1.0
END
