TITL C-2441159-1093-1195 -0.00188491739553096 125000 -5243.11492906475 0 0 36 (S4) n - 1
REM
REM in /home/bkarasulu/work/CARBON/AIRSS/Generating-Clusters/ReaxFF-fromJPCA2015/Units_Real/with-SteepDescent/Higher-Symm
REM
REM
REM
REM
REM
REM ./C.cell (1df0a924f5614ab8850e4351716899ee)
REM
REM compiler GCC version 9.2.1 20190827 (Red Hat 9.2.1-1)
REM options -cpp -mtune=generic -march=x86-64 -g -O0 -fpre-include=/usr/include/finclude/math-vector-fortran.h
REM seed 1025083384 1632627270 -2053284653 1806351147 54121729 8297404 -1566873885 -2099969642 -542232698 -1010936849 -26715476 333966963 -665361384 -228324031 2095325385 -1294464125 457736800 -167694952 1018686471 -484452146 -1169345054 1165861925 -973516026 2084385202 1488314722 1448568087 639395079 -200008356 -1616014596 -2124279533 -393480510 -1563213231 -1375839390
REM
CELL 1.54180   50.00000   50.00000   50.00000   90.00000   90.00000   90.00000
LATT -1
SFAC C  
C      1  0.5220010000000  0.4987150000000  0.4565020000000 1.0
C      1  0.4779390000000  0.4565200000000  0.5012670000000 1.0
C      1  0.5220160000000  0.5012260000000  0.5434360000000 1.0
C      1  0.4779790000000  0.5434740000000  0.4987490000000 1.0
C      1  0.4986220000000  0.4976000000000  0.5603230000000 1.0
C      1  0.5014380000000  0.5603380000000  0.5024390000000 1.0
C      1  0.4985690000000  0.5024300000000  0.4396400000000 1.0
C      1  0.5014540000000  0.4396080000000  0.4975750000000 1.0
C      1  0.5337420000000  0.4784820000000  0.5286160000000 1.0
C      1  0.4662480000000  0.5285830000000  0.5215050000000 1.0
C      1  0.5338000000000  0.5215240000000  0.4714310000000 1.0
C      1  0.4662050000000  0.4714360000000  0.4784690000000 1.0
C      1  0.5184100000000  0.5672190000000  0.4798720000000 1.0
C      1  0.4815820000000  0.4798790000000  0.4327750000000 1.0
C      1  0.5184110000000  0.4327970000000  0.5201180000000 1.0
C      1  0.4815800000000  0.5201060000000  0.5671940000000 1.0
C      1  0.5370490000000  0.4854420000000  0.4999300000000 1.0
C      1  0.4629660000000  0.4999580000000  0.5145440000000 1.0
C      1  0.5370710000000  0.5145220000000  0.5000980000000 1.0
C      1  0.4629600000000  0.5000830000000  0.4854660000000 1.0
C      1  0.4680770000000  0.4577050000000  0.5709290000000 1.0
C      1  0.5319060000000  0.5709180000000  0.5422660000000 1.0
C      1  0.4680730000000  0.5422730000000  0.4290710000000 1.0
C      1  0.5319320000000  0.4290690000000  0.4577170000000 1.0
C      1  0.4724830000000  0.4741570000000  0.5234950000000 1.0
C      1  0.5274930000000  0.5234360000000  0.5258920000000 1.0
C      1  0.4724850000000  0.5258610000000  0.4765510000000 1.0
C      1  0.5275390000000  0.4765640000000  0.4741970000000 1.0
C      1  0.5360510000000  0.5498860000000  0.4624000000000 1.0
C      1  0.4639210000000  0.4623940000000  0.4501280000000 1.0
C      1  0.5361050000000  0.4502060000000  0.5376130000000 1.0
C      1  0.4639300000000  0.5376110000000  0.5498530000000 1.0
C      1  0.5185710000000  0.4467040000000  0.4717000000000 1.0
C      1  0.4814100000000  0.4716890000000  0.5532910000000 1.0
C      1  0.5185750000000  0.5532850000000  0.5282520000000 1.0
C      1  0.4814060000000  0.5282980000000  0.4466970000000 1.0
END
