TITL C-2441162-9305-734 -1.85023569308005e-07 125000 -3544.21578034457 0 0 25 (D5) n - 1
REM
REM in /home/bkarasulu/work/CARBON/AIRSS/Generating-Clusters/ReaxFF-fromJPCA2015/Units_Real/with-SteepDescent/Higher-Symm
REM
REM
REM
REM
REM
REM ./C.cell (1df0a924f5614ab8850e4351716899ee)
REM
REM compiler GCC version 9.2.1 20190827 (Red Hat 9.2.1-1)
REM options -cpp -mtune=generic -march=x86-64 -g -O0 -fpre-include=/usr/include/finclude/math-vector-fortran.h
REM seed 273941469 472814228 -28836802 -1348955026 955383307 -1374952272 2008332664 -1378423363 -1985979978 -1826223390 1304795517 -653990371 2058570304 -1971694436 -1510422514 475367627 -1769784279 -1355559063 42446299 -2075948235 1818257657 -1618098910 -418445083 -2019723396 1155840760 251008257 1188668454 756634578 1170036383 1563286661 -1278186941 -2038763719 222541356
REM
CELL 1.54180   50.00000   50.00000   50.00000   90.00000   90.00000   90.00000
LATT -1
SFAC C  
C      1  0.5270850000000  0.5310880000000  0.4969620000000 1.0
C      1  0.5112590000000  0.5310880000000  0.5248210000000 1.0
C      1  0.4798730000000  0.5310880000000  0.5183780000000 1.0
C      1  0.4763020000000  0.5310880000000  0.4865370000000 1.0
C      1  0.5054810000000  0.5310880000000  0.4733020000000 1.0
C      1  0.4729150000000  0.4693400000000  0.4969620000000 1.0
C      1  0.4887410000000  0.4693400000000  0.5248210000000 1.0
C      1  0.5201270000000  0.4693400000000  0.5183780000000 1.0
C      1  0.5236980000000  0.4693400000000  0.4865370000000 1.0
C      1  0.4945190000000  0.4693400000000  0.4733020000000 1.0
C      1  0.4621220000000  0.5104910000000  0.5347920000000 1.0
C      1  0.4552060000000  0.5104910000000  0.4747280000000 1.0
C      1  0.5101930000000  0.5104910000000  0.4495880000000 1.0
C      1  0.5510940000000  0.5104910000000  0.4941160000000 1.0
C      1  0.5213850000000  0.5104910000000  0.5467750000000 1.0
C      1  0.5378780000000  0.4899370000000  0.5347920000000 1.0
C      1  0.5447940000000  0.4899370000000  0.4747280000000 1.0
C      1  0.4898070000000  0.4899370000000  0.4495880000000 1.0
C      1  0.4489060000000  0.4899370000000  0.4941160000000 1.0
C      1  0.4786150000000  0.4899370000000  0.5467750000000 1.0
C      1  0.5000000000000  0.5002140000000  0.5652240000000 1.0
C      1  0.4616630000000  0.5002140000000  0.4472330000000 1.0
C      1  0.5383370000000  0.5002140000000  0.4472330000000 1.0
C      1  0.5620310000000  0.5002140000000  0.5201550000000 1.0
C      1  0.4379690000000  0.5002140000000  0.5201550000000 1.0
END
