TITL C-2441156-4686-86 0.11611229291996 125000 -21613.2375717955 0 0 161 (C1) n - 1
REM
REM in /home/bkarasulu/work/CARBON/AIRSS/Generating-Clusters/ReaxFF-fromJPCA2015/Units_Real/with-SteepDescent/Higher-Symm
REM
REM
REM
REM
REM
REM ./C.cell (1df0a924f5614ab8850e4351716899ee)
REM
REM compiler GCC version 9.2.1 20190827 (Red Hat 9.2.1-1)
REM options -cpp -mtune=generic -march=x86-64 -g -O0 -fpre-include=/usr/include/finclude/math-vector-fortran.h
REM seed 221479428 528065815 1398405491 -1749134626 -2038905488 182313287 -1375260769 -1126524779 -1593231612 1734377631 -838426095 -1779431616 -1010993286 352874471 335300848 848001871 -65028047 1658525551 864067373 1389116369 80570279 1626806691 -237523210 1449054704 -506224760 -110334162 -630944381 1887239609 1513409304 -1259674596 1485264831 -381098280 991212060
REM
CELL 1.54180   50.00000   50.00000   50.00000   90.00000   90.00000   90.00000
LATT -1
SFAC C  
C      1  0.5215160000000  0.5684110000000  0.4238590000000 1.0
C      1  0.4238480000000  0.5661840000000  0.4791170000000 1.0
C      1  0.4818380000000  0.5702790000000  0.5760450000000 1.0
C      1  0.5752010000000  0.5698140000000  0.5223310000000 1.0
C      1  0.5175290000000  0.4304760000000  0.5742190000000 1.0
C      1  0.4263770000000  0.4321740000000  0.5212860000000 1.0
C      1  0.4799090000000  0.4289760000000  0.4231020000000 1.0
C      1  0.5758310000000  0.4306490000000  0.4816880000000 1.0
C      1  0.4980750000000  0.5672380000000  0.4781530000000 1.0
C      1  0.4781190000000  0.5660710000000  0.5014820000000 1.0
C      1  0.4999180000000  0.5667110000000  0.5212090000000 1.0
C      1  0.5211630000000  0.5677970000000  0.4989500000000 1.0
C      1  0.5003110000000  0.4325650000000  0.5196180000000 1.0
C      1  0.4783220000000  0.4331550000000  0.4998560000000 1.0
C      1  0.4994340000000  0.4337330000000  0.4786510000000 1.0
C      1  0.5209350000000  0.4331450000000  0.4994290000000 1.0
C      1  0.4973120000000  0.4563700000000  0.5358990000000 1.0
C      1  0.5379730000000  0.4566250000000  0.5010440000000 1.0
C      1  0.4980580000000  0.4589420000000  0.4647780000000 1.0
C      1  0.4616940000000  0.4587550000000  0.4994300000000 1.0
C      1  0.4985110000000  0.5416180000000  0.4631890000000 1.0
C      1  0.5368690000000  0.5423700000000  0.4983220000000 1.0
C      1  0.5022930000000  0.5409190000000  0.5357290000000 1.0
C      1  0.4638940000000  0.5410230000000  0.5012780000000 1.0
C      1  0.4124110000000  0.4984570000000  0.5704320000000 1.0
C      1  0.5651500000000  0.4893850000000  0.5905060000000 1.0
C      1  0.5867240000000  0.4977950000000  0.4343450000000 1.0
C      1  0.4331730000000  0.4928570000000  0.4108470000000 1.0
C      1  0.4120060000000  0.4993810000000  0.4298080000000 1.0
C      1  0.5669890000000  0.5047260000000  0.4127800000000 1.0
C      1  0.5868430000000  0.4808430000000  0.5737480000000 1.0
C      1  0.4321350000000  0.5085080000000  0.5890240000000 1.0
C      1  0.5246110000000  0.5547950000000  0.5762400000000 1.0
C      1  0.5836960000000  0.5589460000000  0.4782990000000 1.0
C      1  0.4782180000000  0.5580640000000  0.4224600000000 1.0
C      1  0.4166410000000  0.5557130000000  0.5235290000000 1.0
C      1  0.5225770000000  0.4432640000000  0.4180340000000 1.0
C      1  0.5783620000000  0.4486760000000  0.5297460000000 1.0
C      1  0.4693550000000  0.4474140000000  0.5771140000000 1.0
C      1  0.4200440000000  0.4438410000000  0.4781050000000 1.0
C      1  0.4921680000000  0.4212190000000  0.5663950000000 1.0
C      1  0.5660350000000  0.4213250000000  0.5063920000000 1.0
C      1  0.5068570000000  0.4218380000000  0.4314080000000 1.0
C      1  0.4322430000000  0.4225210000000  0.4937680000000 1.0
C      1  0.4955950000000  0.5780460000000  0.4327590000000 1.0
C      1  0.5696480000000  0.5781920000000  0.4954210000000 1.0
C      1  0.5087260000000  0.5780200000000  0.5671650000000 1.0
C      1  0.4293180000000  0.5750170000000  0.5060850000000 1.0
C      1  0.5386800000000  0.5233020000000  0.4777740000000 1.0
C      1  0.4776910000000  0.5233230000000  0.4609400000000 1.0
C      1  0.4612590000000  0.5243130000000  0.5228700000000 1.0
C      1  0.5152250000000  0.5162470000000  0.5264500000000 1.0
C      1  0.5303470000000  0.4797720000000  0.5161350000000 1.0
C      1  0.4858310000000  0.4821940000000  0.5264580000000 1.0
C      1  0.4621660000000  0.4789680000000  0.4807030000000 1.0
C      1  0.5128070000000  0.4820230000000  0.4744490000000 1.0
C      1  0.6036020000000  0.5143620000000  0.5007570000000 1.0
C      1  0.4988950000000  0.5138250000000  0.3943750000000 1.0
C      1  0.3933020000000  0.5127260000000  0.5001160000000 1.0
C      1  0.4998800000000  0.5138930000000  0.6040460000000 1.0
C      1  0.6032150000000  0.4881480000000  0.5016040000000 1.0
C      1  0.4960480000000  0.4877770000000  0.6033540000000 1.0
C      1  0.3964870000000  0.4882150000000  0.4992410000000 1.0
C      1  0.5028910000000  0.4882400000000  0.3945650000000 1.0
C      1  0.5528210000000  0.4990860000000  0.4855480000000 1.0
C      1  0.4831250000000  0.4997650000000  0.4461440000000 1.0
C      1  0.4456940000000  0.5004120000000  0.5164540000000 1.0
C      1  0.5164520000000  0.4979820000000  0.5521960000000 1.0
C      1  0.5530200000000  0.5010430000000  0.5144560000000 1.0
C      1  0.4869490000000  0.4997000000000  0.5512360000000 1.0
C      1  0.4453500000000  0.5012060000000  0.4843480000000 1.0
C      1  0.5121610000000  0.4998230000000  0.4487530000000 1.0
C      1  0.5382420000000  0.4770910000000  0.5890370000000 1.0
C      1  0.5854300000000  0.4780840000000  0.4567230000000 1.0
C      1  0.4583670000000  0.4772130000000  0.4118860000000 1.0
C      1  0.4208390000000  0.4739070000000  0.5505830000000 1.0
C      1  0.5433710000000  0.5226550000000  0.4163040000000 1.0
C      1  0.5803320000000  0.5289360000000  0.5449580000000 1.0
C      1  0.4554750000000  0.5255540000000  0.5823380000000 1.0
C      1  0.4168250000000  0.5248500000000  0.4508970000000 1.0
C      1  0.5405000000000  0.4079130000000  0.5037250000000 1.0
C      1  0.5040800000000  0.4097490000000  0.4588010000000 1.0
C      1  0.4585770000000  0.4083600000000  0.4957710000000 1.0
C      1  0.4964790000000  0.4085910000000  0.5406070000000 1.0
C      1  0.5417980000000  0.5882780000000  0.4941570000000 1.0
C      1  0.5054970000000  0.5904750000000  0.5405410000000 1.0
C      1  0.4565050000000  0.5875890000000  0.5048890000000 1.0
C      1  0.4886960000000  0.5895180000000  0.4594800000000 1.0
C      1  0.5233190000000  0.5439710000000  0.4085460000000 1.0
C      1  0.4083480000000  0.5423510000000  0.4761810000000 1.0
C      1  0.4770630000000  0.5454950000000  0.5901960000000 1.0
C      1  0.5912330000000  0.5459630000000  0.5240700000000 1.0
C      1  0.5188140000000  0.4545180000000  0.5917550000000 1.0
C      1  0.4118780000000  0.4561690000000  0.5270120000000 1.0
C      1  0.4762480000000  0.4537380000000  0.4084110000000 1.0
C      1  0.5910350000000  0.4564740000000  0.4772190000000 1.0
C      1  0.4727850000000  0.4707090000000  0.4567620000000 1.0
C      1  0.4590630000000  0.4764130000000  0.5221270000000 1.0
C      1  0.5247890000000  0.4692230000000  0.5432570000000 1.0
C      1  0.5403030000000  0.4715660000000  0.4764590000000 1.0
C      1  0.4792870000000  0.5263090000000  0.5438450000000 1.0
C      1  0.4582240000000  0.5257980000000  0.4787220000000 1.0
C      1  0.5202230000000  0.5249100000000  0.4584750000000 1.0
C      1  0.5403190000000  0.5254320000000  0.5213360000000 1.0
C      1  0.5969700000000  0.5406280000000  0.4963590000000 1.0
C      1  0.4945820000000  0.5389600000000  0.4058350000000 1.0
C      1  0.4067660000000  0.5365450000000  0.5042370000000 1.0
C      1  0.5053610000000  0.5393170000000  0.5938960000000 1.0
C      1  0.5946330000000  0.4622950000000  0.5049690000000 1.0
C      1  0.4911160000000  0.4618790000000  0.5954550000000 1.0
C      1  0.4049350000000  0.4615970000000  0.4993820000000 1.0
C      1  0.5037880000000  0.4607890000000  0.4022560000000 1.0
C      1  0.5755640000000  0.4831700000000  0.5497410000000 1.0
C      1  0.5490020000000  0.4823930000000  0.4160470000000 1.0
C      1  0.4138450000000  0.4817680000000  0.4520220000000 1.0
C      1  0.4496530000000  0.4851160000000  0.5861970000000 1.0
C      1  0.5807420000000  0.5201900000000  0.4519770000000 1.0
C      1  0.5537500000000  0.5150670000000  0.5831170000000 1.0
C      1  0.4186690000000  0.5179960000000  0.5504170000000 1.0
C      1  0.4487180000000  0.5168790000000  0.4149200000000 1.0
C      1  0.4686710000000  0.4079260000000  0.5355500000000 1.0
C      1  0.5375900000000  0.4080970000000  0.5320460000000 1.0
C      1  0.5317080000000  0.4090520000000  0.4629420000000 1.0
C      1  0.4627370000000  0.4091810000000  0.4680350000000 1.0
C      1  0.4636950000000  0.5927310000000  0.4725440000000 1.0
C      1  0.5424510000000  0.5876510000000  0.4650940000000 1.0
C      1  0.5322420000000  0.5904290000000  0.5345120000000 1.0
C      1  0.4562310000000  0.5891740000000  0.5343430000000 1.0
C      1  0.4494530000000  0.4505140000000  0.4494350000000 1.0
C      1  0.4704540000000  0.4505000000000  0.5477560000000 1.0
C      1  0.5502210000000  0.4498560000000  0.5391840000000 1.0
C      1  0.5464280000000  0.4519190000000  0.4529640000000 1.0
C      1  0.4505780000000  0.5618530000000  0.5446120000000 1.0
C      1  0.4540510000000  0.5572710000000  0.4382140000000 1.0
C      1  0.5486370000000  0.5601740000000  0.4580080000000 1.0
C      1  0.5381350000000  0.5477410000000  0.5528880000000 1.0
C      1  0.5915570000000  0.4607230000000  0.5533470000000 1.0
C      1  0.5479960000000  0.4554380000000  0.4246300000000 1.0
C      1  0.4233630000000  0.4552840000000  0.4535590000000 1.0
C      1  0.4418050000000  0.4606060000000  0.5734980000000 1.0
C      1  0.5735040000000  0.5496960000000  0.4535130000000 1.0
C      1  0.5607210000000  0.5373720000000  0.5660740000000 1.0
C      1  0.4265110000000  0.5466270000000  0.5478880000000 1.0
C      1  0.4374610000000  0.5359210000000  0.4333180000000 1.0
C      1  0.4707340000000  0.5007680000000  0.4217710000000 1.0
C      1  0.4234640000000  0.4972050000000  0.5318570000000 1.0
C      1  0.5289320000000  0.5021970000000  0.5777330000000 1.0
C      1  0.5770250000000  0.5003280000000  0.4728850000000 1.0
C      1  0.4698400000000  0.5018940000000  0.5741210000000 1.0
C      1  0.4230880000000  0.5026270000000  0.4679700000000 1.0
C      1  0.5290880000000  0.4993380000000  0.4251300000000 1.0
C      1  0.5752460000000  0.5036160000000  0.5324910000000 1.0
C      1  0.4589450000000  0.4230090000000  0.4436640000000 1.0
C      1  0.4502930000000  0.4280850000000  0.5387820000000 1.0
C      1  0.5403170000000  0.4259080000000  0.5536270000000 1.0
C      1  0.5549270000000  0.4246320000000  0.4600540000000 1.0
C      1  0.4606590000000  0.5796240000000  0.5608560000000 1.0
C      1  0.4453710000000  0.5747760000000  0.4607690000000 1.0
C      1  0.5453950000000  0.5744030000000  0.4385470000000 1.0
C      1  0.5525720000000  0.5731630000000  0.5399980000000 1.0
C      1  0.5050950000000  0.4937560000000  0.5066360000000 1.0
END
