TITL C-2441161-5029-174 0.0724612341026508 125000 -19739.7044173847 0 0 143 (C1) n - 1
REM
REM in /home/bkarasulu/work/CARBON/AIRSS/Generating-Clusters/ReaxFF-fromJPCA2015/Units_Real/with-SteepDescent/Higher-Symm
REM
REM
REM
REM
REM
REM ./C.cell (1df0a924f5614ab8850e4351716899ee)
REM
REM compiler GCC version 9.2.1 20190827 (Red Hat 9.2.1-1)
REM options -cpp -mtune=generic -march=x86-64 -g -O0 -fpre-include=/usr/include/finclude/math-vector-fortran.h
REM seed 1529436755 434907555 -1704260814 2092327805 -1778332699 59512269 1793156212 -1241325220 -1232223452 -1917947556 -1968019451 1472488709 104579491 -643632069 355450048 395910787 -562700617 -1106987410 1632696725 -591169511 446662386 -984300621 1364177678 -1585036134 -146582596 -1235484194 1195151458 1606004198 1989307895 -383408907 616928520 196585336 2135311917
REM
CELL 1.54180   50.00000   50.00000   50.00000   90.00000   90.00000   90.00000
LATT -1
SFAC C  
C      1  0.5557650000000  0.4585820000000  0.5581460000000 1.0
C      1  0.5559120000000  0.5499140000000  0.4435370000000 1.0
C      1  0.4421220000000  0.4590020000000  0.5597570000000 1.0
C      1  0.4448170000000  0.5568460000000  0.4454450000000 1.0
C      1  0.4922720000000  0.6002050000000  0.5171420000000 1.0
C      1  0.4904220000000  0.3921820000000  0.4771390000000 1.0
C      1  0.5142870000000  0.6071060000000  0.5180370000000 1.0
C      1  0.5132070000000  0.4003700000000  0.4882620000000 1.0
C      1  0.5513240000000  0.4265300000000  0.5001370000000 1.0
C      1  0.5525110000000  0.5768890000000  0.5013570000000 1.0
C      1  0.4489650000000  0.4202110000000  0.4847650000000 1.0
C      1  0.4462890000000  0.5781380000000  0.5152560000000 1.0
C      1  0.4247710000000  0.5561390000000  0.4666040000000 1.0
C      1  0.4158020000000  0.4471830000000  0.5163980000000 1.0
C      1  0.5781460000000  0.5529710000000  0.4611590000000 1.0
C      1  0.5891290000000  0.4483280000000  0.5190680000000 1.0
C      1  0.5081330000000  0.4460800000000  0.4233400000000 1.0
C      1  0.5171230000000  0.5660440000000  0.5740960000000 1.0
C      1  0.4813690000000  0.4335960000000  0.4294110000000 1.0
C      1  0.4789150000000  0.5625500000000  0.5743910000000 1.0
C      1  0.4870630000000  0.5626230000000  0.5477030000000 1.0
C      1  0.4872840000000  0.4375170000000  0.4580630000000 1.0
C      1  0.5152050000000  0.5662650000000  0.5460190000000 1.0
C      1  0.5165200000000  0.4406060000000  0.4513050000000 1.0
C      1  0.4637290000000  0.5218550000000  0.4071850000000 1.0
C      1  0.4662050000000  0.4823570000000  0.5951110000000 1.0
C      1  0.5359280000000  0.5162980000000  0.4068680000000 1.0
C      1  0.5363570000000  0.4824600000000  0.5966520000000 1.0
C      1  0.5132300000000  0.5358630000000  0.4368010000000 1.0
C      1  0.5063850000000  0.4734540000000  0.5665870000000 1.0
C      1  0.4908500000000  0.5195970000000  0.4444410000000 1.0
C      1  0.4825390000000  0.4661370000000  0.5531010000000 1.0
C      1  0.5922450000000  0.5344470000000  0.5134280000000 1.0
C      1  0.5967200000000  0.4600070000000  0.4936730000000 1.0
C      1  0.4054760000000  0.5319270000000  0.5064520000000 1.0
C      1  0.4044270000000  0.4572510000000  0.4925660000000 1.0
C      1  0.5276270000000  0.5618650000000  0.4491830000000 1.0
C      1  0.5323260000000  0.4401290000000  0.5543850000000 1.0
C      1  0.4707290000000  0.5703420000000  0.4476980000000 1.0
C      1  0.4688840000000  0.4394620000000  0.5551410000000 1.0
C      1  0.5198160000000  0.5262850000000  0.5214150000000 1.0
C      1  0.5131850000000  0.4763980000000  0.4787530000000 1.0
C      1  0.4918120000000  0.5326800000000  0.5203380000000 1.0
C      1  0.4878650000000  0.4815970000000  0.4727030000000 1.0
C      1  0.4558130000000  0.5415350000000  0.4944570000000 1.0
C      1  0.4603860000000  0.4527980000000  0.5072070000000 1.0
C      1  0.5468720000000  0.5469900000000  0.4977160000000 1.0
C      1  0.5437230000000  0.4563820000000  0.5026190000000 1.0
C      1  0.5326340000000  0.4873520000000  0.4070040000000 1.0
C      1  0.5279780000000  0.5094340000000  0.5908110000000 1.0
C      1  0.4665560000000  0.4916340000000  0.4093840000000 1.0
C      1  0.4715390000000  0.5118780000000  0.5891460000000 1.0
C      1  0.4438960000000  0.5109190000000  0.4479750000000 1.0
C      1  0.4684400000000  0.4905410000000  0.5405710000000 1.0
C      1  0.5389040000000  0.5110950000000  0.4565100000000 1.0
C      1  0.5290920000000  0.4965300000000  0.5341270000000 1.0
C      1  0.4502120000000  0.5333300000000  0.5221000000000 1.0
C      1  0.4495480000000  0.4663730000000  0.4838350000000 1.0
C      1  0.5639040000000  0.5293790000000  0.5091890000000 1.0
C      1  0.5545340000000  0.4649300000000  0.4767290000000 1.0
C      1  0.4857980000000  0.4216980000000  0.5327880000000 1.0
C      1  0.4846460000000  0.5810560000000  0.4711670000000 1.0
C      1  0.5142750000000  0.4240520000000  0.5337210000000 1.0
C      1  0.5125400000000  0.5795540000000  0.4725260000000 1.0
C      1  0.4013460000000  0.4994850000000  0.4679360000000 1.0
C      1  0.4038100000000  0.4960570000000  0.5398160000000 1.0
C      1  0.6011910000000  0.5013660000000  0.4663660000000 1.0
C      1  0.5945390000000  0.4952250000000  0.5394690000000 1.0
C      1  0.5704960000000  0.4919310000000  0.4297230000000 1.0
C      1  0.5670370000000  0.5092100000000  0.5744540000000 1.0
C      1  0.4323280000000  0.4870450000000  0.4340560000000 1.0
C      1  0.4321080000000  0.5109630000000  0.5744130000000 1.0
C      1  0.5854440000000  0.5251970000000  0.4727440000000 1.0
C      1  0.5775390000000  0.4689590000000  0.5389610000000 1.0
C      1  0.4114930000000  0.5298830000000  0.4774550000000 1.0
C      1  0.4232160000000  0.4689190000000  0.5380810000000 1.0
C      1  0.4737670000000  0.5350570000000  0.5407750000000 1.0
C      1  0.4714890000000  0.4618770000000  0.4657130000000 1.0
C      1  0.5336460000000  0.5483690000000  0.5352200000000 1.0
C      1  0.5309590000000  0.4648290000000  0.4610690000000 1.0
C      1  0.5537870000000  0.5209490000000  0.4307790000000 1.0
C      1  0.5577700000000  0.4800180000000  0.5778390000000 1.0
C      1  0.4464790000000  0.5319950000000  0.4289840000000 1.0
C      1  0.4425790000000  0.4805420000000  0.5780730000000 1.0
C      1  0.4538240000000  0.4429740000000  0.4333770000000 1.0
C      1  0.4517330000000  0.5587300000000  0.5677300000000 1.0
C      1  0.5528970000000  0.4442510000000  0.4308040000000 1.0
C      1  0.5440870000000  0.5565610000000  0.5736250000000 1.0
C      1  0.4405760000000  0.5172060000000  0.4768020000000 1.0
C      1  0.4418450000000  0.4900870000000  0.5261190000000 1.0
C      1  0.5610730000000  0.5083500000000  0.4749150000000 1.0
C      1  0.5522630000000  0.4814600000000  0.5210270000000 1.0
C      1  0.4497190000000  0.4690270000000  0.4193070000000 1.0
C      1  0.4505110000000  0.5319800000000  0.5826720000000 1.0
C      1  0.5555270000000  0.4715910000000  0.4171630000000 1.0
C      1  0.5486790000000  0.5290290000000  0.5848560000000 1.0
C      1  0.4845560000000  0.4352220000000  0.5809600000000 1.0
C      1  0.4862990000000  0.5665340000000  0.4218560000000 1.0
C      1  0.5145550000000  0.4344860000000  0.5768130000000 1.0
C      1  0.5121060000000  0.5788230000000  0.4278120000000 1.0
C      1  0.4226180000000  0.5402050000000  0.5306890000000 1.0
C      1  0.4168840000000  0.4511250000000  0.4661260000000 1.0
C      1  0.5841840000000  0.5440110000000  0.5401490000000 1.0
C      1  0.5814890000000  0.4569820000000  0.4673920000000 1.0
C      1  0.4880010000000  0.4936660000000  0.4290630000000 1.0
C      1  0.4837980000000  0.5123950000000  0.5625850000000 1.0
C      1  0.5096150000000  0.4753380000000  0.4206370000000 1.0
C      1  0.5130650000000  0.5021210000000  0.5644170000000 1.0
C      1  0.3956730000000  0.5063070000000  0.5137020000000 1.0
C      1  0.3947120000000  0.4857240000000  0.4912970000000 1.0
C      1  0.6035850000000  0.5064410000000  0.5149480000000 1.0
C      1  0.6051510000000  0.4877030000000  0.4923310000000 1.0
C      1  0.4380250000000  0.5672930000000  0.4892560000000 1.0
C      1  0.4391720000000  0.4316690000000  0.5101000000000 1.0
C      1  0.5659550000000  0.5740890000000  0.4764910000000 1.0
C      1  0.5740160000000  0.4220360000000  0.5186020000000 1.0
C      1  0.4403700000000  0.4341300000000  0.4597780000000 1.0
C      1  0.4383010000000  0.5669950000000  0.5410170000000 1.0
C      1  0.5624810000000  0.4313530000000  0.4552780000000 1.0
C      1  0.5584530000000  0.5566350000000  0.5464270000000 1.0
C      1  0.4764960000000  0.4151320000000  0.4991650000000 1.0
C      1  0.4754310000000  0.5816830000000  0.5028680000000 1.0
C      1  0.5272150000000  0.4126130000000  0.5083400000000 1.0
C      1  0.5264080000000  0.5904130000000  0.4967390000000 1.0
C      1  0.4851270000000  0.5413670000000  0.4042280000000 1.0
C      1  0.4832880000000  0.4586970000000  0.5982830000000 1.0
C      1  0.5140230000000  0.5357990000000  0.4070280000000 1.0
C      1  0.5144440000000  0.4609020000000  0.5938170000000 1.0
C      1  0.4146860000000  0.5186960000000  0.5532870000000 1.0
C      1  0.4111670000000  0.4777510000000  0.4521100000000 1.0
C      1  0.5865040000000  0.5182680000000  0.5547280000000 1.0
C      1  0.5882630000000  0.4818320000000  0.4490710000000 1.0
C      1  0.4857920000000  0.4920680000000  0.5174430000000 1.0
C      1  0.4896840000000  0.5215070000000  0.4734460000000 1.0
C      1  0.5094180000000  0.4796580000000  0.5221120000000 1.0
C      1  0.5180360000000  0.5212960000000  0.4746120000000 1.0
C      1  0.4866770000000  0.4425390000000  0.5002930000000 1.0
C      1  0.4847150000000  0.5492950000000  0.4986260000000 1.0
C      1  0.5144560000000  0.4607870000000  0.5024020000000 1.0
C      1  0.5232600000000  0.5369780000000  0.4947960000000 1.0
C      1  0.5566190000000  0.5031480000000  0.5026050000000 1.0
C      1  0.4445670000000  0.4934060000000  0.4962500000000 1.0
C      1  0.4771540000000  0.5002100000000  0.4914500000000 1.0
END
