TITL C-2441160-1326-37 0.127203185426757 125000 -15897.1583949615 0 0 130 (C1) n - 1
REM
REM in /home/bkarasulu/work/CARBON/AIRSS/Generating-Clusters/ReaxFF-fromJPCA2015/Units_Real/with-SteepDescent/Higher-Symm
REM
REM
REM
REM
REM
REM ./C.cell (1df0a924f5614ab8850e4351716899ee)
REM
REM compiler GCC version 9.2.1 20190827 (Red Hat 9.2.1-1)
REM options -cpp -mtune=generic -march=x86-64 -g -O0 -fpre-include=/usr/include/finclude/math-vector-fortran.h
REM seed -1039962011 -1336312583 400803007 1989390955 -1057970392 -768369627 -428111073 2116429420 -1438253486 997216592 994722003 -145642541 1320285658 -1729838411 -1469377933 1543177580 -358007528 1329326587 1846918901 452769141 -741087579 -650746258 -1713937177 -1563525131 -1174670295 1786146633 -1289441168 -328344457 -117693317 1457034162 1260238428 338987490 2041778877
REM
CELL 1.54180   50.00000   50.00000   50.00000   90.00000   90.00000   90.00000
LATT -1
SFAC C  
C      1  0.4594140000000  0.5201630000000  0.5221170000000 1.0
C      1  0.5149970000000  0.5369220000000  0.5273510000000 1.0
C      1  0.4222940000000  0.4884760000000  0.4826180000000 1.0
C      1  0.5683490000000  0.4669890000000  0.5349900000000 1.0
C      1  0.4536460000000  0.4297080000000  0.5363610000000 1.0
C      1  0.4021120000000  0.5099860000000  0.5100820000000 1.0
C      1  0.5482930000000  0.4264790000000  0.5214450000000 1.0
C      1  0.4404200000000  0.4407500000000  0.5145600000000 1.0
C      1  0.5331540000000  0.5328990000000  0.4150870000000 1.0
C      1  0.5882040000000  0.4887900000000  0.4519080000000 1.0
C      1  0.5494030000000  0.4856490000000  0.4611470000000 1.0
C      1  0.4994850000000  0.4785230000000  0.5029070000000 1.0
C      1  0.5187550000000  0.5668080000000  0.5702160000000 1.0
C      1  0.4720590000000  0.4720090000000  0.4104370000000 1.0
C      1  0.5252100000000  0.4673380000000  0.4197790000000 1.0
C      1  0.4965740000000  0.4957970000000  0.4423100000000 1.0
C      1  0.5210420000000  0.5198690000000  0.5737230000000 1.0
C      1  0.5223010000000  0.4067010000000  0.4753650000000 1.0
C      1  0.5092830000000  0.4735370000000  0.5920770000000 1.0
C      1  0.5403280000000  0.4013220000000  0.5118090000000 1.0
C      1  0.4298430000000  0.4954640000000  0.5697030000000 1.0
C      1  0.5314350000000  0.5674900000000  0.4684620000000 1.0
C      1  0.4871240000000  0.4406620000000  0.4821850000000 1.0
C      1  0.5235970000000  0.5171880000000  0.5459040000000 1.0
C      1  0.4145540000000  0.4553120000000  0.5231970000000 1.0
C      1  0.4646580000000  0.4533650000000  0.5685730000000 1.0
C      1  0.4772180000000  0.4176530000000  0.4428980000000 1.0
C      1  0.5081020000000  0.4308320000000  0.5671630000000 1.0
C      1  0.5008070000000  0.4102840000000  0.4573060000000 1.0
C      1  0.4974980000000  0.4770680000000  0.5510290000000 1.0
C      1  0.5087660000000  0.5378070000000  0.4676790000000 1.0
C      1  0.5244740000000  0.5172280000000  0.4836790000000 1.0
C      1  0.5336310000000  0.5665830000000  0.4409240000000 1.0
C      1  0.4252270000000  0.5606080000000  0.4989620000000 1.0
C      1  0.4691290000000  0.5650540000000  0.5680930000000 1.0
C      1  0.5653780000000  0.5537260000000  0.5373980000000 1.0
C      1  0.4643720000000  0.5413030000000  0.4126150000000 1.0
C      1  0.5369560000000  0.4293280000000  0.5670400000000 1.0
C      1  0.4762050000000  0.4987120000000  0.4000600000000 1.0
C      1  0.4646240000000  0.4872570000000  0.4913050000000 1.0
C      1  0.4852460000000  0.5194150000000  0.4557800000000 1.0
C      1  0.5753530000000  0.5496880000000  0.4868570000000 1.0
C      1  0.4572620000000  0.5180520000000  0.5512250000000 1.0
C      1  0.4294980000000  0.4998110000000  0.5092660000000 1.0
C      1  0.5613360000000  0.4917760000000  0.4341420000000 1.0
C      1  0.5491260000000  0.4225880000000  0.4748360000000 1.0
C      1  0.4424200000000  0.5489500000000  0.4557090000000 1.0
C      1  0.4943640000000  0.5532820000000  0.5685890000000 1.0
C      1  0.4523810000000  0.5175250000000  0.4031880000000 1.0
C      1  0.4956090000000  0.4362070000000  0.5087610000000 1.0
C      1  0.5713250000000  0.5322420000000  0.4655750000000 1.0
C      1  0.5235640000000  0.4668730000000  0.5412130000000 1.0
C      1  0.4995500000000  0.5075410000000  0.4153480000000 1.0
C      1  0.5547100000000  0.5696960000000  0.4856560000000 1.0
C      1  0.5353490000000  0.5442510000000  0.5774520000000 1.0
C      1  0.4891590000000  0.4449190000000  0.4378480000000 1.0
C      1  0.4319390000000  0.4619970000000  0.4757730000000 1.0
C      1  0.5471790000000  0.4576400000000  0.5577530000000 1.0
C      1  0.5101960000000  0.5858910000000  0.4767140000000 1.0
C      1  0.3939090000000  0.5283770000000  0.5216650000000 1.0
C      1  0.5332390000000  0.4624160000000  0.4920250000000 1.0
C      1  0.4704850000000  0.5156540000000  0.5762400000000 1.0
C      1  0.4464410000000  0.5789280000000  0.4931250000000 1.0
C      1  0.5482340000000  0.5764670000000  0.5328920000000 1.0
C      1  0.4943980000000  0.4095550000000  0.5202200000000 1.0
C      1  0.4379920000000  0.5034600000000  0.4636160000000 1.0
C      1  0.4885310000000  0.4823020000000  0.4803780000000 1.0
C      1  0.4464690000000  0.4750460000000  0.5592710000000 1.0
C      1  0.5140130000000  0.3956310000000  0.5038750000000 1.0
C      1  0.4759860000000  0.5420160000000  0.5844270000000 1.0
C      1  0.4160500000000  0.5470570000000  0.5235130000000 1.0
C      1  0.5045100000000  0.5374220000000  0.4149210000000 1.0
C      1  0.5651850000000  0.4314700000000  0.4982090000000 1.0
C      1  0.4487670000000  0.4731000000000  0.4287280000000 1.0
C      1  0.4974660000000  0.5176480000000  0.4983270000000 1.0
C      1  0.4296070000000  0.4790270000000  0.5325130000000 1.0
C      1  0.5381210000000  0.4757260000000  0.5815280000000 1.0
C      1  0.4899670000000  0.4154510000000  0.5482560000000 1.0
C      1  0.4390530000000  0.5405870000000  0.4837850000000 1.0
C      1  0.5556260000000  0.4951680000000  0.5738710000000 1.0
C      1  0.4917280000000  0.4519340000000  0.5827700000000 1.0
C      1  0.5210920000000  0.4794660000000  0.4489810000000 1.0
C      1  0.4876150000000  0.5804310000000  0.4590220000000 1.0
C      1  0.4523360000000  0.5673540000000  0.5441550000000 1.0
C      1  0.4669880000000  0.4222290000000  0.4825630000000 1.0
C      1  0.4321730000000  0.5234940000000  0.5644800000000 1.0
C      1  0.5854650000000  0.4885180000000  0.5012700000000 1.0
C      1  0.4880010000000  0.5821890000000  0.5131040000000 1.0
C      1  0.4595880000000  0.5821810000000  0.5190340000000 1.0
C      1  0.5594600000000  0.5391000000000  0.5606050000000 1.0
C      1  0.5962090000000  0.5063980000000  0.5204650000000 1.0
C      1  0.5724200000000  0.4684350000000  0.4658930000000 1.0
C      1  0.5218610000000  0.5805510000000  0.5451640000000 1.0
C      1  0.4525300000000  0.4267380000000  0.4585060000000 1.0
C      1  0.5588150000000  0.5185780000000  0.5122970000000 1.0
C      1  0.5436180000000  0.5153090000000  0.4344410000000 1.0
C      1  0.4850760000000  0.4824340000000  0.5267540000000 1.0
C      1  0.4587400000000  0.5707920000000  0.4666970000000 1.0
C      1  0.5262000000000  0.4883770000000  0.5020630000000 1.0
C      1  0.5137180000000  0.5935770000000  0.5041610000000 1.0
C      1  0.4411850000000  0.4532840000000  0.4496470000000 1.0
C      1  0.5808770000000  0.5373840000000  0.5158030000000 1.0
C      1  0.5241540000000  0.4465930000000  0.5157220000000 1.0
C      1  0.4982190000000  0.4575100000000  0.4133150000000 1.0
C      1  0.5415950000000  0.5830180000000  0.5066190000000 1.0
C      1  0.4515680000000  0.4613530000000  0.4966710000000 1.0
C      1  0.4382750000000  0.5008070000000  0.4236140000000 1.0
C      1  0.4620620000000  0.5088110000000  0.4737280000000 1.0
C      1  0.4878170000000  0.4916110000000  0.5932020000000 1.0
C      1  0.5231040000000  0.4555350000000  0.4664100000000 1.0
C      1  0.4953010000000  0.5028600000000  0.5692720000000 1.0
C      1  0.5700070000000  0.5116500000000  0.5584040000000 1.0
C      1  0.4724400000000  0.4358230000000  0.5493160000000 1.0
C      1  0.5599640000000  0.4963990000000  0.5322000000000 1.0
C      1  0.5445680000000  0.4405090000000  0.4519000000000 1.0
C      1  0.4331540000000  0.5228750000000  0.4423260000000 1.0
C      1  0.5352890000000  0.5330900000000  0.5062880000000 1.0
C      1  0.5523790000000  0.5432110000000  0.4388210000000 1.0
C      1  0.4815670000000  0.5451970000000  0.4347980000000 1.0
C      1  0.4309140000000  0.5486970000000  0.5479770000000 1.0
C      1  0.5054820000000  0.5721240000000  0.4383130000000 1.0
C      1  0.5321320000000  0.4932300000000  0.5312480000000 1.0
C      1  0.4838420000000  0.4620830000000  0.4608870000000 1.0
C      1  0.4875080000000  0.5108330000000  0.5222900000000 1.0
C      1  0.5022330000000  0.5644660000000  0.5306160000000 1.0
C      1  0.4892880000000  0.5437380000000  0.4903890000000 1.0
C      1  0.4621830000000  0.5399690000000  0.5009500000000 1.0
C      1  0.5839810000000  0.5076030000000  0.4737530000000 1.0
C      1  0.5753100000000  0.4585920000000  0.5095730000000 1.0
C      1  0.5514390000000  0.4605720000000  0.4299870000000 1.0
END
