TITL C-2441166-8118-1094 0.0559696036827098 125000 -19808.6800255719 0 0 141 (C1) n - 1
REM
REM in /home/bkarasulu/work/CARBON/AIRSS/Generating-Clusters/ReaxFF-fromJPCA2015/Units_Real/with-SteepDescent/Higher-Symm
REM
REM
REM
REM
REM
REM ./C.cell (1df0a924f5614ab8850e4351716899ee)
REM
REM compiler GCC version 9.2.1 20190827 (Red Hat 9.2.1-1)
REM options -cpp -mtune=generic -march=x86-64 -g -O0 -fpre-include=/usr/include/finclude/math-vector-fortran.h
REM seed -1529969459 -1778975223 -1490105318 -492067020 -337429886 232873853 -1426782262 1181628782 -1316120139 -705875679 453853511 -277731526 -29856405 -682343802 -1747951033 -418182343 1160655546 -1088791684 -1986711652 -17170802 -179597774 -1596907090 -1147587166 2143351957 -776749424 699029622 -520240383 -756561073 -870538384 -1680047977 -2099182479 1581566360 -1873038795
REM
CELL 1.54180   50.00000   50.00000   50.00000   90.00000   90.00000   90.00000
LATT -1
SFAC C  
C      1  0.5267750000000  0.5409570000000  0.5765900000000 1.0
C      1  0.4789800000000  0.5237990000000  0.5807240000000 1.0
C      1  0.5181690000000  0.5096930000000  0.5347110000000 1.0
C      1  0.4902400000000  0.5074460000000  0.5368920000000 1.0
C      1  0.4851970000000  0.4843000000000  0.4100660000000 1.0
C      1  0.5141360000000  0.4843130000000  0.4090850000000 1.0
C      1  0.4188850000000  0.5217090000000  0.5526270000000 1.0
C      1  0.5878420000000  0.5193150000000  0.5581730000000 1.0
C      1  0.4313910000000  0.5347130000000  0.4365920000000 1.0
C      1  0.5595700000000  0.5417350000000  0.4363900000000 1.0
C      1  0.5154470000000  0.4526940000000  0.4526960000000 1.0
C      1  0.4859930000000  0.4540770000000  0.4505720000000 1.0
C      1  0.5389030000000  0.5147820000000  0.5788480000000 1.0
C      1  0.4567380000000  0.5065260000000  0.5730760000000 1.0
C      1  0.4672660000000  0.4106890000000  0.5306080000000 1.0
C      1  0.5328660000000  0.4124930000000  0.5303530000000 1.0
C      1  0.4818220000000  0.5355370000000  0.4096550000000 1.0
C      1  0.5110190000000  0.5345830000000  0.4108010000000 1.0
C      1  0.4678970000000  0.4106940000000  0.4773340000000 1.0
C      1  0.5319880000000  0.4065020000000  0.4771630000000 1.0
C      1  0.4317000000000  0.4744680000000  0.4545180000000 1.0
C      1  0.5675150000000  0.4663350000000  0.4486730000000 1.0
C      1  0.3938620000000  0.5004950000000  0.5217460000000 1.0
C      1  0.6045890000000  0.5133030000000  0.5124480000000 1.0
C      1  0.4520640000000  0.4463540000000  0.4265170000000 1.0
C      1  0.5483040000000  0.4421590000000  0.4220620000000 1.0
C      1  0.5589190000000  0.5227860000000  0.5581650000000 1.0
C      1  0.4466340000000  0.5176970000000  0.5447620000000 1.0
C      1  0.4573160000000  0.5712220000000  0.5546620000000 1.0
C      1  0.5337190000000  0.5688680000000  0.5694200000000 1.0
C      1  0.5253440000000  0.4597800000000  0.4228490000000 1.0
C      1  0.4764890000000  0.4582980000000  0.4212110000000 1.0
C      1  0.4502660000000  0.4965880000000  0.4607910000000 1.0
C      1  0.5607690000000  0.5035360000000  0.4612390000000 1.0
C      1  0.5525340000000  0.5721080000000  0.5462010000000 1.0
C      1  0.4375990000000  0.5829350000000  0.5367110000000 1.0
C      1  0.4482620000000  0.5062700000000  0.5102620000000 1.0
C      1  0.5512270000000  0.5068000000000  0.5109450000000 1.0
C      1  0.4413260000000  0.4449550000000  0.5565220000000 1.0
C      1  0.5580860000000  0.4412530000000  0.5545200000000 1.0
C      1  0.4771280000000  0.4791400000000  0.4673690000000 1.0
C      1  0.5251390000000  0.4733530000000  0.4711120000000 1.0
C      1  0.5699830000000  0.4308960000000  0.5033960000000 1.0
C      1  0.4284210000000  0.4298300000000  0.4988270000000 1.0
C      1  0.4521980000000  0.4565800000000  0.5189300000000 1.0
C      1  0.5289740000000  0.4667680000000  0.5253650000000 1.0
C      1  0.5175740000000  0.4008350000000  0.5024760000000 1.0
C      1  0.4810370000000  0.4040260000000  0.5048650000000 1.0
C      1  0.4475740000000  0.5567530000000  0.4463130000000 1.0
C      1  0.5591260000000  0.5691430000000  0.4410390000000 1.0
C      1  0.3937020000000  0.4620810000000  0.4719900000000 1.0
C      1  0.6034790000000  0.4621690000000  0.4748500000000 1.0
C      1  0.5491050000000  0.5438300000000  0.5403670000000 1.0
C      1  0.4635160000000  0.5436120000000  0.5409460000000 1.0
C      1  0.5126170000000  0.5753930000000  0.5235960000000 1.0
C      1  0.4828770000000  0.5787780000000  0.5233910000000 1.0
C      1  0.5930080000000  0.5525180000000  0.5114630000000 1.0
C      1  0.4206170000000  0.5637090000000  0.5216330000000 1.0
C      1  0.5133850000000  0.5507420000000  0.4351630000000 1.0
C      1  0.4887700000000  0.5526710000000  0.4491310000000 1.0
C      1  0.4871570000000  0.5212890000000  0.4858220000000 1.0
C      1  0.5136040000000  0.5316910000000  0.4907490000000 1.0
C      1  0.4184070000000  0.4950100000000  0.5638190000000 1.0
C      1  0.5837120000000  0.4917290000000  0.5659260000000 1.0
C      1  0.5835830000000  0.5509950000000  0.4471750000000 1.0
C      1  0.4090030000000  0.5302650000000  0.4534590000000 1.0
C      1  0.5527970000000  0.5494110000000  0.4862410000000 1.0
C      1  0.4504110000000  0.5531710000000  0.4769550000000 1.0
C      1  0.4693150000000  0.4405980000000  0.5640640000000 1.0
C      1  0.5300950000000  0.4409400000000  0.5640520000000 1.0
C      1  0.4863190000000  0.4226330000000  0.4589200000000 1.0
C      1  0.5144260000000  0.4206270000000  0.4589180000000 1.0
C      1  0.5691940000000  0.5670400000000  0.5025580000000 1.0
C      1  0.4346340000000  0.5710220000000  0.4966780000000 1.0
C      1  0.5187900000000  0.5902600000000  0.4809760000000 1.0
C      1  0.4889320000000  0.5903700000000  0.4802980000000 1.0
C      1  0.4128600000000  0.4769830000000  0.5281620000000 1.0
C      1  0.5803550000000  0.4729320000000  0.5294180000000 1.0
C      1  0.3988830000000  0.5073970000000  0.4558930000000 1.0
C      1  0.5866980000000  0.5064720000000  0.4553260000000 1.0
C      1  0.4826460000000  0.5838320000000  0.5568420000000 1.0
C      1  0.5108760000000  0.5806750000000  0.5555370000000 1.0
C      1  0.5258200000000  0.4392290000000  0.5198510000000 1.0
C      1  0.4772370000000  0.4553400000000  0.5109450000000 1.0
C      1  0.5225390000000  0.5352970000000  0.5479950000000 1.0
C      1  0.4843770000000  0.5299360000000  0.5540280000000 1.0
C      1  0.5303070000000  0.5709380000000  0.4464180000000 1.0
C      1  0.4701010000000  0.5551170000000  0.4281630000000 1.0
C      1  0.4847640000000  0.4178080000000  0.5523490000000 1.0
C      1  0.5144330000000  0.4188510000000  0.5541330000000 1.0
C      1  0.5545730000000  0.4795180000000  0.5188690000000 1.0
C      1  0.4374250000000  0.4795420000000  0.5130930000000 1.0
C      1  0.5240860000000  0.5059360000000  0.5066400000000 1.0
C      1  0.4773010000000  0.5037410000000  0.5097420000000 1.0
C      1  0.5062080000000  0.5485970000000  0.5119930000000 1.0
C      1  0.4783310000000  0.5497110000000  0.5141670000000 1.0
C      1  0.4781790000000  0.5641240000000  0.4735840000000 1.0
C      1  0.5280460000000  0.5622190000000  0.4748290000000 1.0
C      1  0.6040780000000  0.5340050000000  0.4912640000000 1.0
C      1  0.3990160000000  0.5241180000000  0.5067660000000 1.0
C      1  0.4233620000000  0.4672940000000  0.5593400000000 1.0
C      1  0.5774730000000  0.4652820000000  0.5580920000000 1.0
C      1  0.5205060000000  0.4981930000000  0.4577390000000 1.0
C      1  0.4928110000000  0.5040230000000  0.4632760000000 1.0
C      1  0.5592620000000  0.4402640000000  0.4532970000000 1.0
C      1  0.4381650000000  0.4461100000000  0.4507840000000 1.0
C      1  0.5162370000000  0.4679710000000  0.5610740000000 1.0
C      1  0.4869250000000  0.4632170000000  0.5663140000000 1.0
C      1  0.4426060000000  0.5194370000000  0.4842860000000 1.0
C      1  0.5573660000000  0.5205410000000  0.4856780000000 1.0
C      1  0.4470990000000  0.5937340000000  0.5099390000000 1.0
C      1  0.5541720000000  0.5859480000000  0.5197910000000 1.0
C      1  0.4041660000000  0.4413600000000  0.4895350000000 1.0
C      1  0.5947070000000  0.4441980000000  0.4950820000000 1.0
C      1  0.5977790000000  0.5307740000000  0.4631650000000 1.0
C      1  0.4149690000000  0.5275070000000  0.4811570000000 1.0
C      1  0.3828590000000  0.4590870000000  0.4973340000000 1.0
C      1  0.6115870000000  0.4665730000000  0.5003260000000 1.0
C      1  0.4051640000000  0.4821510000000  0.4555530000000 1.0
C      1  0.5924390000000  0.4795490000000  0.4542120000000 1.0
C      1  0.5204420000000  0.4922090000000  0.5789300000000 1.0
C      1  0.4724520000000  0.4829730000000  0.5822540000000 1.0
C      1  0.3863310000000  0.4742830000000  0.5187370000000 1.0
C      1  0.6034400000000  0.4860660000000  0.5173200000000 1.0
C      1  0.4072380000000  0.5387950000000  0.5299560000000 1.0
C      1  0.5953460000000  0.5310110000000  0.5318850000000 1.0
C      1  0.5120020000000  0.4294800000000  0.5010910000000 1.0
C      1  0.4881490000000  0.4321690000000  0.5045380000000 1.0
C      1  0.4700660000000  0.5092870000000  0.4144710000000 1.0
C      1  0.5265680000000  0.5100810000000  0.4133690000000 1.0
C      1  0.4429900000000  0.4289940000000  0.5289710000000 1.0
C      1  0.5614680000000  0.4245050000000  0.5311290000000 1.0
C      1  0.4747070000000  0.5997900000000  0.5036120000000 1.0
C      1  0.5296020000000  0.5947710000000  0.5075740000000 1.0
C      1  0.5161630000000  0.4773720000000  0.4984790000000 1.0
C      1  0.4868370000000  0.4773740000000  0.4974030000000 1.0
C      1  0.5406600000000  0.5132990000000  0.4397120000000 1.0
C      1  0.4495110000000  0.5117600000000  0.4346810000000 1.0
C      1  0.5554900000000  0.4242080000000  0.4784870000000 1.0
C      1  0.4438420000000  0.4266450000000  0.4755640000000 1.0
C      1  0.4946340000000  0.5005880000000  0.5901810000000 1.0
END
