TITL C-2441160-1326-568 0.0684238906994242 125000 -27799.8485877645 0 0 193 (C1) n - 1
REM
REM in /home/bkarasulu/work/CARBON/AIRSS/Generating-Clusters/ReaxFF-fromJPCA2015/Units_Real/with-SteepDescent/Higher-Symm
REM
REM
REM
REM
REM
REM ./C.cell (1df0a924f5614ab8850e4351716899ee)
REM
REM compiler GCC version 9.2.1 20190827 (Red Hat 9.2.1-1)
REM options -cpp -mtune=generic -march=x86-64 -g -O0 -fpre-include=/usr/include/finclude/math-vector-fortran.h
REM seed -577205286 -1894552262 -435427206 -1046792462 1924699624 474805267 647476233 1255838404 -816538293 -2110724315 -1077002250 606674262 -72867129 -11935569 2076342644 1789715589 1845547597 625389639 1372576836 -791513722 202158423 1858402469 1287267869 756480146 -2085486326 -864083114 2032986602 1017034074 1184999914 -635281628 957913907 -1971737337 -785924102
REM
CELL 1.54180   50.00000   50.00000   50.00000   90.00000   90.00000   90.00000
LATT -1
SFAC C  
C      1  0.4167310000000  0.4582530000000  0.5236860000000 1.0
C      1  0.4762250000000  0.4647650000000  0.4185210000000 1.0
C      1  0.5824780000000  0.4648280000000  0.4735330000000 1.0
C      1  0.5197160000000  0.4690210000000  0.5856960000000 1.0
C      1  0.4315160000000  0.4689740000000  0.4194870000000 1.0
C      1  0.5857840000000  0.4700130000000  0.4272020000000 1.0
C      1  0.5696700000000  0.4650560000000  0.5769830000000 1.0
C      1  0.4201210000000  0.4682920000000  0.5685070000000 1.0
C      1  0.4830250000000  0.5512300000000  0.6004670000000 1.0
C      1  0.4011050000000  0.5498190000000  0.4862280000000 1.0
C      1  0.5149460000000  0.5504660000000  0.4031610000000 1.0
C      1  0.5920520000000  0.5458000000000  0.5160440000000 1.0
C      1  0.4832120000000  0.5520620000000  0.5390280000000 1.0
C      1  0.4617530000000  0.5406440000000  0.4999800000000 1.0
C      1  0.5068250000000  0.5379260000000  0.4702770000000 1.0
C      1  0.5345390000000  0.5277970000000  0.5095710000000 1.0
C      1  0.4390020000000  0.5283640000000  0.4886170000000 1.0
C      1  0.5079960000000  0.5257970000000  0.4450130000000 1.0
C      1  0.5643120000000  0.5249080000000  0.5095010000000 1.0
C      1  0.4888230000000  0.5296910000000  0.5551780000000 1.0
C      1  0.4883160000000  0.5229810000000  0.6058020000000 1.0
C      1  0.3917090000000  0.5218310000000  0.4880100000000 1.0
C      1  0.5109230000000  0.5225040000000  0.3933130000000 1.0
C      1  0.6070270000000  0.5209980000000  0.5114290000000 1.0
C      1  0.3988810000000  0.5068290000000  0.4380260000000 1.0
C      1  0.5598840000000  0.5041800000000  0.3960100000000 1.0
C      1  0.6041720000000  0.5046930000000  0.5608110000000 1.0
C      1  0.4392100000000  0.5060360000000  0.5989260000000 1.0
C      1  0.5185320000000  0.5035370000000  0.5035410000000 1.0
C      1  0.4966030000000  0.5014340000000  0.5227770000000 1.0
C      1  0.4798460000000  0.5186880000000  0.5015310000000 1.0
C      1  0.5001530000000  0.5136400000000  0.4831010000000 1.0
C      1  0.6083460000000  0.5011950000000  0.5320720000000 1.0
C      1  0.4672410000000  0.5037320000000  0.6060450000000 1.0
C      1  0.3909730000000  0.5037860000000  0.4657180000000 1.0
C      1  0.5314990000000  0.5022790000000  0.3917070000000 1.0
C      1  0.4642840000000  0.5145240000000  0.5560370000000 1.0
C      1  0.4398900000000  0.5165070000000  0.4630470000000 1.0
C      1  0.5333910000000  0.5147820000000  0.4418870000000 1.0
C      1  0.5582860000000  0.5137860000000  0.5423990000000 1.0
C      1  0.5300520000000  0.5446340000000  0.5963320000000 1.0
C      1  0.4082370000000  0.5451300000000  0.5396660000000 1.0
C      1  0.4640850000000  0.5386990000000  0.4057590000000 1.0
C      1  0.5953720000000  0.5431270000000  0.4705850000000 1.0
C      1  0.5194360000000  0.4383790000000  0.5313330000000 1.0
C      1  0.4674830000000  0.4384130000000  0.5276460000000 1.0
C      1  0.4707640000000  0.4339140000000  0.4670150000000 1.0
C      1  0.5332110000000  0.4300630000000  0.4722960000000 1.0
C      1  0.4567260000000  0.5487650000000  0.5285950000000 1.0
C      1  0.4669390000000  0.5563090000000  0.4527280000000 1.0
C      1  0.5499900000000  0.5580790000000  0.4664460000000 1.0
C      1  0.5334260000000  0.5567100000000  0.5516710000000 1.0
C      1  0.5413500000000  0.4200850000000  0.5488060000000 1.0
C      1  0.4528910000000  0.4175210000000  0.5423900000000 1.0
C      1  0.4560170000000  0.4141060000000  0.4513760000000 1.0
C      1  0.5467400000000  0.4088720000000  0.4580830000000 1.0
C      1  0.4218870000000  0.4388120000000  0.4502910000000 1.0
C      1  0.5519530000000  0.4380710000000  0.4281410000000 1.0
C      1  0.5859660000000  0.4387820000000  0.5463070000000 1.0
C      1  0.4517900000000  0.4377480000000  0.5815960000000 1.0
C      1  0.4987190000000  0.4571240000000  0.5419490000000 1.0
C      1  0.4600760000000  0.4547170000000  0.4836520000000 1.0
C      1  0.5202140000000  0.4527120000000  0.4606570000000 1.0
C      1  0.5362370000000  0.4560930000000  0.5172800000000 1.0
C      1  0.4025450000000  0.4605320000000  0.4494800000000 1.0
C      1  0.5508280000000  0.4562320000000  0.4051880000000 1.0
C      1  0.6023370000000  0.4629590000000  0.5472600000000 1.0
C      1  0.4493210000000  0.4596250000000  0.6004320000000 1.0
C      1  0.5742870000000  0.5557290000000  0.4521870000000 1.0
C      1  0.5493330000000  0.5557920000000  0.5753810000000 1.0
C      1  0.4310160000000  0.5591340000000  0.5485750000000 1.0
C      1  0.4505910000000  0.5593550000000  0.4279550000000 1.0
C      1  0.5791630000000  0.5532350000000  0.5662110000000 1.0
C      1  0.4369660000000  0.5533050000000  0.5763670000000 1.0
C      1  0.4223420000000  0.5546380000000  0.4370690000000 1.0
C      1  0.5644090000000  0.5517820000000  0.4227130000000 1.0
C      1  0.5380140000000  0.5630470000000  0.4171850000000 1.0
C      1  0.5827230000000  0.5629970000000  0.5393590000000 1.0
C      1  0.4620490000000  0.5648480000000  0.5856200000000 1.0
C      1  0.4147840000000  0.5637180000000  0.4638420000000 1.0
C      1  0.4947350000000  0.6042010000000  0.5370210000000 1.0
C      1  0.4617980000000  0.6064100000000  0.4963040000000 1.0
C      1  0.5048630000000  0.6049830000000  0.4632310000000 1.0
C      1  0.5352500000000  0.6008090000000  0.5056180000000 1.0
C      1  0.5424000000000  0.4715620000000  0.5397760000000 1.0
C      1  0.4562620000000  0.4763590000000  0.5435670000000 1.0
C      1  0.4559510000000  0.4747160000000  0.4629570000000 1.0
C      1  0.5390580000000  0.4736490000000  0.4550340000000 1.0
C      1  0.4745980000000  0.5852960000000  0.5688290000000 1.0
C      1  0.4326410000000  0.5831290000000  0.4763050000000 1.0
C      1  0.5248340000000  0.5825780000000  0.4344820000000 1.0
C      1  0.5665080000000  0.5827080000000  0.5257100000000 1.0
C      1  0.4435910000000  0.4469410000000  0.4329030000000 1.0
C      1  0.5730540000000  0.4505010000000  0.4435240000000 1.0
C      1  0.5627750000000  0.4398080000000  0.5629380000000 1.0
C      1  0.4330760000000  0.4435730000000  0.5604340000000 1.0
C      1  0.4290620000000  0.5813230000000  0.5063170000000 1.0
C      1  0.4947190000000  0.5813700000000  0.4303080000000 1.0
C      1  0.5711410000000  0.5829060000000  0.4959010000000 1.0
C      1  0.5039710000000  0.5843870000000  0.5729840000000 1.0
C      1  0.5075310000000  0.4664550000000  0.4818170000000 1.0
C      1  0.5294400000000  0.4762830000000  0.4974550000000 1.0
C      1  0.4898450000000  0.4742570000000  0.5213340000000 1.0
C      1  0.4841660000000  0.4654390000000  0.4953940000000 1.0
C      1  0.5191950000000  0.5753970000000  0.5024590000000 1.0
C      1  0.4957160000000  0.5744890000000  0.5235680000000 1.0
C      1  0.4805250000000  0.5838360000000  0.4999440000000 1.0
C      1  0.5011090000000  0.5857240000000  0.4838580000000 1.0
C      1  0.4967230000000  0.3919470000000  0.4624740000000 1.0
C      1  0.5371630000000  0.3930420000000  0.5017280000000 1.0
C      1  0.5016240000000  0.3951710000000  0.5380070000000 1.0
C      1  0.4620400000000  0.3946830000000  0.5015280000000 1.0
C      1  0.4933770000000  0.4109400000000  0.5746200000000 1.0
C      1  0.4240170000000  0.4081070000000  0.4941400000000 1.0
C      1  0.5060460000000  0.4078040000000  0.4254290000000 1.0
C      1  0.5747270000000  0.4078360000000  0.5066900000000 1.0
C      1  0.5509070000000  0.5985440000000  0.4814380000000 1.0
C      1  0.5190470000000  0.5992100000000  0.5522330000000 1.0
C      1  0.4473090000000  0.5988870000000  0.5211100000000 1.0
C      1  0.4794630000000  0.5983660000000  0.4493680000000 1.0
C      1  0.4768460000000  0.4810370000000  0.4432890000000 1.0
C      1  0.5538470000000  0.4818750000000  0.4791380000000 1.0
C      1  0.5168750000000  0.4771890000000  0.5563730000000 1.0
C      1  0.4476680000000  0.4606130000000  0.5222420000000 1.0
C      1  0.5092760000000  0.5104490000000  0.5486160000000 1.0
C      1  0.4316990000000  0.5131430000000  0.5119130000000 1.0
C      1  0.4842780000000  0.5091780000000  0.4414530000000 1.0
C      1  0.5614840000000  0.5097940000000  0.4847040000000 1.0
C      1  0.4667030000000  0.5998690000000  0.5440850000000 1.0
C      1  0.4561470000000  0.5989850000000  0.4677430000000 1.0
C      1  0.5331640000000  0.5984230000000  0.4576060000000 1.0
C      1  0.5424990000000  0.5979250000000  0.5335650000000 1.0
C      1  0.5723800000000  0.5261550000000  0.4117200000000 1.0
C      1  0.5903110000000  0.5270540000000  0.5738760000000 1.0
C      1  0.4264300000000  0.5263020000000  0.5818190000000 1.0
C      1  0.4169780000000  0.5278810000000  0.4275090000000 1.0
C      1  0.4775420000000  0.4017180000000  0.5530630000000 1.0
C      1  0.4461820000000  0.3989850000000  0.4774520000000 1.0
C      1  0.5219570000000  0.3954540000000  0.4470630000000 1.0
C      1  0.5523520000000  0.4032320000000  0.5243440000000 1.0
C      1  0.4105480000000  0.5205210000000  0.5581230000000 1.0
C      1  0.4425130000000  0.5199700000000  0.4159150000000 1.0
C      1  0.5787200000000  0.5163660000000  0.4385360000000 1.0
C      1  0.5639990000000  0.5148530000000  0.5718420000000 1.0
C      1  0.5302340000000  0.4925800000000  0.5994650000000 1.0
C      1  0.3998470000000  0.4826080000000  0.5275230000000 1.0
C      1  0.4725820000000  0.4885660000000  0.3994820000000 1.0
C      1  0.6002960000000  0.4900640000000  0.4704990000000 1.0
C      1  0.4953940000000  0.4561990000000  0.5943680000000 1.0
C      1  0.4069230000000  0.4542270000000  0.4969560000000 1.0
C      1  0.5032010000000  0.4548320000000  0.4112440000000 1.0
C      1  0.5904050000000  0.4563920000000  0.5001150000000 1.0
C      1  0.4730590000000  0.4760120000000  0.5962400000000 1.0
C      1  0.4063530000000  0.4782700000000  0.4736180000000 1.0
C      1  0.5255240000000  0.4762000000000  0.4070110000000 1.0
C      1  0.5908110000000  0.4787600000000  0.5243300000000 1.0
C      1  0.4890730000000  0.4161450000000  0.4797410000000 1.0
C      1  0.5208480000000  0.4140760000000  0.4931160000000 1.0
C      1  0.5063140000000  0.4156980000000  0.5172790000000 1.0
C      1  0.4792690000000  0.4180040000000  0.5070130000000 1.0
C      1  0.5308890000000  0.4881810000000  0.4337340000000 1.0
C      1  0.5636850000000  0.4878020000000  0.5342020000000 1.0
C      1  0.4651300000000  0.4865710000000  0.5642620000000 1.0
C      1  0.4337400000000  0.4899810000000  0.4694370000000 1.0
C      1  0.4803520000000  0.4001030000000  0.4400730000000 1.0
C      1  0.5590890000000  0.3973030000000  0.4830800000000 1.0
C      1  0.5182160000000  0.4047640000000  0.5600820000000 1.0
C      1  0.4405860000000  0.4023070000000  0.5189950000000 1.0
C      1  0.5322210000000  0.5268910000000  0.5394470000000 1.0
C      1  0.4488150000000  0.5218380000000  0.5334980000000 1.0
C      1  0.4654830000000  0.5257140000000  0.4538790000000 1.0
C      1  0.5569550000000  0.5189890000000  0.4579510000000 1.0
C      1  0.4289890000000  0.4787610000000  0.5949010000000 1.0
C      1  0.4048180000000  0.4794070000000  0.4285870000000 1.0
C      1  0.5705740000000  0.4772030000000  0.4028130000000 1.0
C      1  0.5961960000000  0.4780050000000  0.5707640000000 1.0
C      1  0.4099490000000  0.5591990000000  0.5125030000000 1.0
C      1  0.4895370000000  0.5598890000000  0.4120530000000 1.0
C      1  0.5906630000000  0.5617860000000  0.4911470000000 1.0
C      1  0.5084530000000  0.5636140000000  0.5936360000000 1.0
C      1  0.4817880000000  0.4337920000000  0.5836770000000 1.0
C      1  0.4165650000000  0.4331990000000  0.4809740000000 1.0
C      1  0.5191950000000  0.4338290000000  0.4211570000000 1.0
C      1  0.5857760000000  0.4338290000000  0.5155030000000 1.0
C      1  0.5964850000000  0.4932750000000  0.4423970000000 1.0
C      1  0.5563540000000  0.4902570000000  0.5867430000000 1.0
C      1  0.4068810000000  0.4916610000000  0.5540150000000 1.0
C      1  0.4454620000000  0.4925590000000  0.4071210000000 1.0
C      1  0.6025790000000  0.5167080000000  0.4832060000000 1.0
C      1  0.5173460000000  0.5189200000000  0.6019480000000 1.0
C      1  0.4034580000000  0.5074970000000  0.5113930000000 1.0
C      1  0.4828930000000  0.5158510000000  0.3985700000000 1.0
C      1  0.5279320000000  0.5502660000000  0.4867200000000 1.0
END
