TITL C-2441169-1362-1045 0.0447435269453019 125000 -7521.65862284242 0 0 65 (C1) n - 1
REM
REM in /home/bkarasulu/work/CARBON/AIRSS/Generating-Clusters/ReaxFF-fromJPCA2015/Units_Real/with-SteepDescent/Higher-Symm
REM
REM
REM
REM
REM
REM ./C.cell (1df0a924f5614ab8850e4351716899ee)
REM
REM compiler GCC version 9.2.1 20190827 (Red Hat 9.2.1-1)
REM options -cpp -mtune=generic -march=x86-64 -g -O0 -fpre-include=/usr/include/finclude/math-vector-fortran.h
REM seed 361468457 -1801325302 1060191648 292536489 323052844 -1342314112 2118518983 -637119701 -103013006 292414069 -640488944 -847463754 325686878 634020831 -60929201 1032221725 -105633107 1659166283 -1552034389 792208260 293490714 -907603192 -2107751631 1086025006 1938665395 2124701111 -1131680817 -222479306 923612786 1243607128 -729080237 550822033 331421671
REM
CELL 1.54180   50.00000   50.00000   50.00000   90.00000   90.00000   90.00000
LATT -1
SFAC C  
C      1  0.4427180000000  0.4571880000000  0.4968760000000 1.0
C      1  0.4553400000000  0.5407200000000  0.5373870000000 1.0
C      1  0.4953780000000  0.4580530000000  0.5573580000000 1.0
C      1  0.5374850000000  0.5406710000000  0.5444290000000 1.0
C      1  0.5577900000000  0.4586560000000  0.5048070000000 1.0
C      1  0.5422500000000  0.5432380000000  0.4615400000000 1.0
C      1  0.5035210000000  0.4584460000000  0.4424780000000 1.0
C      1  0.4615220000000  0.5428160000000  0.4567450000000 1.0
C      1  0.5026440000000  0.4836510000000  0.4635910000000 1.0
C      1  0.4788940000000  0.5118650000000  0.4728770000000 1.0
C      1  0.4660540000000  0.4889800000000  0.5015480000000 1.0
C      1  0.4721090000000  0.5178670000000  0.5279900000000 1.0
C      1  0.4976260000000  0.4881970000000  0.5343020000000 1.0
C      1  0.5246040000000  0.5170360000000  0.5276700000000 1.0
C      1  0.5379610000000  0.4819620000000  0.5009730000000 1.0
C      1  0.5236400000000  0.5111080000000  0.4802260000000 1.0
C      1  0.5323990000000  0.5218460000000  0.5659600000000 1.0
C      1  0.5696430000000  0.4777300000000  0.5239380000000 1.0
C      1  0.5630880000000  0.5226880000000  0.4664050000000 1.0
C      1  0.5221790000000  0.4780950000000  0.4306270000000 1.0
C      1  0.4664820000000  0.5225920000000  0.4359850000000 1.0
C      1  0.4315490000000  0.4775430000000  0.4792220000000 1.0
C      1  0.4330300000000  0.5218120000000  0.5323470000000 1.0
C      1  0.4771580000000  0.4774300000000  0.5687010000000 1.0
C      1  0.5135560000000  0.5553400000000  0.5510570000000 1.0
C      1  0.5455420000000  0.4442230000000  0.5263470000000 1.0
C      1  0.5495930000000  0.5563840000000  0.4859180000000 1.0
C      1  0.5260640000000  0.4442770000000  0.4540010000000 1.0
C      1  0.4861450000000  0.5557510000000  0.4499280000000 1.0
C      1  0.4537300000000  0.4432310000000  0.4746680000000 1.0
C      1  0.4485820000000  0.5551680000000  0.5131470000000 1.0
C      1  0.4743400000000  0.4433100000000  0.5453020000000 1.0
C      1  0.5018640000000  0.5300450000000  0.5647940000000 1.0
C      1  0.5474250000000  0.4701370000000  0.5443030000000 1.0
C      1  0.5636910000000  0.5293930000000  0.4970840000000 1.0
C      1  0.5435820000000  0.4704480000000  0.4524200000000 1.0
C      1  0.4970310000000  0.5291930000000  0.4346420000000 1.0
C      1  0.4527550000000  0.4698700000000  0.4568490000000 1.0
C      1  0.4343720000000  0.5293950000000  0.5025310000000 1.0
C      1  0.4558020000000  0.4692940000000  0.5473970000000 1.0
C      1  0.4664480000000  0.5306110000000  0.4874890000000 1.0
C      1  0.4644620000000  0.4671000000000  0.5155460000000 1.0
C      1  0.4964500000000  0.5266690000000  0.5318140000000 1.0
C      1  0.5174410000000  0.4723750000000  0.5279480000000 1.0
C      1  0.5323190000000  0.5255500000000  0.5022750000000 1.0
C      1  0.5240020000000  0.4727930000000  0.4795570000000 1.0
C      1  0.5146560000000  0.5322100000000  0.4641810000000 1.0
C      1  0.4809990000000  0.4708170000000  0.4714330000000 1.0
C      1  0.4850650000000  0.4438440000000  0.5173180000000 1.0
C      1  0.5013130000000  0.5559720000000  0.5235510000000 1.0
C      1  0.5174710000000  0.4439560000000  0.5156720000000 1.0
C      1  0.5227300000000  0.5565820000000  0.4984850000000 1.0
C      1  0.5157000000000  0.4434520000000  0.4822820000000 1.0
C      1  0.4984310000000  0.5568190000000  0.4770940000000 1.0
C      1  0.4822120000000  0.4437180000000  0.4848900000000 1.0
C      1  0.4761810000000  0.5560440000000  0.5014170000000 1.0
C      1  0.4618690000000  0.4993370000000  0.4528820000000 1.0
C      1  0.4402820000000  0.5009000000000  0.4939040000000 1.0
C      1  0.4520070000000  0.4994600000000  0.5383070000000 1.0
C      1  0.4936350000000  0.5003730000000  0.5599470000000 1.0
C      1  0.5386590000000  0.4991850000000  0.5486050000000 1.0
C      1  0.5615540000000  0.5000260000000  0.5064690000000 1.0
C      1  0.5461950000000  0.4994320000000  0.4630780000000 1.0
C      1  0.5068120000000  0.5014280000000  0.4389130000000 1.0
C      1  0.4954630000000  0.4988430000000  0.4989960000000 1.0
END
