TITL C-2441158-471-1304 0.213882307730847 125000 -24954.8314539836 0 0 200 (C1) n - 1
REM
REM in /home/bkarasulu/work/CARBON/AIRSS/Generating-Clusters/ReaxFF-fromJPCA2015/Units_Real/with-SteepDescent/Higher-Symm
REM
REM
REM
REM
REM
REM ./C.cell (1df0a924f5614ab8850e4351716899ee)
REM
REM compiler GCC version 9.2.1 20190827 (Red Hat 9.2.1-1)
REM options -cpp -mtune=generic -march=x86-64 -g -O0 -fpre-include=/usr/include/finclude/math-vector-fortran.h
REM seed -712826098 1893219298 1439156226 1274990343 -69402493 977098965 -1482073123 -1502651042 -1989496708 1749865600 -1057604931 1217945935 -1078003710 2062568878 -1061926090 -2141111535 1486497631 802238381 184978466 -118149780 2138588803 1714036136 -439412959 1173453300 1047435223 226257819 1438016247 -1401583227 -1394697718 887170019 -1161822655 -1662880131 -1788234730
REM
CELL 1.54180   50.00000   50.00000   50.00000   90.00000   90.00000   90.00000
LATT -1
SFAC C  
C      1  0.5069780000000  0.4655180000000  0.6066040000000 1.0
C      1  0.3923970000000  0.4637470000000  0.5088210000000 1.0
C      1  0.4950600000000  0.4669760000000  0.3930870000000 1.0
C      1  0.6072520000000  0.4647530000000  0.4941160000000 1.0
C      1  0.5074150000000  0.5353690000000  0.6068380000000 1.0
C      1  0.3929330000000  0.5344570000000  0.5042820000000 1.0
C      1  0.4919660000000  0.5378470000000  0.3940480000000 1.0
C      1  0.6077730000000  0.5338760000000  0.4943100000000 1.0
C      1  0.4529790000000  0.4861340000000  0.5696070000000 1.0
C      1  0.4291950000000  0.4841050000000  0.4491870000000 1.0
C      1  0.5523180000000  0.4914030000000  0.4232920000000 1.0
C      1  0.5635830000000  0.4803290000000  0.5469040000000 1.0
C      1  0.4539250000000  0.5129750000000  0.5741570000000 1.0
C      1  0.4410390000000  0.5153270000000  0.4582580000000 1.0
C      1  0.5522560000000  0.5185950000000  0.4283360000000 1.0
C      1  0.5710930000000  0.5090920000000  0.5497980000000 1.0
C      1  0.5476990000000  0.5449040000000  0.5180870000000 1.0
C      1  0.4740160000000  0.5506630000000  0.5402680000000 1.0
C      1  0.4559720000000  0.5461460000000  0.4898250000000 1.0
C      1  0.5205220000000  0.5485230000000  0.4556890000000 1.0
C      1  0.5418420000000  0.4465800000000  0.5203310000000 1.0
C      1  0.4739750000000  0.4458080000000  0.5394140000000 1.0
C      1  0.4532970000000  0.4529730000000  0.4779340000000 1.0
C      1  0.5132570000000  0.4514740000000  0.4542470000000 1.0
C      1  0.5229140000000  0.4725000000000  0.3961390000000 1.0
C      1  0.6022620000000  0.4772690000000  0.5195780000000 1.0
C      1  0.4791970000000  0.4722910000000  0.6052010000000 1.0
C      1  0.3950730000000  0.4723210000000  0.4818250000000 1.0
C      1  0.5183570000000  0.5280590000000  0.3984360000000 1.0
C      1  0.6052430000000  0.5267660000000  0.5220580000000 1.0
C      1  0.4792780000000  0.5293960000000  0.6064800000000 1.0
C      1  0.3939840000000  0.5269420000000  0.4766190000000 1.0
C      1  0.6053230000000  0.4832770000000  0.4718720000000 1.0
C      1  0.5275760000000  0.4857800000000  0.6039570000000 1.0
C      1  0.3936040000000  0.4843040000000  0.5291480000000 1.0
C      1  0.4737680000000  0.4872290000000  0.3950530000000 1.0
C      1  0.6057150000000  0.5133680000000  0.4734800000000 1.0
C      1  0.5274060000000  0.5145670000000  0.6034040000000 1.0
C      1  0.3947140000000  0.5139250000000  0.5254820000000 1.0
C      1  0.4713920000000  0.5173620000000  0.3937330000000 1.0
C      1  0.5589570000000  0.4810290000000  0.4958720000000 1.0
C      1  0.5139470000000  0.4760100000000  0.5427310000000 1.0
C      1  0.4437000000000  0.4867770000000  0.5072370000000 1.0
C      1  0.4777510000000  0.4833880000000  0.4448860000000 1.0
C      1  0.5496200000000  0.5203130000000  0.4814700000000 1.0
C      1  0.5122350000000  0.5220820000000  0.5437340000000 1.0
C      1  0.4433370000000  0.5139770000000  0.5227940000000 1.0
C      1  0.4932870000000  0.5125090000000  0.4413450000000 1.0
C      1  0.4494090000000  0.4866180000000  0.4108190000000 1.0
C      1  0.5857480000000  0.4845260000000  0.4496790000000 1.0
C      1  0.5523730000000  0.4849920000000  0.5883130000000 1.0
C      1  0.4111660000000  0.4860960000000  0.5530060000000 1.0
C      1  0.4475950000000  0.5161140000000  0.4114830000000 1.0
C      1  0.5876710000000  0.5138170000000  0.4507150000000 1.0
C      1  0.5517060000000  0.5151830000000  0.5872710000000 1.0
C      1  0.4112920000000  0.5153090000000  0.5489050000000 1.0
C      1  0.4926110000000  0.4437570000000  0.4130660000000 1.0
C      1  0.5880980000000  0.4411600000000  0.4914160000000 1.0
C      1  0.5095690000000  0.4423960000000  0.5867380000000 1.0
C      1  0.4150330000000  0.4428230000000  0.5114830000000 1.0
C      1  0.4912860000000  0.5578630000000  0.4175180000000 1.0
C      1  0.5889170000000  0.5574440000000  0.4901650000000 1.0
C      1  0.5089850000000  0.5578520000000  0.5863080000000 1.0
C      1  0.4129700000000  0.5567180000000  0.5092890000000 1.0
C      1  0.5614600000000  0.4098980000000  0.4753540000000 1.0
C      1  0.5278130000000  0.4133140000000  0.5624930000000 1.0
C      1  0.4367280000000  0.4089660000000  0.5253760000000 1.0
C      1  0.4773370000000  0.4093790000000  0.4320010000000 1.0
C      1  0.5605430000000  0.5861070000000  0.4743400000000 1.0
C      1  0.5234460000000  0.5931080000000  0.5642260000000 1.0
C      1  0.4377650000000  0.5879480000000  0.5263350000000 1.0
C      1  0.4766000000000  0.5926880000000  0.4351260000000 1.0
C      1  0.4837200000000  0.5128080000000  0.4921100000000 1.0
C      1  0.5041070000000  0.5077270000000  0.4695840000000 1.0
C      1  0.5339860000000  0.5106240000000  0.5024940000000 1.0
C      1  0.4904460000000  0.5121160000000  0.5278770000000 1.0
C      1  0.4719400000000  0.4873280000000  0.4963720000000 1.0
C      1  0.5162340000000  0.4831080000000  0.4773290000000 1.0
C      1  0.5321090000000  0.4863700000000  0.5011890000000 1.0
C      1  0.4908030000000  0.4846770000000  0.5300880000000 1.0
C      1  0.5796430000000  0.4932490000000  0.5087100000000 1.0
C      1  0.4820180000000  0.4863750000000  0.5798430000000 1.0
C      1  0.4211750000000  0.4858860000000  0.4831570000000 1.0
C      1  0.5246420000000  0.4859360000000  0.4230220000000 1.0
C      1  0.5769200000000  0.5179560000000  0.5226000000000 1.0
C      1  0.4801000000000  0.5144160000000  0.5813600000000 1.0
C      1  0.4193270000000  0.5141720000000  0.4779080000000 1.0
C      1  0.5135460000000  0.5113240000000  0.4221830000000 1.0
C      1  0.4867840000000  0.6094800000000  0.5125590000000 1.0
C      1  0.4657470000000  0.6059500000000  0.4937760000000 1.0
C      1  0.5107850000000  0.6076830000000  0.4714080000000 1.0
C      1  0.5114900000000  0.6109610000000  0.5002090000000 1.0
C      1  0.4955650000000  0.3930820000000  0.5355990000000 1.0
C      1  0.4710720000000  0.3963200000000  0.4911520000000 1.0
C      1  0.5008660000000  0.3921000000000  0.4877050000000 1.0
C      1  0.5127280000000  0.3886400000000  0.5130230000000 1.0
C      1  0.5805450000000  0.5739780000000  0.5182150000000 1.0
C      1  0.4816700000000  0.5749210000000  0.5790530000000 1.0
C      1  0.4233600000000  0.5743700000000  0.4833750000000 1.0
C      1  0.5187490000000  0.5790120000000  0.4255690000000 1.0
C      1  0.5807570000000  0.4259910000000  0.5183750000000 1.0
C      1  0.4826670000000  0.4244410000000  0.5771920000000 1.0
C      1  0.4254470000000  0.4254140000000  0.4835180000000 1.0
C      1  0.5212520000000  0.4257770000000  0.4242770000000 1.0
C      1  0.5157010000000  0.4093360000000  0.4681190000000 1.0
C      1  0.5366330000000  0.4041110000000  0.5166100000000 1.0
C      1  0.4799630000000  0.4097580000000  0.5197500000000 1.0
C      1  0.4704190000000  0.4188210000000  0.4744310000000 1.0
C      1  0.5193140000000  0.5826080000000  0.4763380000000 1.0
C      1  0.5327800000000  0.5910970000000  0.5165160000000 1.0
C      1  0.4837860000000  0.5929800000000  0.5344510000000 1.0
C      1  0.4731990000000  0.5829590000000  0.4783820000000 1.0
C      1  0.5374960000000  0.4290820000000  0.5839400000000 1.0
C      1  0.4173600000000  0.4267500000000  0.5375830000000 1.0
C      1  0.4664880000000  0.4284060000000  0.4136690000000 1.0
C      1  0.5808840000000  0.4242440000000  0.4639760000000 1.0
C      1  0.5355710000000  0.5745000000000  0.5821590000000 1.0
C      1  0.4165270000000  0.5723330000000  0.5369110000000 1.0
C      1  0.4661480000000  0.5741610000000  0.4151890000000 1.0
C      1  0.5819650000000  0.5721110000000  0.4623890000000 1.0
C      1  0.4794660000000  0.4421740000000  0.4871700000000 1.0
C      1  0.5082470000000  0.4393560000000  0.4790210000000 1.0
C      1  0.5177250000000  0.4439900000000  0.5058640000000 1.0
C      1  0.4911230000000  0.4389310000000  0.5161830000000 1.0
C      1  0.4811800000000  0.5595470000000  0.4928280000000 1.0
C      1  0.5087130000000  0.5579620000000  0.4829810000000 1.0
C      1  0.5216360000000  0.5591540000000  0.5118280000000 1.0
C      1  0.4940350000000  0.5571590000000  0.5203140000000 1.0
C      1  0.4664630000000  0.5226440000000  0.5363450000000 1.0
C      1  0.4613810000000  0.5231420000000  0.4772710000000 1.0
C      1  0.5281240000000  0.5225720000000  0.4643630000000 1.0
C      1  0.5346030000000  0.5210020000000  0.5264020000000 1.0
C      1  0.4699220000000  0.4726060000000  0.5452720000000 1.0
C      1  0.4658800000000  0.4777450000000  0.4712970000000 1.0
C      1  0.5307920000000  0.4739570000000  0.4546530000000 1.0
C      1  0.5382760000000  0.4748150000000  0.5286730000000 1.0
C      1  0.5484320000000  0.4579490000000  0.4005070000000 1.0
C      1  0.5913160000000  0.4649600000000  0.5442110000000 1.0
C      1  0.4540360000000  0.4562210000000  0.5997650000000 1.0
C      1  0.3993190000000  0.4563330000000  0.4561460000000 1.0
C      1  0.5429720000000  0.5458110000000  0.3997810000000 1.0
C      1  0.6008170000000  0.5416830000000  0.5476170000000 1.0
C      1  0.4547040000000  0.5454650000000  0.6011120000000 1.0
C      1  0.4030680000000  0.5421900000000  0.4503350000000 1.0
C      1  0.5690220000000  0.5340620000000  0.4447400000000 1.0
C      1  0.5461810000000  0.5370860000000  0.5676130000000 1.0
C      1  0.4270540000000  0.5366580000000  0.5575860000000 1.0
C      1  0.4545440000000  0.5339140000000  0.4358120000000 1.0
C      1  0.5612050000000  0.4649360000000  0.4576200000000 1.0
C      1  0.5461850000000  0.4675930000000  0.5663720000000 1.0
C      1  0.4308080000000  0.4639550000000  0.5455190000000 1.0
C      1  0.4500470000000  0.4695930000000  0.4342500000000 1.0
C      1  0.4544640000000  0.5667080000000  0.5816900000000 1.0
C      1  0.4213470000000  0.5645530000000  0.4565470000000 1.0
C      1  0.5453170000000  0.5674140000000  0.4205000000000 1.0
C      1  0.5813740000000  0.5637640000000  0.5451800000000 1.0
C      1  0.4557620000000  0.4342510000000  0.5801640000000 1.0
C      1  0.4218000000000  0.4365260000000  0.4567710000000 1.0
C      1  0.5479500000000  0.4350280000000  0.4202370000000 1.0
C      1  0.5821100000000  0.4379100000000  0.5439470000000 1.0
C      1  0.5419380000000  0.5878630000000  0.5439860000000 1.0
C      1  0.4618940000000  0.5768820000000  0.5376180000000 1.0
C      1  0.4594150000000  0.5817100000000  0.4542400000000 1.0
C      1  0.5373970000000  0.5746670000000  0.4598660000000 1.0
C      1  0.5415990000000  0.4222950000000  0.5376990000000 1.0
C      1  0.4604000000000  0.4205980000000  0.5375240000000 1.0
C      1  0.4580800000000  0.4165130000000  0.4510640000000 1.0
C      1  0.5416930000000  0.4136620000000  0.4591160000000 1.0
C      1  0.5693840000000  0.4705120000000  0.4156920000000 1.0
C      1  0.5803900000000  0.4627570000000  0.5842250000000 1.0
C      1  0.4333980000000  0.4691260000000  0.5847110000000 1.0
C      1  0.4052150000000  0.4755220000000  0.4359150000000 1.0
C      1  0.5660570000000  0.5275770000000  0.4018680000000 1.0
C      1  0.5848390000000  0.5271010000000  0.5665400000000 1.0
C      1  0.4341700000000  0.5308470000000  0.5855630000000 1.0
C      1  0.4151390000000  0.5342090000000  0.4260750000000 1.0
C      1  0.4409840000000  0.4052450000000  0.4966580000000 1.0
C      1  0.5057810000000  0.4083320000000  0.4396370000000 1.0
C      1  0.5616680000000  0.4086760000000  0.5044650000000 1.0
C      1  0.4986350000000  0.4059970000000  0.5614190000000 1.0
C      1  0.4388280000000  0.5943070000000  0.4973150000000 1.0
C      1  0.5046680000000  0.5975820000000  0.4431810000000 1.0
C      1  0.5608920000000  0.5894520000000  0.5049380000000 1.0
C      1  0.4941470000000  0.5923880000000  0.5607430000000 1.0
C      1  0.4834660000000  0.5391170000000  0.4400400000000 1.0
C      1  0.5623910000000  0.5433070000000  0.4930680000000 1.0
C      1  0.5181580000000  0.5418000000000  0.5622690000000 1.0
C      1  0.4378730000000  0.5390920000000  0.5102920000000 1.0
C      1  0.4915940000000  0.4592810000000  0.4380810000000 1.0
C      1  0.5619140000000  0.4552090000000  0.4860120000000 1.0
C      1  0.5185610000000  0.4585030000000  0.5627690000000 1.0
C      1  0.4368580000000  0.4610290000000  0.5184030000000 1.0
C      1  0.4285290000000  0.4385330000000  0.5613760000000 1.0
C      1  0.4443970000000  0.4371240000000  0.4341300000000 1.0
C      1  0.5690010000000  0.4395070000000  0.4419210000000 1.0
C      1  0.5646950000000  0.4405040000000  0.5731600000000 1.0
C      1  0.4274950000000  0.5642860000000  0.5621310000000 1.0
C      1  0.4439670000000  0.5625990000000  0.4332100000000 1.0
C      1  0.5700390000000  0.5620010000000  0.4380080000000 1.0
C      1  0.5591140000000  0.5644300000000  0.5679480000000 1.0
END
