TITL C-2441167-4473-715 0.0626947317850244 125000 -9701.01108246745 0 0 76 (S4) n - 1
REM
REM in /home/bkarasulu/work/CARBON/AIRSS/Generating-Clusters/ReaxFF-fromJPCA2015/Units_Real/with-SteepDescent/Higher-Symm
REM
REM
REM
REM
REM
REM ./C.cell (1df0a924f5614ab8850e4351716899ee)
REM
REM compiler GCC version 9.2.1 20190827 (Red Hat 9.2.1-1)
REM options -cpp -mtune=generic -march=x86-64 -g -O0 -fpre-include=/usr/include/finclude/math-vector-fortran.h
REM seed -1548360207 -2094671721 9376666 281938295 -423506663 2120105049 -348270601 -905616811 -1788444460 -1080479605 -1354750965 2020029136 1660166484 1880296950 -1969082263 -1551139916 -739431105 918655437 519399443 -1497845473 -873268552 533433974 231765054 -1545437973 -1225669632 -1699730114 854073698 -395166272 -1191768480 -1663729974 1370969287 -1126222056 -649215382
REM
CELL 1.54180   50.00000   50.00000   50.00000   90.00000   90.00000   90.00000
LATT -1
SFAC C  
C      1  0.4982900000000  0.4415820000000  0.5343950000000 1.0
C      1  0.4979520000000  0.5583050000000  0.4656760000000 1.0
C      1  0.5018170000000  0.5584800000000  0.5345960000000 1.0
C      1  0.5019410000000  0.4416240000000  0.4654960000000 1.0
C      1  0.4979640000000  0.5343140000000  0.4417480000000 1.0
C      1  0.4977420000000  0.4657450000000  0.5581180000000 1.0
C      1  0.5022560000000  0.5341960000000  0.5579640000000 1.0
C      1  0.5022630000000  0.4658050000000  0.4419410000000 1.0
C      1  0.5229520000000  0.5003330000000  0.5205720000000 1.0
C      1  0.5227700000000  0.4998050000000  0.4795740000000 1.0
C      1  0.4774390000000  0.4998180000000  0.5204230000000 1.0
C      1  0.4770690000000  0.5002290000000  0.4794950000000 1.0
C      1  0.5230720000000  0.5207630000000  0.4997790000000 1.0
C      1  0.5229150000000  0.4793820000000  0.5002990000000 1.0
C      1  0.4770910000000  0.5204180000000  0.5002310000000 1.0
C      1  0.4769290000000  0.4796650000000  0.4997880000000 1.0
C      1  0.4340480000000  0.5254840000000  0.5449060000000 1.0
C      1  0.4345790000000  0.4744060000000  0.4545430000000 1.0
C      1  0.5652250000000  0.4739460000000  0.5451580000000 1.0
C      1  0.5655060000000  0.5255620000000  0.4549490000000 1.0
C      1  0.4343690000000  0.5448670000000  0.5254390000000 1.0
C      1  0.4346660000000  0.4544690000000  0.4741340000000 1.0
C      1  0.5656790000000  0.5449590000000  0.4738580000000 1.0
C      1  0.5652600000000  0.4548020000000  0.5260100000000 1.0
C      1  0.5394260000000  0.5553090000000  0.4657470000000 1.0
C      1  0.5394870000000  0.4445030000000  0.5341770000000 1.0
C      1  0.4605380000000  0.4444110000000  0.4658330000000 1.0
C      1  0.4601820000000  0.5556280000000  0.5342960000000 1.0
C      1  0.5395540000000  0.4657100000000  0.5555130000000 1.0
C      1  0.5398600000000  0.5341110000000  0.4442760000000 1.0
C      1  0.4606320000000  0.4659000000000  0.4447630000000 1.0
C      1  0.4600790000000  0.5338130000000  0.5551730000000 1.0
C      1  0.5463090000000  0.5080700000000  0.5360960000000 1.0
C      1  0.5461500000000  0.4920660000000  0.4640010000000 1.0
C      1  0.4537680000000  0.4921160000000  0.5359620000000 1.0
C      1  0.4535420000000  0.5078660000000  0.4638640000000 1.0
C      1  0.5466790000000  0.5363160000000  0.5079590000000 1.0
C      1  0.5464380000000  0.4638740000000  0.4920040000000 1.0
C      1  0.4536820000000  0.5359690000000  0.4919790000000 1.0
C      1  0.4535720000000  0.4638380000000  0.5080220000000 1.0
C      1  0.5760470000000  0.5400450000000  0.5019200000000 1.0
C      1  0.5759150000000  0.4599680000000  0.4979520000000 1.0
C      1  0.4241270000000  0.4597800000000  0.5019420000000 1.0
C      1  0.4254370000000  0.5405690000000  0.4980470000000 1.0
C      1  0.5756810000000  0.5018320000000  0.5404590000000 1.0
C      1  0.5746370000000  0.4981450000000  0.4597150000000 1.0
C      1  0.4233730000000  0.5022510000000  0.4602010000000 1.0
C      1  0.4251180000000  0.4978540000000  0.5401710000000 1.0
C      1  0.5223750000000  0.5667210000000  0.5168010000000 1.0
C      1  0.5224290000000  0.4333050000000  0.4832840000000 1.0
C      1  0.4773090000000  0.4332680000000  0.5167830000000 1.0
C      1  0.4771310000000  0.5664030000000  0.4833620000000 1.0
C      1  0.5226270000000  0.5166810000000  0.5670430000000 1.0
C      1  0.5227200000000  0.4832790000000  0.4331780000000 1.0
C      1  0.4775820000000  0.5167430000000  0.4328920000000 1.0
C      1  0.4773610000000  0.4833250000000  0.5668600000000 1.0
C      1  0.4560850000000  0.4470830000000  0.5318230000000 1.0
C      1  0.4557420000000  0.5529230000000  0.4683990000000 1.0
C      1  0.5439510000000  0.5531010000000  0.5316000000000 1.0
C      1  0.5439960000000  0.4470510000000  0.4683140000000 1.0
C      1  0.4562590000000  0.5315510000000  0.4467470000000 1.0
C      1  0.4559730000000  0.4685420000000  0.5532320000000 1.0
C      1  0.5439240000000  0.5316110000000  0.5531490000000 1.0
C      1  0.5442150000000  0.4685170000000  0.4468810000000 1.0
C      1  0.4812670000000  0.5593100000000  0.5141640000000 1.0
C      1  0.4813930000000  0.4406800000000  0.4858810000000 1.0
C      1  0.5188940000000  0.4410510000000  0.5139800000000 1.0
C      1  0.5188160000000  0.5590610000000  0.4859140000000 1.0
C      1  0.4813040000000  0.5150390000000  0.5605400000000 1.0
C      1  0.4814070000000  0.4851930000000  0.4396100000000 1.0
C      1  0.5187580000000  0.5146320000000  0.4397330000000 1.0
C      1  0.5186240000000  0.4853110000000  0.5603190000000 1.0
C      1  0.4188580000000  0.5219020000000  0.4786360000000 1.0
C      1  0.4194340000000  0.4785960000000  0.5218000000000 1.0
C      1  0.5804260000000  0.4786920000000  0.4781530000000 1.0
C      1  0.5811120000000  0.5215320000000  0.5217570000000 1.0
END
