TITL C-2441155-8282-58 0.0245933000079444 125000 -12611.6840201554 0 0 93 (C1) n - 1
REM
REM in /home/bkarasulu/work/CARBON/AIRSS/Generating-Clusters/ReaxFF-fromJPCA2015/Units_Real/with-SteepDescent/Higher-Symm
REM
REM
REM
REM
REM
REM ./C.cell (1df0a924f5614ab8850e4351716899ee)
REM
REM compiler GCC version 9.2.1 20190827 (Red Hat 9.2.1-1)
REM options -cpp -mtune=generic -march=x86-64 -g -O0 -fpre-include=/usr/include/finclude/math-vector-fortran.h
REM seed -1227318517 469336836 -2056783332 -889401004 2123324572 -160252642 -223655755 1589842503 427824540 -1838724760 -836451102 1133499683 -1186357876 -792188150 889827026 -1770162556 1215431176 747777443 -178626609 -982554783 -1911467863 193833301 -1340839922 1178876458 706002154 -603857866 -1671948791 189691215 -1521066364 -2137991409 -2058367563 1091619371 1327984232
REM
CELL 1.54180   50.00000   50.00000   50.00000   90.00000   90.00000   90.00000
LATT -1
SFAC C  
C      1  0.5080600000000  0.4517970000000  0.5204970000000 1.0
C      1  0.5339740000000  0.5227810000000  0.5207600000000 1.0
C      1  0.4575380000000  0.5034260000000  0.5259840000000 1.0
C      1  0.5181420000000  0.4543090000000  0.4811460000000 1.0
C      1  0.5418290000000  0.5305050000000  0.4752530000000 1.0
C      1  0.4486960000000  0.5131590000000  0.4767470000000 1.0
C      1  0.4235390000000  0.4600250000000  0.4845330000000 1.0
C      1  0.5872500000000  0.4634280000000  0.4789460000000 1.0
C      1  0.5003680000000  0.5964660000000  0.4852040000000 1.0
C      1  0.4261940000000  0.4604950000000  0.5142970000000 1.0
C      1  0.5832470000000  0.4639280000000  0.5192660000000 1.0
C      1  0.4999240000000  0.5962380000000  0.5145860000000 1.0
C      1  0.4365270000000  0.4431200000000  0.4649970000000 1.0
C      1  0.5844910000000  0.4735450000000  0.4504300000000 1.0
C      1  0.4803650000000  0.5878410000000  0.4656140000000 1.0
C      1  0.4375460000000  0.4420980000000  0.5341570000000 1.0
C      1  0.5828130000000  0.4724640000000  0.5480470000000 1.0
C      1  0.4789440000000  0.5890020000000  0.5336200000000 1.0
C      1  0.4969250000000  0.5678450000000  0.5456590000000 1.0
C      1  0.4534030000000  0.4537900000000  0.5568970000000 1.0
C      1  0.5562040000000  0.4607700000000  0.5509430000000 1.0
C      1  0.5002220000000  0.5687000000000  0.4535810000000 1.0
C      1  0.4522810000000  0.4532280000000  0.4414700000000 1.0
C      1  0.5569910000000  0.4639430000000  0.4489260000000 1.0
C      1  0.5534420000000  0.5453980000000  0.4541840000000 1.0
C      1  0.4308550000000  0.5223830000000  0.4570630000000 1.0
C      1  0.5145320000000  0.4322580000000  0.4618590000000 1.0
C      1  0.5435530000000  0.5421440000000  0.5398900000000 1.0
C      1  0.4336150000000  0.5177730000000  0.5372760000000 1.0
C      1  0.5192020000000  0.4409520000000  0.5429620000000 1.0
C      1  0.4803860000000  0.5166270000000  0.5143820000000 1.0
C      1  0.5012100000000  0.4793200000000  0.5103080000000 1.0
C      1  0.5221150000000  0.5004560000000  0.5062440000000 1.0
C      1  0.4786720000000  0.5258740000000  0.4865940000000 1.0
C      1  0.4916700000000  0.4682950000000  0.4847570000000 1.0
C      1  0.5301330000000  0.5060060000000  0.4797570000000 1.0
C      1  0.4469020000000  0.4807560000000  0.5119480000000 1.0
C      1  0.5553400000000  0.4549100000000  0.5219840000000 1.0
C      1  0.5170970000000  0.5736770000000  0.5236980000000 1.0
C      1  0.4373890000000  0.4870400000000  0.4858650000000 1.0
C      1  0.5591130000000  0.4540850000000  0.4769490000000 1.0
C      1  0.5191540000000  0.5752470000000  0.4762050000000 1.0
C      1  0.5833730000000  0.5129360000000  0.4859860000000 1.0
C      1  0.4585280000000  0.5518280000000  0.4872060000000 1.0
C      1  0.4736320000000  0.4371620000000  0.4846120000000 1.0
C      1  0.5801830000000  0.5108240000000  0.5137160000000 1.0
C      1  0.4521740000000  0.5557050000000  0.5169050000000 1.0
C      1  0.4739840000000  0.4308280000000  0.5135050000000 1.0
C      1  0.4511540000000  0.4796510000000  0.4295170000000 1.0
C      1  0.5341430000000  0.4632670000000  0.4302320000000 1.0
C      1  0.5076590000000  0.5534480000000  0.4304550000000 1.0
C      1  0.4499530000000  0.4804240000000  0.5701080000000 1.0
C      1  0.5363910000000  0.4627050000000  0.5723330000000 1.0
C      1  0.5068010000000  0.5550580000000  0.5697210000000 1.0
C      1  0.4878580000000  0.4882520000000  0.4582780000000 1.0
C      1  0.5157440000000  0.4966750000000  0.4571220000000 1.0
C      1  0.4926640000000  0.5171390000000  0.4597850000000 1.0
C      1  0.4905050000000  0.4892560000000  0.5482300000000 1.0
C      1  0.5176860000000  0.4972060000000  0.5489890000000 1.0
C      1  0.4968280000000  0.5177770000000  0.5406990000000 1.0
C      1  0.4880220000000  0.5318060000000  0.4318060000000 1.0
C      1  0.4805130000000  0.4803170000000  0.4288410000000 1.0
C      1  0.5296830000000  0.4919960000000  0.4274670000000 1.0
C      1  0.4873260000000  0.5335870000000  0.5690380000000 1.0
C      1  0.4791920000000  0.4809850000000  0.5748640000000 1.0
C      1  0.5310620000000  0.4926120000000  0.5751770000000 1.0
C      1  0.5364690000000  0.5442130000000  0.4298250000000 1.0
C      1  0.4406000000000  0.5091400000000  0.4331290000000 1.0
C      1  0.5107890000000  0.4452220000000  0.4356080000000 1.0
C      1  0.5353960000000  0.5451970000000  0.5681970000000 1.0
C      1  0.4398210000000  0.5087370000000  0.5654680000000 1.0
C      1  0.5109060000000  0.4466660000000  0.5686570000000 1.0
C      1  0.4464410000000  0.4224680000000  0.5142730000000 1.0
C      1  0.5910740000000  0.4892650000000  0.5268670000000 1.0
C      1  0.4578370000000  0.5838690000000  0.5140180000000 1.0
C      1  0.4466920000000  0.4240630000000  0.4846780000000 1.0
C      1  0.5952990000000  0.4909320000000  0.4711510000000 1.0
C      1  0.4598030000000  0.5808010000000  0.4850340000000 1.0
C      1  0.4607870000000  0.5277380000000  0.4310090000000 1.0
C      1  0.4826960000000  0.4516780000000  0.4302600000000 1.0
C      1  0.5405390000000  0.5170530000000  0.4277500000000 1.0
C      1  0.4609110000000  0.5260040000000  0.5678800000000 1.0
C      1  0.4809350000000  0.4522270000000  0.5702830000000 1.0
C      1  0.5422820000000  0.5183000000000  0.5737590000000 1.0
C      1  0.5612390000000  0.5322080000000  0.5187590000000 1.0
C      1  0.4301750000000  0.5379220000000  0.5169390000000 1.0
C      1  0.5019040000000  0.4241850000000  0.5108320000000 1.0
C      1  0.5676950000000  0.5363700000000  0.4787140000000 1.0
C      1  0.4335780000000  0.5365780000000  0.4846870000000 1.0
C      1  0.4976830000000  0.4190860000000  0.4817400000000 1.0
C      1  0.5411690000000  0.4454170000000  0.4977780000000 1.0
C      1  0.5314230000000  0.5616880000000  0.5002480000000 1.0
C      1  0.4109480000000  0.4954250000000  0.5002480000000 1.0
END
