TITL C-2441164-471-48 -0.000937600751317058 125000 -8060.55229686714 0 0 52 (C1) n - 1
REM
REM in /home/bkarasulu/work/CARBON/AIRSS/Generating-Clusters/ReaxFF-fromJPCA2015/Units_Real/with-SteepDescent/Higher-Symm
REM
REM
REM
REM
REM
REM ./C.cell (1df0a924f5614ab8850e4351716899ee)
REM
REM compiler GCC version 9.2.1 20190827 (Red Hat 9.2.1-1)
REM options -cpp -mtune=generic -march=x86-64 -g -O0 -fpre-include=/usr/include/finclude/math-vector-fortran.h
REM seed -335673007 1850952237 -1007959599 237542247 -384641385 1844619922 -707680725 220558539 1156737491 769587090 139217446 -712978099 432851232 -347731356 -1348043433 -985393102 704667567 -535195981 -1831276318 -1356763545 1342326483 1164672564 1464968341 1222256700 -1444102250 293625458 -1457639977 778485429 301678932 -718692251 1812744914 -849450012 721090026
REM
CELL 1.54180   50.00000   50.00000   50.00000   90.00000   90.00000   90.00000
LATT -1
SFAC C  
C      1  0.4696350000000  0.4957910000000  0.5511480000000 1.0
C      1  0.5601330000000  0.4967470000000  0.4998790000000 1.0
C      1  0.4590590000000  0.4925810000000  0.4561360000000 1.0
C      1  0.5562330000000  0.5005260000000  0.4715770000000 1.0
C      1  0.4547050000000  0.5208210000000  0.4648320000000 1.0
C      1  0.4962700000000  0.5000300000000  0.5616280000000 1.0
C      1  0.5352840000000  0.4745990000000  0.5503860000000 1.0
C      1  0.5276770000000  0.4747400000000  0.4434620000000 1.0
C      1  0.4408870000000  0.4765100000000  0.5013710000000 1.0
C      1  0.4603150000000  0.4505250000000  0.4621390000000 1.0
C      1  0.4899400000000  0.4534620000000  0.5510690000000 1.0
C      1  0.5516120000000  0.4539540000000  0.4820450000000 1.0
C      1  0.4976680000000  0.5364400000000  0.4502300000000 1.0
C      1  0.4575630000000  0.5434930000000  0.5314480000000 1.0
C      1  0.5451920000000  0.5432010000000  0.5249130000000 1.0
C      1  0.5035070000000  0.4591680000000  0.4489810000000 1.0
C      1  0.4549600000000  0.4584500000000  0.5195160000000 1.0
C      1  0.5432110000000  0.4574170000000  0.5281430000000 1.0
C      1  0.5213890000000  0.5460330000000  0.5425540000000 1.0
C      1  0.5244800000000  0.5434830000000  0.4587040000000 1.0
C      1  0.4519920000000  0.5495550000000  0.5031330000000 1.0
C      1  0.4436540000000  0.4727530000000  0.4721060000000 1.0
C      1  0.5083360000000  0.4734370000000  0.5615990000000 1.0
C      1  0.5509530000000  0.4739340000000  0.4610330000000 1.0
C      1  0.4397970000000  0.5039470000000  0.5095490000000 1.0
C      1  0.5390440000000  0.5028240000000  0.5462790000000 1.0
C      1  0.5221910000000  0.5017910000000  0.4425680000000 1.0
C      1  0.5401930000000  0.5193090000000  0.4555340000000 1.0
C      1  0.4409600000000  0.5256170000000  0.4902200000000 1.0
C      1  0.5173570000000  0.5195400000000  0.5550220000000 1.0
C      1  0.4974550000000  0.4982920000000  0.4823000000000 1.0
C      1  0.4874210000000  0.5069710000000  0.5080830000000 1.0
C      1  0.5134530000000  0.5062860000000  0.5051140000000 1.0
C      1  0.4760310000000  0.4690010000000  0.4457370000000 1.0
C      1  0.4652320000000  0.4678500000000  0.5452630000000 1.0
C      1  0.5590020000000  0.4685510000000  0.5061900000000 1.0
C      1  0.4818900000000  0.5541640000000  0.5380520000000 1.0
C      1  0.5409780000000  0.5572020000000  0.5015300000000 1.0
C      1  0.4721780000000  0.5440690000000  0.4619220000000 1.0
C      1  0.4779490000000  0.4355990000000  0.4805910000000 1.0
C      1  0.4966910000000  0.4373440000000  0.5276650000000 1.0
C      1  0.5281060000000  0.4376310000000  0.4879660000000 1.0
C      1  0.5038010000000  0.5653380000000  0.5271460000000 1.0
C      1  0.5245830000000  0.5644490000000  0.4800650000000 1.0
C      1  0.4739010000000  0.5601970000000  0.4866000000000 1.0
C      1  0.4971560000000  0.5072420000000  0.4532500000000 1.0
C      1  0.4601580000000  0.5123240000000  0.5290850000000 1.0
C      1  0.5446290000000  0.5123250000000  0.5193410000000 1.0
C      1  0.5049210000000  0.4390180000000  0.4701030000000 1.0
C      1  0.4739060000000  0.4386160000000  0.5093180000000 1.0
C      1  0.5238080000000  0.4387580000000  0.5168150000000 1.0
C      1  0.4999910000000  0.5678130000000  0.4969300000000 1.0
END
