TITL C-2441169-1362-1285 0.0684260366935255 125000 -20312.5297378474 0 0 147 (C1) n - 1
REM
REM in /home/bkarasulu/work/CARBON/AIRSS/Generating-Clusters/ReaxFF-fromJPCA2015/Units_Real/with-SteepDescent/Higher-Symm
REM
REM
REM
REM
REM
REM ./C.cell (1df0a924f5614ab8850e4351716899ee)
REM
REM compiler GCC version 9.2.1 20190827 (Red Hat 9.2.1-1)
REM options -cpp -mtune=generic -march=x86-64 -g -O0 -fpre-include=/usr/include/finclude/math-vector-fortran.h
REM seed -1635755276 -2052913325 -1663878989 -1288404328 1013734863 441446843 825321630 -366425600 511176973 -1162161771 -1925028748 -1514143729 1055818949 112121393 -1923931441 -459587904 1606570202 -975534290 -1232255350 817552129 1965958875 1753798115 -685761986 1835999982 -603649091 -112371203 1984993899 1580727708 272615272 -2138487014 -1927133351 -366597815 -42977324
REM
CELL 1.54180   50.00000   50.00000   50.00000   90.00000   90.00000   90.00000
LATT -1
SFAC C  
C      1  0.4735370000000  0.4852880000000  0.5059100000000 1.0
C      1  0.4717210000000  0.5102400000000  0.4918340000000 1.0
C      1  0.4946140000000  0.5289880000000  0.4933980000000 1.0
C      1  0.5177230000000  0.5226570000000  0.5087540000000 1.0
C      1  0.5392830000000  0.5058180000000  0.4988660000000 1.0
C      1  0.5250730000000  0.4723420000000  0.5011470000000 1.0
C      1  0.4947420000000  0.4664760000000  0.5031520000000 1.0
C      1  0.5648070000000  0.5137050000000  0.5757230000000 1.0
C      1  0.5529060000000  0.4652100000000  0.5801130000000 1.0
C      1  0.4975490000000  0.4381590000000  0.5806930000000 1.0
C      1  0.4520090000000  0.4571260000000  0.5810190000000 1.0
C      1  0.4401920000000  0.5174680000000  0.5806260000000 1.0
C      1  0.4704750000000  0.5558520000000  0.5816430000000 1.0
C      1  0.5294100000000  0.5594440000000  0.5860630000000 1.0
C      1  0.4887620000000  0.4158610000000  0.4332680000000 1.0
C      1  0.4274960000000  0.4591610000000  0.4311050000000 1.0
C      1  0.4276640000000  0.5233760000000  0.4414750000000 1.0
C      1  0.4753270000000  0.5696850000000  0.4470230000000 1.0
C      1  0.5464050000000  0.5696070000000  0.4333980000000 1.0
C      1  0.5834500000000  0.5070280000000  0.4354310000000 1.0
C      1  0.5598210000000  0.4388440000000  0.4321680000000 1.0
C      1  0.4834020000000  0.5308490000000  0.4198410000000 1.0
C      1  0.5127540000000  0.5319460000000  0.4161060000000 1.0
C      1  0.5316820000000  0.5109020000000  0.4224320000000 1.0
C      1  0.5277300000000  0.4791620000000  0.4157940000000 1.0
C      1  0.5041830000000  0.4650140000000  0.4149160000000 1.0
C      1  0.4756690000000  0.4784340000000  0.4225200000000 1.0
C      1  0.4670420000000  0.5066400000000  0.4138310000000 1.0
C      1  0.5029290000000  0.5874700000000  0.5516450000000 1.0
C      1  0.5710600000000  0.5595150000000  0.5546430000000 1.0
C      1  0.5886460000000  0.4764420000000  0.5512020000000 1.0
C      1  0.5407800000000  0.4213590000000  0.5496960000000 1.0
C      1  0.4561370000000  0.4219960000000  0.5522110000000 1.0
C      1  0.4139720000000  0.4793240000000  0.5521480000000 1.0
C      1  0.4324090000000  0.5608030000000  0.5548520000000 1.0
C      1  0.5671290000000  0.4149600000000  0.5055100000000 1.0
C      1  0.4779050000000  0.4004240000000  0.5097310000000 1.0
C      1  0.4034090000000  0.4502860000000  0.5109850000000 1.0
C      1  0.4065590000000  0.5450140000000  0.5076490000000 1.0
C      1  0.4776270000000  0.6007430000000  0.5084590000000 1.0
C      1  0.5640480000000  0.5788980000000  0.5084830000000 1.0
C      1  0.6050910000000  0.4997380000000  0.5074870000000 1.0
C      1  0.4696360000000  0.5506550000000  0.4697950000000 1.0
C      1  0.5147440000000  0.5640740000000  0.4748540000000 1.0
C      1  0.5505470000000  0.5176570000000  0.4737160000000 1.0
C      1  0.5453700000000  0.4680690000000  0.4786480000000 1.0
C      1  0.5113850000000  0.4386950000000  0.4772050000000 1.0
C      1  0.4428920000000  0.4446070000000  0.4817360000000 1.0
C      1  0.4255790000000  0.5153520000000  0.4684350000000 1.0
C      1  0.4424580000000  0.5470790000000  0.5777900000000 1.0
C      1  0.4774860000000  0.5778820000000  0.5634240000000 1.0
C      1  0.5560030000000  0.5565140000000  0.5782180000000 1.0
C      1  0.5734140000000  0.4855930000000  0.5744320000000 1.0
C      1  0.5573340000000  0.4418050000000  0.5625940000000 1.0
C      1  0.4680050000000  0.4337670000000  0.5761130000000 1.0
C      1  0.4276720000000  0.4569670000000  0.5652600000000 1.0
C      1  0.4826550000000  0.3966510000000  0.4816200000000 1.0
C      1  0.4153440000000  0.4495000000000  0.4853900000000 1.0
C      1  0.4077120000000  0.5347970000000  0.4801190000000 1.0
C      1  0.4708800000000  0.6051690000000  0.4809210000000 1.0
C      1  0.5600990000000  0.5863680000000  0.4811760000000 1.0
C      1  0.6041140000000  0.5079930000000  0.4815780000000 1.0
C      1  0.5731810000000  0.4196850000000  0.4770650000000 1.0
C      1  0.5137680000000  0.5317240000000  0.5793310000000 1.0
C      1  0.5359100000000  0.5087650000000  0.5818480000000 1.0
C      1  0.5281470000000  0.4796770000000  0.5862650000000 1.0
C      1  0.5025970000000  0.4657200000000  0.5869700000000 1.0
C      1  0.4748820000000  0.4779180000000  0.5777240000000 1.0
C      1  0.4668450000000  0.5084040000000  0.5857450000000 1.0
C      1  0.4842480000000  0.5307330000000  0.5880790000000 1.0
C      1  0.5026380000000  0.4361730000000  0.4178900000000 1.0
C      1  0.4528970000000  0.4593980000000  0.4181430000000 1.0
C      1  0.4396470000000  0.5110180000000  0.4170750000000 1.0
C      1  0.4672880000000  0.5586090000000  0.4208170000000 1.0
C      1  0.5249370000000  0.5568910000000  0.4189420000000 1.0
C      1  0.5606680000000  0.5169870000000  0.4212150000000 1.0
C      1  0.5512660000000  0.4626680000000  0.4189590000000 1.0
C      1  0.5134810000000  0.4252380000000  0.5593400000000 1.0
C      1  0.4299130000000  0.4325570000000  0.5492760000000 1.0
C      1  0.4250710000000  0.5052680000000  0.5583350000000 1.0
C      1  0.4528010000000  0.5791130000000  0.5471030000000 1.0
C      1  0.5243630000000  0.5776050000000  0.5656450000000 1.0
C      1  0.5794670000000  0.5315290000000  0.5548760000000 1.0
C      1  0.5781660000000  0.4506860000000  0.5440920000000 1.0
C      1  0.5095430000000  0.5377330000000  0.5499240000000 1.0
C      1  0.5420430000000  0.5126740000000  0.5437280000000 1.0
C      1  0.5373480000000  0.4848270000000  0.5423410000000 1.0
C      1  0.5099640000000  0.4442180000000  0.5380200000000 1.0
C      1  0.4762330000000  0.4730000000000  0.5480530000000 1.0
C      1  0.4420280000000  0.5056750000000  0.5364320000000 1.0
C      1  0.4738380000000  0.5353030000000  0.5316910000000 1.0
C      1  0.4495130000000  0.5272980000000  0.5213520000000 1.0
C      1  0.4910200000000  0.5521660000000  0.5340520000000 1.0
C      1  0.5304330000000  0.5346520000000  0.5319270000000 1.0
C      1  0.5551710000000  0.5003110000000  0.5234290000000 1.0
C      1  0.5291960000000  0.4628320000000  0.5282200000000 1.0
C      1  0.4863290000000  0.4528100000000  0.5290830000000 1.0
C      1  0.4598480000000  0.4862130000000  0.5310600000000 1.0
C      1  0.4107710000000  0.4933910000000  0.5023870000000 1.0
C      1  0.4484760000000  0.5741790000000  0.5182300000000 1.0
C      1  0.5184730000000  0.5755840000000  0.5009500000000 1.0
C      1  0.5798810000000  0.5323170000000  0.5246650000000 1.0
C      1  0.5763980000000  0.4579070000000  0.5155930000000 1.0
C      1  0.5193200000000  0.4228460000000  0.5010430000000 1.0
C      1  0.4455730000000  0.4343820000000  0.5075430000000 1.0
C      1  0.5217420000000  0.5813390000000  0.4316400000000 1.0
C      1  0.5759830000000  0.5328390000000  0.4385290000000 1.0
C      1  0.5721290000000  0.4618170000000  0.4386930000000 1.0
C      1  0.5155390000000  0.4166160000000  0.4338860000000 1.0
C      1  0.4450370000000  0.4383150000000  0.4341500000000 1.0
C      1  0.4171520000000  0.4995610000000  0.4296620000000 1.0
C      1  0.4402680000000  0.5632680000000  0.4271950000000 1.0
C      1  0.4546120000000  0.4322560000000  0.4591930000000 1.0
C      1  0.4242360000000  0.4879180000000  0.4771720000000 1.0
C      1  0.4423560000000  0.5567700000000  0.4673640000000 1.0
C      1  0.5115560000000  0.5866280000000  0.4569710000000 1.0
C      1  0.5672930000000  0.5395990000000  0.4650430000000 1.0
C      1  0.5717370000000  0.4712090000000  0.4663660000000 1.0
C      1  0.5260210000000  0.4195640000000  0.4602730000000 1.0
C      1  0.4822040000000  0.5283770000000  0.4536920000000 1.0
C      1  0.5072220000000  0.5351010000000  0.4675820000000 1.0
C      1  0.5285980000000  0.5110170000000  0.4556690000000 1.0
C      1  0.5270560000000  0.4810670000000  0.4606680000000 1.0
C      1  0.5047960000000  0.4642730000000  0.4624270000000 1.0
C      1  0.4810680000000  0.4782230000000  0.4532560000000 1.0
C      1  0.4729910000000  0.5031010000000  0.4639730000000 1.0
C      1  0.5843610000000  0.4865440000000  0.5224280000000 1.0
C      1  0.5421040000000  0.4191220000000  0.5198290000000 1.0
C      1  0.4674980000000  0.4244820000000  0.5238450000000 1.0
C      1  0.4065380000000  0.4759260000000  0.5239580000000 1.0
C      1  0.4303550000000  0.5521530000000  0.5239690000000 1.0
C      1  0.4975800000000  0.5821200000000  0.5206120000000 1.0
C      1  0.5600600000000  0.5545220000000  0.5246840000000 1.0
C      1  0.5034010000000  0.3992430000000  0.5004000000000 1.0
C      1  0.4216080000000  0.4316960000000  0.5212710000000 1.0
C      1  0.3983390000000  0.5181730000000  0.5033370000000 1.0
C      1  0.4526430000000  0.5936020000000  0.4995320000000 1.0
C      1  0.5410040000000  0.5917870000000  0.5010070000000 1.0
C      1  0.5999680000000  0.5264800000000  0.5045220000000 1.0
C      1  0.5850170000000  0.4372650000000  0.4974790000000 1.0
C      1  0.5544510000000  0.4235460000000  0.4554160000000 1.0
C      1  0.4752730000000  0.4133100000000  0.4586900000000 1.0
C      1  0.4167080000000  0.4787880000000  0.4492490000000 1.0
C      1  0.4220080000000  0.5566890000000  0.4480820000000 1.0
C      1  0.4840230000000  0.5961340000000  0.4567440000000 1.0
C      1  0.5590260000000  0.5669180000000  0.4596880000000 1.0
C      1  0.5884070000000  0.4945130000000  0.4614250000000 1.0
END
