TITL C-2441156-4686-943 0.0865785042884423 125000 -26378.6822220188 0 0 192 (C1) n - 1
REM
REM in /home/bkarasulu/work/CARBON/AIRSS/Generating-Clusters/ReaxFF-fromJPCA2015/Units_Real/with-SteepDescent/Higher-Symm
REM
REM
REM
REM
REM
REM ./C.cell (1df0a924f5614ab8850e4351716899ee)
REM
REM compiler GCC version 9.2.1 20190827 (Red Hat 9.2.1-1)
REM options -cpp -mtune=generic -march=x86-64 -g -O0 -fpre-include=/usr/include/finclude/math-vector-fortran.h
REM seed -1034151878 -1951826645 797251276 2134675078 1158342738 -1902286759 1980781282 -2019707417 -1751922102 -1911534635 -334551572 762260683 -990298560 -275698716 -213718374 -1703646262 2041832065 742416853 -1413005404 1306348229 1496958669 2056567414 605524942 230204479 -921606852 -20793320 -1753738928 71373463 -533203465 804390517 -732701324 1458389719 -1845938075
REM
CELL 1.54180   50.00000   50.00000   50.00000   90.00000   90.00000   90.00000
LATT -1
SFAC C  
C      1  0.4309040000000  0.4796790000000  0.4219670000000 1.0
C      1  0.4609870000000  0.5613700000000  0.4196780000000 1.0
C      1  0.5467700000000  0.5538700000000  0.4167920000000 1.0
C      1  0.5703220000000  0.4930340000000  0.4163200000000 1.0
C      1  0.4937430000000  0.4279600000000  0.4207120000000 1.0
C      1  0.5383150000000  0.5196940000000  0.4425320000000 1.0
C      1  0.5340160000000  0.4704010000000  0.4418620000000 1.0
C      1  0.4777240000000  0.4634850000000  0.4460280000000 1.0
C      1  0.4582510000000  0.5065490000000  0.4454460000000 1.0
C      1  0.4924800000000  0.5443720000000  0.4447790000000 1.0
C      1  0.4765660000000  0.5075500000000  0.4228520000000 1.0
C      1  0.4986950000000  0.5263050000000  0.4233760000000 1.0
C      1  0.5214970000000  0.5102040000000  0.4214310000000 1.0
C      1  0.5168590000000  0.4812630000000  0.4211720000000 1.0
C      1  0.4883260000000  0.4808650000000  0.4256750000000 1.0
C      1  0.4199600000000  0.5646680000000  0.5489780000000 1.0
C      1  0.5374310000000  0.5996270000000  0.5604570000000 1.0
C      1  0.6024090000000  0.4961610000000  0.5533180000000 1.0
C      1  0.5232850000000  0.4006650000000  0.5510380000000 1.0
C      1  0.4104100000000  0.4467950000000  0.5446850000000 1.0
C      1  0.4677340000000  0.4035210000000  0.5199800000000 1.0
C      1  0.3904420000000  0.5034870000000  0.5222980000000 1.0
C      1  0.4782590000000  0.5972500000000  0.5260380000000 1.0
C      1  0.5821500000000  0.5634950000000  0.5182970000000 1.0
C      1  0.5810730000000  0.4334180000000  0.5226620000000 1.0
C      1  0.4586950000000  0.4452450000000  0.4884620000000 1.0
C      1  0.4280470000000  0.5064260000000  0.4856030000000 1.0
C      1  0.5003210000000  0.5690890000000  0.4873600000000 1.0
C      1  0.5675200000000  0.5196260000000  0.4868530000000 1.0
C      1  0.5413630000000  0.4450510000000  0.4878390000000 1.0
C      1  0.5749840000000  0.5008930000000  0.5058080000000 1.0
C      1  0.5261690000000  0.4312270000000  0.5083160000000 1.0
C      1  0.4413030000000  0.4562160000000  0.5092260000000 1.0
C      1  0.4449830000000  0.5389320000000  0.5002520000000 1.0
C      1  0.5226990000000  0.5666850000000  0.5064760000000 1.0
C      1  0.4787250000000  0.6146990000000  0.5002440000000 1.0
C      1  0.6023020000000  0.5669100000000  0.4956210000000 1.0
C      1  0.5928530000000  0.4252480000000  0.4944010000000 1.0
C      1  0.4584530000000  0.3876170000000  0.4991920000000 1.0
C      1  0.3772030000000  0.5076870000000  0.4963650000000 1.0
C      1  0.4479320000000  0.5366980000000  0.5291130000000 1.0
C      1  0.5177580000000  0.5601530000000  0.5350560000000 1.0
C      1  0.5638290000000  0.5000970000000  0.5294270000000 1.0
C      1  0.5192150000000  0.4416180000000  0.5333400000000 1.0
C      1  0.4500680000000  0.4678180000000  0.5331540000000 1.0
C      1  0.4719490000000  0.5530200000000  0.5296660000000 1.0
C      1  0.5412590000000  0.5376850000000  0.5476980000000 1.0
C      1  0.5523860000000  0.4728840000000  0.5306490000000 1.0
C      1  0.4910960000000  0.4448000000000  0.5330380000000 1.0
C      1  0.4365750000000  0.4927810000000  0.5361450000000 1.0
C      1  0.5345030000000  0.6105050000000  0.5085560000000 1.0
C      1  0.6176670000000  0.5184670000000  0.5101650000000 1.0
C      1  0.5531090000000  0.3978610000000  0.5110980000000 1.0
C      1  0.4198350000000  0.4177870000000  0.5110180000000 1.0
C      1  0.3984780000000  0.5534310000000  0.5064340000000 1.0
C      1  0.6151360000000  0.5227940000000  0.4678980000000 1.0
C      1  0.5558810000000  0.4008940000000  0.4686540000000 1.0
C      1  0.4243940000000  0.4150440000000  0.4684420000000 1.0
C      1  0.3954720000000  0.5487580000000  0.4639850000000 1.0
C      1  0.5170110000000  0.6119840000000  0.4701350000000 1.0
C      1  0.5913550000000  0.4517410000000  0.5460110000000 1.0
C      1  0.4827540000000  0.3961420000000  0.5428260000000 1.0
C      1  0.3920800000000  0.4849900000000  0.5443450000000 1.0
C      1  0.4549780000000  0.5918820000000  0.5456810000000 1.0
C      1  0.5686770000000  0.5779800000000  0.5399460000000 1.0
C      1  0.4349130000000  0.5800900000000  0.5294180000000 1.0
C      1  0.5484220000000  0.5991350000000  0.5341300000000 1.0
C      1  0.6020040000000  0.4744880000000  0.5330100000000 1.0
C      1  0.5081520000000  0.3945400000000  0.5286140000000 1.0
C      1  0.3955050000000  0.4621670000000  0.5271150000000 1.0
C      1  0.4499790000000  0.4260240000000  0.5622540000000 1.0
C      1  0.4222400000000  0.5208360000000  0.5699500000000 1.0
C      1  0.4966130000000  0.5875820000000  0.5692340000000 1.0
C      1  0.5653680000000  0.5336070000000  0.5625920000000 1.0
C      1  0.5525100000000  0.4297720000000  0.5594650000000 1.0
C      1  0.5802850000000  0.4507740000000  0.4451990000000 1.0
C      1  0.4717440000000  0.4118570000000  0.4529340000000 1.0
C      1  0.4117500000000  0.5032630000000  0.4614100000000 1.0
C      1  0.4688680000000  0.5885910000000  0.4509730000000 1.0
C      1  0.5766810000000  0.5571890000000  0.4466910000000 1.0
C      1  0.5395570000000  0.5122180000000  0.5918330000000 1.0
C      1  0.5148570000000  0.4758700000000  0.6007690000000 1.0
C      1  0.4750850000000  0.4678050000000  0.6066130000000 1.0
C      1  0.4721110000000  0.5088250000000  0.6029880000000 1.0
C      1  0.5037370000000  0.5342740000000  0.5958800000000 1.0
C      1  0.4879780000000  0.4786730000000  0.4664240000000 1.0
C      1  0.4758790000000  0.5071490000000  0.4672480000000 1.0
C      1  0.4984830000000  0.5265890000000  0.4656340000000 1.0
C      1  0.5248280000000  0.5105100000000  0.4645540000000 1.0
C      1  0.5186350000000  0.4800240000000  0.4642750000000 1.0
C      1  0.5587950000000  0.4161540000000  0.5338520000000 1.0
C      1  0.4261300000000  0.4252300000000  0.5400000000000 1.0
C      1  0.4140620000000  0.5449250000000  0.5293750000000 1.0
C      1  0.5032500000000  0.5869390000000  0.5416000000000 1.0
C      1  0.6000710000000  0.5153560000000  0.5326280000000 1.0
C      1  0.3839260000000  0.5351770000000  0.4886920000000 1.0
C      1  0.5075520000000  0.6185950000000  0.4979190000000 1.0
C      1  0.6168250000000  0.5413470000000  0.4912090000000 1.0
C      1  0.5749200000000  0.4020400000000  0.4918270000000 1.0
C      1  0.4321730000000  0.3985670000000  0.4933940000000 1.0
C      1  0.5352800000000  0.4312180000000  0.4243170000000 1.0
C      1  0.4478450000000  0.4417560000000  0.4260910000000 1.0
C      1  0.4306420000000  0.5318180000000  0.4262670000000 1.0
C      1  0.5078010000000  0.5768470000000  0.4267060000000 1.0
C      1  0.5826560000000  0.5152290000000  0.4302880000000 1.0
C      1  0.4378850000000  0.4481150000000  0.5737890000000 1.0
C      1  0.4313020000000  0.5470000000000  0.5723250000000 1.0
C      1  0.5246750000000  0.5858090000000  0.5820190000000 1.0
C      1  0.5786140000000  0.5058990000000  0.5688030000000 1.0
C      1  0.5272140000000  0.4192070000000  0.5719010000000 1.0
C      1  0.5437880000000  0.5639380000000  0.5844020000000 1.0
C      1  0.5650160000000  0.4810320000000  0.5767530000000 1.0
C      1  0.4997200000000  0.4295090000000  0.5783300000000 1.0
C      1  0.4331070000000  0.4749590000000  0.5814410000000 1.0
C      1  0.4584340000000  0.5553150000000  0.5807170000000 1.0
C      1  0.4663170000000  0.5580560000000  0.4493920000000 1.0
C      1  0.5447440000000  0.5479200000000  0.4456320000000 1.0
C      1  0.5626020000000  0.4740410000000  0.4389130000000 1.0
C      1  0.4905110000000  0.4345940000000  0.4494810000000 1.0
C      1  0.4479620000000  0.4796660000000  0.4457980000000 1.0
C      1  0.5148650000000  0.4816140000000  0.5111780000000 1.0
C      1  0.4852640000000  0.4809610000000  0.5112090000000 1.0
C      1  0.4744530000000  0.5066540000000  0.5122380000000 1.0
C      1  0.4979170000000  0.5245470000000  0.5117790000000 1.0
C      1  0.5236780000000  0.5103950000000  0.5101380000000 1.0
C      1  0.4156650000000  0.4675840000000  0.5015400000000 1.0
C      1  0.4443990000000  0.5675110000000  0.4980350000000 1.0
C      1  0.5445850000000  0.5641260000000  0.4916000000000 1.0
C      1  0.5881850000000  0.4777780000000  0.5019360000000 1.0
C      1  0.5049350000000  0.4135290000000  0.5023920000000 1.0
C      1  0.4135410000000  0.4945670000000  0.5664810000000 1.0
C      1  0.4675710000000  0.5803030000000  0.5700540000000 1.0
C      1  0.5675820000000  0.5627390000000  0.5670330000000 1.0
C      1  0.5701960000000  0.4533800000000  0.5660870000000 1.0
C      1  0.4775560000000  0.4163450000000  0.5646200000000 1.0
C      1  0.4192460000000  0.4966710000000  0.5112410000000 1.0
C      1  0.4730370000000  0.5719370000000  0.5075770000000 1.0
C      1  0.5655140000000  0.5487100000000  0.5001170000000 1.0
C      1  0.5644900000000  0.4572570000000  0.5086820000000 1.0
C      1  0.4778530000000  0.4273540000000  0.5107650000000 1.0
C      1  0.5151380000000  0.4079270000000  0.4732300000000 1.0
C      1  0.4156680000000  0.4551270000000  0.4731590000000 1.0
C      1  0.4320580000000  0.5691450000000  0.4689440000000 1.0
C      1  0.5434890000000  0.5803620000000  0.4688390000000 1.0
C      1  0.5999130000000  0.4844580000000  0.4741310000000 1.0
C      1  0.5768760000000  0.5423120000000  0.4210940000000 1.0
C      1  0.5625160000000  0.4338500000000  0.4303800000000 1.0
C      1  0.4654210000000  0.4193690000000  0.4215530000000 1.0
C      1  0.4188620000000  0.5057040000000  0.4312610000000 1.0
C      1  0.4800240000000  0.5849140000000  0.4220500000000 1.0
C      1  0.4974480000000  0.5404250000000  0.4883900000000 1.0
C      1  0.5387840000000  0.5147770000000  0.4868380000000 1.0
C      1  0.5259200000000  0.4691830000000  0.4880250000000 1.0
C      1  0.4779220000000  0.4666300000000  0.4884520000000 1.0
C      1  0.4565870000000  0.5134950000000  0.4896480000000 1.0
C      1  0.5031430000000  0.5313420000000  0.3949030000000 1.0
C      1  0.5247030000000  0.5082300000000  0.3906020000000 1.0
C      1  0.5065920000000  0.4677410000000  0.3943560000000 1.0
C      1  0.4788680000000  0.4774700000000  0.3970960000000 1.0
C      1  0.4740750000000  0.5189120000000  0.3950480000000 1.0
C      1  0.5146090000000  0.4413300000000  0.4052080000000 1.0
C      1  0.4522400000000  0.4643140000000  0.4071030000000 1.0
C      1  0.4532860000000  0.5366670000000  0.4058200000000 1.0
C      1  0.5192260000000  0.5566650000000  0.4084150000000 1.0
C      1  0.5498830000000  0.4998010000000  0.3975160000000 1.0
C      1  0.4702630000000  0.3893490000000  0.4716760000000 1.0
C      1  0.3853350000000  0.4937050000000  0.4705270000000 1.0
C      1  0.4677610000000  0.6066300000000  0.4743680000000 1.0
C      1  0.5920360000000  0.5702250000000  0.4676840000000 1.0
C      1  0.5939990000000  0.4437000000000  0.4717650000000 1.0
C      1  0.6214610000000  0.5002780000000  0.4853790000000 1.0
C      1  0.5353400000000  0.3914700000000  0.4872500000000 1.0
C      1  0.4070440000000  0.4306210000000  0.4863820000000 1.0
C      1  0.4058400000000  0.5698240000000  0.4817700000000 1.0
C      1  0.5442410000000  0.6080450000000  0.4812080000000 1.0
C      1  0.4785540000000  0.4706440000000  0.5397860000000 1.0
C      1  0.4599350000000  0.5104560000000  0.5373040000000 1.0
C      1  0.4956440000000  0.5391580000000  0.5373910000000 1.0
C      1  0.5409180000000  0.5160480000000  0.5320550000000 1.0
C      1  0.5242590000000  0.4695160000000  0.5367980000000 1.0
C      1  0.4216540000000  0.5487870000000  0.4495760000000 1.0
C      1  0.5151810000000  0.5842020000000  0.4592720000000 1.0
C      1  0.5890170000000  0.5097340000000  0.4596700000000 1.0
C      1  0.5370710000000  0.4233330000000  0.4603560000000 1.0
C      1  0.4377030000000  0.4403830000000  0.4596570000000 1.0
C      1  0.5309830000000  0.5378600000000  0.5958140000000 1.0
C      1  0.5388430000000  0.4863950000000  0.5899780000000 1.0
C      1  0.4978990000000  0.4541740000000  0.5933290000000 1.0
C      1  0.4558100000000  0.4861380000000  0.5945040000000 1.0
C      1  0.4766250000000  0.5362470000000  0.5943890000000 1.0
C      1  0.4926180000000  0.4902250000000  0.6125880000000 1.0
C      1  0.4884880000000  0.5026650000000  0.5503800000000 1.0
END
