TITL C-2441167-4473-1385 0.0146530703716028 125000 -17141.1492902954 0 0 117 (C1) n - 1
REM
REM in /home/bkarasulu/work/CARBON/AIRSS/Generating-Clusters/ReaxFF-fromJPCA2015/Units_Real/with-SteepDescent/Higher-Symm
REM
REM
REM
REM
REM
REM ./C.cell (1df0a924f5614ab8850e4351716899ee)
REM
REM compiler GCC version 9.2.1 20190827 (Red Hat 9.2.1-1)
REM options -cpp -mtune=generic -march=x86-64 -g -O0 -fpre-include=/usr/include/finclude/math-vector-fortran.h
REM seed -1995506952 -637900736 261341527 109929456 -267289348 1961162537 -706562666 1643516016 1822979224 2063926461 -1874603982 -359239979 -146734801 -509869032 1527713639 931727264 -498777307 530780216 -1126878452 -802112460 825800805 -2132337694 1444474047 1975627642 923617589 2074249083 381434718 1155491069 -1746732031 1382629506 -3862890 1630032075 1223511012
REM
CELL 1.54180   50.00000   50.00000   50.00000   90.00000   90.00000   90.00000
LATT -1
SFAC C  
C      1  0.5136500000000  0.4619280000000  0.4199450000000 1.0
C      1  0.4855950000000  0.5348000000000  0.4196470000000 1.0
C      1  0.5150760000000  0.5348690000000  0.4191380000000 1.0
C      1  0.4842620000000  0.4626220000000  0.4210710000000 1.0
C      1  0.5262570000000  0.5536600000000  0.4633210000000 1.0
C      1  0.4732020000000  0.4434410000000  0.4660490000000 1.0
C      1  0.5277740000000  0.4413910000000  0.4622130000000 1.0
C      1  0.4752510000000  0.5533830000000  0.4635000000000 1.0
C      1  0.4856260000000  0.4248120000000  0.5461080000000 1.0
C      1  0.5127340000000  0.5735900000000  0.5462710000000 1.0
C      1  0.4822750000000  0.5756630000000  0.5519860000000 1.0
C      1  0.5149150000000  0.4248550000000  0.5454940000000 1.0
C      1  0.5737950000000  0.5642510000000  0.5209240000000 1.0
C      1  0.4267310000000  0.4355260000000  0.5161520000000 1.0
C      1  0.5755260000000  0.4321450000000  0.5139530000000 1.0
C      1  0.4287340000000  0.5635860000000  0.5167390000000 1.0
C      1  0.4659480000000  0.5153850000000  0.5927290000000 1.0
C      1  0.5376030000000  0.4855360000000  0.5866970000000 1.0
C      1  0.4623700000000  0.4863140000000  0.5893140000000 1.0
C      1  0.5376170000000  0.5148750000000  0.5901890000000 1.0
C      1  0.4228350000000  0.4386640000000  0.4695090000000 1.0
C      1  0.5729510000000  0.5587110000000  0.4706160000000 1.0
C      1  0.4361740000000  0.5741790000000  0.4708340000000 1.0
C      1  0.5793130000000  0.4386860000000  0.4720360000000 1.0
C      1  0.4237910000000  0.5153170000000  0.5162850000000 1.0
C      1  0.5796280000000  0.4855260000000  0.5217060000000 1.0
C      1  0.4225500000000  0.4859310000000  0.5159960000000 1.0
C      1  0.5731910000000  0.5145560000000  0.5216000000000 1.0
C      1  0.5145520000000  0.4261370000000  0.4907860000000 1.0
C      1  0.4849330000000  0.5695890000000  0.4866580000000 1.0
C      1  0.5124720000000  0.5701200000000  0.4896710000000 1.0
C      1  0.4862430000000  0.4251010000000  0.4927290000000 1.0
C      1  0.4467070000000  0.4134030000000  0.5117430000000 1.0
C      1  0.5504040000000  0.5827930000000  0.5127080000000 1.0
C      1  0.4467670000000  0.5879930000000  0.5134710000000 1.0
C      1  0.5528180000000  0.4118980000000  0.5108690000000 1.0
C      1  0.5578360000000  0.4433420000000  0.4543800000000 1.0
C      1  0.4469150000000  0.5563550000000  0.4510670000000 1.0
C      1  0.5542660000000  0.5556940000000  0.4506650000000 1.0
C      1  0.4446200000000  0.4430420000000  0.4525450000000 1.0
C      1  0.4822480000000  0.5980000000000  0.4843150000000 1.0
C      1  0.5137650000000  0.3990730000000  0.4781610000000 1.0
C      1  0.4836290000000  0.3957650000000  0.4821950000000 1.0
C      1  0.5125090000000  0.5983400000000  0.4786760000000 1.0
C      1  0.4207550000000  0.5574460000000  0.4900690000000 1.0
C      1  0.5920210000000  0.4344680000000  0.4910760000000 1.0
C      1  0.4096310000000  0.4436970000000  0.4936960000000 1.0
C      1  0.5814620000000  0.5594010000000  0.4952120000000 1.0
C      1  0.4505250000000  0.4850210000000  0.4267260000000 1.0
C      1  0.5490360000000  0.5123040000000  0.4252790000000 1.0
C      1  0.4503890000000  0.5143090000000  0.4263940000000 1.0
C      1  0.5482480000000  0.4827950000000  0.4258080000000 1.0
C      1  0.4814360000000  0.4886550000000  0.5476330000000 1.0
C      1  0.5199040000000  0.5161060000000  0.5480640000000 1.0
C      1  0.4767920000000  0.5153750000000  0.5466040000000 1.0
C      1  0.5267430000000  0.4877380000000  0.5466090000000 1.0
C      1  0.5554390000000  0.5463010000000  0.5598710000000 1.0
C      1  0.4619900000000  0.4554770000000  0.5337370000000 1.0
C      1  0.5529890000000  0.4505000000000  0.5500380000000 1.0
C      1  0.4425660000000  0.5418610000000  0.5595750000000 1.0
C      1  0.4308250000000  0.5392230000000  0.5330190000000 1.0
C      1  0.5719190000000  0.4567770000000  0.5315650000000 1.0
C      1  0.4341090000000  0.4608330000000  0.5285910000000 1.0
C      1  0.5734380000000  0.5402490000000  0.5380990000000 1.0
C      1  0.5173890000000  0.4784240000000  0.5198360000000 1.0
C      1  0.4812740000000  0.5264350000000  0.5201140000000 1.0
C      1  0.5108350000000  0.5263900000000  0.5227540000000 1.0
C      1  0.4840280000000  0.4733530000000  0.5216270000000 1.0
C      1  0.4129970000000  0.4738570000000  0.4912340000000 1.0
C      1  0.5846390000000  0.5174320000000  0.4939830000000 1.0
C      1  0.4182590000000  0.5280660000000  0.4905410000000 1.0
C      1  0.5884820000000  0.4875690000000  0.4942180000000 1.0
C      1  0.5651890000000  0.4851880000000  0.4720480000000 1.0
C      1  0.4217160000000  0.5147610000000  0.4648840000000 1.0
C      1  0.5718490000000  0.5143600000000  0.4672020000000 1.0
C      1  0.4207840000000  0.4857420000000  0.4654380000000 1.0
C      1  0.5654440000000  0.4695110000000  0.4453160000000 1.0
C      1  0.4341010000000  0.5310460000000  0.4437480000000 1.0
C      1  0.5657720000000  0.5289690000000  0.4428170000000 1.0
C      1  0.4326820000000  0.4696230000000  0.4439400000000 1.0
C      1  0.5168110000000  0.5313280000000  0.5736820000000 1.0
C      1  0.4838850000000  0.4701920000000  0.5713700000000 1.0
C      1  0.5168820000000  0.4682730000000  0.5738880000000 1.0
C      1  0.4823860000000  0.5307940000000  0.5744260000000 1.0
C      1  0.4365020000000  0.4912580000000  0.5782310000000 1.0
C      1  0.5597110000000  0.5178350000000  0.5713370000000 1.0
C      1  0.4391080000000  0.5201470000000  0.5805570000000 1.0
C      1  0.5548910000000  0.4894170000000  0.5632170000000 1.0
C      1  0.4570240000000  0.3978740000000  0.4898120000000 1.0
C      1  0.5402960000000  0.5996720000000  0.4893860000000 1.0
C      1  0.4532650000000  0.5947970000000  0.4840220000000 1.0
C      1  0.5417050000000  0.3955550000000  0.4876560000000 1.0
C      1  0.5357890000000  0.4825040000000  0.4869820000000 1.0
C      1  0.4743830000000  0.5135400000000  0.4946930000000 1.0
C      1  0.5279320000000  0.5104160000000  0.4897990000000 1.0
C      1  0.4750950000000  0.4852780000000  0.4948870000000 1.0
C      1  0.5173250000000  0.4698850000000  0.4676840000000 1.0
C      1  0.4850350000000  0.5244820000000  0.4683960000000 1.0
C      1  0.5160600000000  0.5243900000000  0.4669140000000 1.0
C      1  0.4841350000000  0.4718670000000  0.4702750000000 1.0
C      1  0.5150900000000  0.5595970000000  0.4358100000000 1.0
C      1  0.4838940000000  0.4383520000000  0.4386490000000 1.0
C      1  0.5129780000000  0.4372420000000  0.4362490000000 1.0
C      1  0.4858540000000  0.5597250000000  0.4352760000000 1.0
C      1  0.5265860000000  0.4205460000000  0.5191930000000 1.0
C      1  0.4661100000000  0.5845170000000  0.5318640000000 1.0
C      1  0.5231490000000  0.5749640000000  0.5193960000000 1.0
C      1  0.4743450000000  0.4189180000000  0.5198700000000 1.0
C      1  0.5293860000000  0.5582290000000  0.5641280000000 1.0
C      1  0.4720660000000  0.4467230000000  0.5586030000000 1.0
C      1  0.5298000000000  0.4428620000000  0.5637760000000 1.0
C      1  0.4677850000000  0.5540970000000  0.5658420000000 1.0
C      1  0.5225010000000  0.5133210000000  0.4373580000000 1.0
C      1  0.4767100000000  0.4837070000000  0.4392460000000 1.0
C      1  0.5217910000000  0.4826790000000  0.4372190000000 1.0
C      1  0.4774200000000  0.5135390000000  0.4387200000000 1.0
C      1  0.5124700000000  0.5033960000000  0.5093950000000 1.0
END
