TITL C-2441168-9922-960 0.113319023182652 125000 -20627.8883068211 0 0 159 (C1) n - 1
REM
REM in /home/bkarasulu/work/CARBON/AIRSS/Generating-Clusters/ReaxFF-fromJPCA2015/Units_Real/with-SteepDescent/Higher-Symm
REM
REM
REM
REM
REM
REM ./C.cell (1df0a924f5614ab8850e4351716899ee)
REM
REM compiler GCC version 9.2.1 20190827 (Red Hat 9.2.1-1)
REM options -cpp -mtune=generic -march=x86-64 -g -O0 -fpre-include=/usr/include/finclude/math-vector-fortran.h
REM seed -1887931973 -802896708 440180375 -1581009360 -1630117042 -1095059730 -80210328 44873415 331602313 1000048607 -890048636 -1873897185 -175648173 1962350684 1733303193 -1244575825 1202279896 1127702310 996615322 -694931596 -1095349913 -2126971847 -721204912 709551829 -454817584 -1331907005 1383844889 17884612 460825689 -1459258551 1995787502 -482189930 787489780
REM
CELL 1.54180   50.00000   50.00000   50.00000   90.00000   90.00000   90.00000
LATT -1
SFAC C  
C      1  0.4766160000000  0.5009400000000  0.5650720000000 1.0
C      1  0.5231800000000  0.4948100000000  0.5616340000000 1.0
C      1  0.4799600000000  0.4301370000000  0.5749100000000 1.0
C      1  0.5092310000000  0.4283720000000  0.5798570000000 1.0
C      1  0.5700520000000  0.4294650000000  0.5290790000000 1.0
C      1  0.4270040000000  0.4292940000000  0.5294340000000 1.0
C      1  0.4779540000000  0.5007780000000  0.5065710000000 1.0
C      1  0.5243230000000  0.5020460000000  0.5002890000000 1.0
C      1  0.4802220000000  0.4539380000000  0.4682980000000 1.0
C      1  0.5072200000000  0.4506780000000  0.4659750000000 1.0
C      1  0.5851370000000  0.4476760000000  0.4749670000000 1.0
C      1  0.4158850000000  0.4463640000000  0.4644650000000 1.0
C      1  0.5362870000000  0.5726010000000  0.5686670000000 1.0
C      1  0.4661500000000  0.5738750000000  0.5665230000000 1.0
C      1  0.5175630000000  0.4899600000000  0.5212550000000 1.0
C      1  0.4723520000000  0.4778390000000  0.5270200000000 1.0
C      1  0.4863880000000  0.4432420000000  0.4299620000000 1.0
C      1  0.5130830000000  0.4413540000000  0.4407810000000 1.0
C      1  0.5531110000000  0.4983920000000  0.4042860000000 1.0
C      1  0.4486120000000  0.5051990000000  0.4085830000000 1.0
C      1  0.5185970000000  0.4871190000000  0.4785220000000 1.0
C      1  0.4896290000000  0.4929730000000  0.4815770000000 1.0
C      1  0.4851930000000  0.5627250000000  0.4234710000000 1.0
C      1  0.5140230000000  0.5650870000000  0.4133670000000 1.0
C      1  0.4505930000000  0.4200620000000  0.4576570000000 1.0
C      1  0.5543550000000  0.4176630000000  0.4558560000000 1.0
C      1  0.4178230000000  0.5456860000000  0.4561870000000 1.0
C      1  0.5844490000000  0.5461070000000  0.4554920000000 1.0
C      1  0.5182410000000  0.5584560000000  0.5253780000000 1.0
C      1  0.4892630000000  0.5570460000000  0.5232050000000 1.0
C      1  0.5464600000000  0.5763770000000  0.4659020000000 1.0
C      1  0.4522490000000  0.5741110000000  0.4645120000000 1.0
C      1  0.5350290000000  0.4247020000000  0.4369820000000 1.0
C      1  0.4666190000000  0.4231670000000  0.4358700000000 1.0
C      1  0.5625110000000  0.4588610000000  0.5719500000000 1.0
C      1  0.4444510000000  0.4402440000000  0.5524680000000 1.0
C      1  0.5522670000000  0.5192010000000  0.4754400000000 1.0
C      1  0.4464310000000  0.5179710000000  0.4829340000000 1.0
C      1  0.5612630000000  0.5628500000000  0.4436270000000 1.0
C      1  0.4403160000000  0.5593180000000  0.4430790000000 1.0
C      1  0.4817390000000  0.4686800000000  0.4144850000000 1.0
C      1  0.5157220000000  0.4787610000000  0.4108420000000 1.0
C      1  0.4787950000000  0.5315140000000  0.5021500000000 1.0
C      1  0.5194280000000  0.5286400000000  0.4956500000000 1.0
C      1  0.5549290000000  0.5187880000000  0.4238810000000 1.0
C      1  0.4414980000000  0.5118790000000  0.4358280000000 1.0
C      1  0.5663220000000  0.4794470000000  0.5352500000000 1.0
C      1  0.4309090000000  0.4779270000000  0.5465780000000 1.0
C      1  0.5602410000000  0.5249960000000  0.5747550000000 1.0
C      1  0.4387060000000  0.5309560000000  0.5779580000000 1.0
C      1  0.4142210000000  0.4504090000000  0.5157900000000 1.0
C      1  0.5920690000000  0.4458370000000  0.5224870000000 1.0
C      1  0.5401140000000  0.5671780000000  0.4260770000000 1.0
C      1  0.4570640000000  0.5561690000000  0.4186990000000 1.0
C      1  0.5433400000000  0.4716710000000  0.5896970000000 1.0
C      1  0.4518860000000  0.4752830000000  0.5895510000000 1.0
C      1  0.4826780000000  0.3950080000000  0.4790860000000 1.0
C      1  0.5157210000000  0.3971510000000  0.4788710000000 1.0
C      1  0.4854310000000  0.4232000000000  0.5470340000000 1.0
C      1  0.5145440000000  0.4203050000000  0.5523790000000 1.0
C      1  0.5176260000000  0.5400020000000  0.5838850000000 1.0
C      1  0.4881830000000  0.5380230000000  0.5789680000000 1.0
C      1  0.5938780000000  0.5389650000000  0.5047640000000 1.0
C      1  0.4073620000000  0.5378580000000  0.5039280000000 1.0
C      1  0.4267900000000  0.4568630000000  0.4411300000000 1.0
C      1  0.5786370000000  0.4594870000000  0.4495270000000 1.0
C      1  0.4706100000000  0.4009410000000  0.4540360000000 1.0
C      1  0.5315170000000  0.4017520000000  0.4543940000000 1.0
C      1  0.5144740000000  0.5114970000000  0.5405250000000 1.0
C      1  0.4836510000000  0.5229060000000  0.5477050000000 1.0
C      1  0.5158650000000  0.5743690000000  0.4951360000000 1.0
C      1  0.4873330000000  0.5757200000000  0.4939650000000 1.0
C      1  0.4630590000000  0.4630620000000  0.4866880000000 1.0
C      1  0.5246190000000  0.4545070000000  0.4909680000000 1.0
C      1  0.4903400000000  0.5340140000000  0.4227270000000 1.0
C      1  0.5152220000000  0.5361540000000  0.4140940000000 1.0
C      1  0.5150550000000  0.6037660000000  0.5025860000000 1.0
C      1  0.4863370000000  0.6036040000000  0.5018740000000 1.0
C      1  0.5200880000000  0.5643600000000  0.4672240000000 1.0
C      1  0.4792720000000  0.5649500000000  0.4687880000000 1.0
C      1  0.4297230000000  0.5646340000000  0.5376390000000 1.0
C      1  0.5702580000000  0.5641430000000  0.5395030000000 1.0
C      1  0.4564960000000  0.5218220000000  0.5339400000000 1.0
C      1  0.5421250000000  0.5285750000000  0.5303850000000 1.0
C      1  0.4656820000000  0.5973960000000  0.5215850000000 1.0
C      1  0.5351360000000  0.5984110000000  0.5228760000000 1.0
C      1  0.4057570000000  0.5177320000000  0.4548140000000 1.0
C      1  0.5979900000000  0.5204600000000  0.4500470000000 1.0
C      1  0.4489010000000  0.4620570000000  0.5332350000000 1.0
C      1  0.5560110000000  0.4518780000000  0.5433550000000 1.0
C      1  0.4656260000000  0.4045260000000  0.5000990000000 1.0
C      1  0.5321870000000  0.4038520000000  0.5039130000000 1.0
C      1  0.5108760000000  0.5347340000000  0.4669680000000 1.0
C      1  0.4817670000000  0.5364340000000  0.4727790000000 1.0
C      1  0.6026850000000  0.4906780000000  0.4970480000000 1.0
C      1  0.4016290000000  0.4863400000000  0.5000820000000 1.0
C      1  0.5136480000000  0.4952740000000  0.4336500000000 1.0
C      1  0.4857070000000  0.4920530000000  0.4338400000000 1.0
C      1  0.4847890000000  0.4743530000000  0.5583490000000 1.0
C      1  0.5141390000000  0.4684640000000  0.5567490000000 1.0
C      1  0.5916060000000  0.5114160000000  0.5136570000000 1.0
C      1  0.4079090000000  0.5109570000000  0.5151110000000 1.0
C      1  0.5523300000000  0.4609600000000  0.4377370000000 1.0
C      1  0.4462700000000  0.4689520000000  0.4373400000000 1.0
C      1  0.5274920000000  0.5075840000000  0.4580590000000 1.0
C      1  0.4763620000000  0.4950210000000  0.4585020000000 1.0
C      1  0.5934240000000  0.5479710000000  0.5327340000000 1.0
C      1  0.4055460000000  0.5494120000000  0.5308670000000 1.0
C      1  0.5141330000000  0.5168320000000  0.6008190000000 1.0
C      1  0.4857140000000  0.5177150000000  0.6008300000000 1.0
C      1  0.4886170000000  0.4225490000000  0.5073100000000 1.0
C      1  0.5137840000000  0.4234150000000  0.4938070000000 1.0
C      1  0.5643160000000  0.5755770000000  0.4897800000000 1.0
C      1  0.4358210000000  0.5746240000000  0.4883960000000 1.0
C      1  0.4737290000000  0.4583010000000  0.5832640000000 1.0
C      1  0.5203190000000  0.4558330000000  0.5831820000000 1.0
C      1  0.5119060000000  0.4619820000000  0.5164980000000 1.0
C      1  0.4819150000000  0.4561390000000  0.5093140000000 1.0
C      1  0.4318300000000  0.4265490000000  0.4774890000000 1.0
C      1  0.5674990000000  0.4261250000000  0.4796440000000 1.0
C      1  0.5469750000000  0.5341860000000  0.5000770000000 1.0
C      1  0.4500860000000  0.5322400000000  0.5080920000000 1.0
C      1  0.4862650000000  0.5670990000000  0.5856910000000 1.0
C      1  0.5148350000000  0.5683870000000  0.5882380000000 1.0
C      1  0.4110800000000  0.4956270000000  0.4743580000000 1.0
C      1  0.5964820000000  0.4991330000000  0.4706540000000 1.0
C      1  0.5540660000000  0.5043350000000  0.5327850000000 1.0
C      1  0.4374950000000  0.5049840000000  0.5472320000000 1.0
C      1  0.4782550000000  0.5791890000000  0.5404090000000 1.0
C      1  0.5233590000000  0.5808350000000  0.5432750000000 1.0
C      1  0.4515660000000  0.4743290000000  0.4137600000000 1.0
C      1  0.5429650000000  0.4713400000000  0.4112590000000 1.0
C      1  0.5823710000000  0.5091530000000  0.5662380000000 1.0
C      1  0.4171990000000  0.5163320000000  0.5657150000000 1.0
C      1  0.5583490000000  0.4159060000000  0.5047920000000 1.0
C      1  0.4388060000000  0.4175830000000  0.5041800000000 1.0
C      1  0.5805220000000  0.4798290000000  0.5618240000000 1.0
C      1  0.4343680000000  0.4615910000000  0.5708350000000 1.0
C      1  0.4425960000000  0.5558540000000  0.5631430000000 1.0
C      1  0.5578950000000  0.5521930000000  0.5640520000000 1.0
C      1  0.4152710000000  0.5157290000000  0.4281870000000 1.0
C      1  0.5811060000000  0.5149750000000  0.4284700000000 1.0
C      1  0.5681910000000  0.4949150000000  0.4754210000000 1.0
C      1  0.4386730000000  0.4871490000000  0.4818980000000 1.0
C      1  0.5587870000000  0.5811800000000  0.5177430000000 1.0
C      1  0.4418650000000  0.5807330000000  0.5161940000000 1.0
C      1  0.5644820000000  0.4818310000000  0.4512820000000 1.0
C      1  0.4504500000000  0.4911470000000  0.4557090000000 1.0
C      1  0.5957910000000  0.4613320000000  0.4988900000000 1.0
C      1  0.4086270000000  0.4584450000000  0.4922300000000 1.0
C      1  0.5951210000000  0.5196520000000  0.5417830000000 1.0
C      1  0.4010600000000  0.5220220000000  0.5414660000000 1.0
C      1  0.5382660000000  0.5025510000000  0.5859210000000 1.0
C      1  0.4602520000000  0.5066770000000  0.5887090000000 1.0
C      1  0.4650510000000  0.5298770000000  0.4077330000000 1.0
C      1  0.5354960000000  0.5210720000000  0.4029220000000 1.0
C      1  0.4170200000000  0.5542810000000  0.4829220000000 1.0
C      1  0.5841660000000  0.5552180000000  0.4828650000000 1.0
C      1  0.5017300000000  0.4077870000000  0.5290620000000 1.0
END
