TITL C-2441156-4686-117 0.00218098054711679 125000 -7860.20644064739 0 0 54 (C1) n - 1
REM
REM in /home/bkarasulu/work/CARBON/AIRSS/Generating-Clusters/ReaxFF-fromJPCA2015/Units_Real/with-SteepDescent/Higher-Symm
REM
REM
REM
REM
REM
REM ./C.cell (1df0a924f5614ab8850e4351716899ee)
REM
REM compiler GCC version 9.2.1 20190827 (Red Hat 9.2.1-1)
REM options -cpp -mtune=generic -march=x86-64 -g -O0 -fpre-include=/usr/include/finclude/math-vector-fortran.h
REM seed -852052137 851055111 1020482064 1310998366 -2105359075 119560 1877937928 842877239 -315728193 1333684474 1615062146 1504587740 115116379 1457455355 -2129833632 485155830 2142544140 1189330451 1166020010 -12769118 1448708432 -1709368993 -916330386 1334754919 -956703070 -1535882262 -1088219559 1016942855 1274017073 -413914080 2079187525 1843435760 -1781727554
REM
CELL 1.54180   50.00000   50.00000   50.00000   90.00000   90.00000   90.00000
LATT -1
SFAC C  
C      1  0.5013520000000  0.5721230000000  0.5236160000000 1.0
C      1  0.4920070000000  0.5639090000000  0.4751520000000 1.0
C      1  0.4942020000000  0.5308110000000  0.4392070000000 1.0
C      1  0.5032410000000  0.4844170000000  0.4254780000000 1.0
C      1  0.4934960000000  0.4496150000000  0.4587340000000 1.0
C      1  0.5010880000000  0.4258160000000  0.5030540000000 1.0
C      1  0.5020640000000  0.4434740000000  0.5515360000000 1.0
C      1  0.4934900000000  0.4896010000000  0.5675260000000 1.0
C      1  0.5007190000000  0.5397100000000  0.5635970000000 1.0
C      1  0.5465970000000  0.4567540000000  0.5393890000000 1.0
C      1  0.5471600000000  0.4919620000000  0.5586350000000 1.0
C      1  0.5463440000000  0.5310770000000  0.5495710000000 1.0
C      1  0.5464890000000  0.5557450000000  0.5178330000000 1.0
C      1  0.5471040000000  0.5548770000000  0.4777880000000 1.0
C      1  0.5470170000000  0.5276230000000  0.4484450000000 1.0
C      1  0.5472540000000  0.4879080000000  0.4428870000000 1.0
C      1  0.5471960000000  0.4537640000000  0.4638930000000 1.0
C      1  0.5463990000000  0.4416180000000  0.5021960000000 1.0
C      1  0.5066580000000  0.4298340000000  0.4765890000000 1.0
C      1  0.5084800000000  0.4262100000000  0.5303060000000 1.0
C      1  0.5080940000000  0.4641800000000  0.5686040000000 1.0
C      1  0.5068960000000  0.5150140000000  0.5738760000000 1.0
C      1  0.5082840000000  0.5627580000000  0.5492170000000 1.0
C      1  0.5074330000000  0.5761800000000  0.4972520000000 1.0
C      1  0.5061500000000  0.5536480000000  0.4523180000000 1.0
C      1  0.5093480000000  0.5108230000000  0.4228760000000 1.0
C      1  0.5084180000000  0.4593700000000  0.4351440000000 1.0
C      1  0.5378970000000  0.5678910000000  0.4973400000000 1.0
C      1  0.5367740000000  0.5502390000000  0.4550100000000 1.0
C      1  0.5389590000000  0.5096690000000  0.4325910000000 1.0
C      1  0.5385530000000  0.4639030000000  0.4424930000000 1.0
C      1  0.5374370000000  0.4361200000000  0.4791290000000 1.0
C      1  0.5382950000000  0.4375250000000  0.5255680000000 1.0
C      1  0.5383450000000  0.4684120000000  0.5603590000000 1.0
C      1  0.5375910000000  0.5140060000000  0.5661350000000 1.0
C      1  0.5381040000000  0.5532970000000  0.5414350000000 1.0
C      1  0.4392720000000  0.5409850000000  0.5154400000000 1.0
C      1  0.4399470000000  0.5429320000000  0.4854490000000 1.0
C      1  0.4351560000000  0.5204420000000  0.4705440000000 1.0
C      1  0.4360580000000  0.4951450000000  0.4578970000000 1.0
C      1  0.4330250000000  0.4741400000000  0.4765860000000 1.0
C      1  0.4371010000000  0.4568860000000  0.4979680000000 1.0
C      1  0.4378820000000  0.4650620000000  0.5283180000000 1.0
C      1  0.4339670000000  0.4921040000000  0.5326220000000 1.0
C      1  0.4339360000000  0.5177660000000  0.5301490000000 1.0
C      1  0.4670930000000  0.4662900000000  0.5271210000000 1.0
C      1  0.4811060000000  0.4902260000000  0.5410180000000 1.0
C      1  0.4759180000000  0.5147860000000  0.5287590000000 1.0
C      1  0.4685840000000  0.5377360000000  0.5157940000000 1.0
C      1  0.4726430000000  0.5424950000000  0.4821920000000 1.0
C      1  0.4801410000000  0.5206850000000  0.4622120000000 1.0
C      1  0.4670410000000  0.4941260000000  0.4612270000000 1.0
C      1  0.4789620000000  0.4695840000000  0.4733250000000 1.0
C      1  0.4672320000000  0.4587260000000  0.4986000000000 1.0
END
