TITL C-2441159-1093-700 0.0775047086920015 125000 -19356.3716344893 0 0 146 (C1) n - 1
REM
REM in /home/bkarasulu/work/CARBON/AIRSS/Generating-Clusters/ReaxFF-fromJPCA2015/Units_Real/with-SteepDescent/Higher-Symm
REM
REM
REM
REM
REM
REM ./C.cell (1df0a924f5614ab8850e4351716899ee)
REM
REM compiler GCC version 9.2.1 20190827 (Red Hat 9.2.1-1)
REM options -cpp -mtune=generic -march=x86-64 -g -O0 -fpre-include=/usr/include/finclude/math-vector-fortran.h
REM seed 1549639955 962255336 713558716 1247031515 -857188402 2075131783 -193047349 -527917842 -530173839 1567034300 184601014 -1389992679 403858060 229160306 -2010438280 948309512 1304978629 1806133985 -1599594402 1452251146 -1330547086 -460869106 -742540290 -796080925 -1189023637 -1848299675 2131987189 1078791678 1320578380 -1715260944 1647568428 -572395387 1924943391
REM
CELL 1.54180   50.00000   50.00000   50.00000   90.00000   90.00000   90.00000
LATT -1
SFAC C  
C      1  0.5267570000000  0.4327540000000  0.5680480000000 1.0
C      1  0.5728220000000  0.5711320000000  0.5117350000000 1.0
C      1  0.5376940000000  0.4293350000000  0.4316120000000 1.0
C      1  0.4656940000000  0.5692600000000  0.4304350000000 1.0
C      1  0.4236990000000  0.4315620000000  0.4928560000000 1.0
C      1  0.4592940000000  0.5701880000000  0.5567840000000 1.0
C      1  0.5363840000000  0.5359620000000  0.4162400000000 1.0
C      1  0.4506550000000  0.4668970000000  0.4266240000000 1.0
C      1  0.4177700000000  0.5331420000000  0.5099790000000 1.0
C      1  0.4614820000000  0.4646700000000  0.5802230000000 1.0
C      1  0.5416700000000  0.5353110000000  0.5707640000000 1.0
C      1  0.5894930000000  0.4753610000000  0.4904220000000 1.0
C      1  0.4870370000000  0.5916370000000  0.5301470000000 1.0
C      1  0.5219020000000  0.4058160000000  0.5313120000000 1.0
C      1  0.5377990000000  0.5931710000000  0.4973840000000 1.0
C      1  0.5203040000000  0.4166740000000  0.4679550000000 1.0
C      1  0.4815960000000  0.5833630000000  0.4662770000000 1.0
C      1  0.4613960000000  0.4168320000000  0.5006360000000 1.0
C      1  0.5696390000000  0.4910910000000  0.5638020000000 1.0
C      1  0.5833280000000  0.5016350000000  0.4756140000000 1.0
C      1  0.5108440000000  0.4986340000000  0.4175360000000 1.0
C      1  0.4284760000000  0.5085560000000  0.4426610000000 1.0
C      1  0.4180030000000  0.4925720000000  0.5318200000000 1.0
C      1  0.4793200000000  0.5089590000000  0.5868550000000 1.0
C      1  0.5636080000000  0.4575060000000  0.5396620000000 1.0
C      1  0.5714530000000  0.5429680000000  0.4650230000000 1.0
C      1  0.4956380000000  0.4560360000000  0.4252900000000 1.0
C      1  0.4331400000000  0.5449720000000  0.4649770000000 1.0
C      1  0.4365340000000  0.4531640000000  0.5408760000000 1.0
C      1  0.4996680000000  0.5481290000000  0.5775080000000 1.0
C      1  0.4744260000000  0.4682390000000  0.4434540000000 1.0
C      1  0.4430820000000  0.5345270000000  0.4945230000000 1.0
C      1  0.4642490000000  0.4614060000000  0.5515990000000 1.0
C      1  0.5181710000000  0.5361810000000  0.5504770000000 1.0
C      1  0.5760410000000  0.4501820000000  0.4831260000000 1.0
C      1  0.5276670000000  0.5386160000000  0.4433490000000 1.0
C      1  0.5089020000000  0.5460130000000  0.4076000000000 1.0
C      1  0.4302560000000  0.4556810000000  0.4451270000000 1.0
C      1  0.4228490000000  0.5422730000000  0.5381060000000 1.0
C      1  0.4877890000000  0.4557580000000  0.5917070000000 1.0
C      1  0.5656480000000  0.5451940000000  0.5565630000000 1.0
C      1  0.5749410000000  0.4505120000000  0.4533060000000 1.0
C      1  0.4543340000000  0.5803600000000  0.4554610000000 1.0
C      1  0.4364490000000  0.4191760000000  0.5160890000000 1.0
C      1  0.4860350000000  0.5840400000000  0.5587400000000 1.0
C      1  0.5415870000000  0.4196060000000  0.5466130000000 1.0
C      1  0.5607570000000  0.5799540000000  0.4872720000000 1.0
C      1  0.5118660000000  0.4169970000000  0.4390400000000 1.0
C      1  0.5686460000000  0.5258640000000  0.4472850000000 1.0
C      1  0.4881060000000  0.4833020000000  0.4080740000000 1.0
C      1  0.4136590000000  0.5217760000000  0.4646030000000 1.0
C      1  0.4242730000000  0.4767850000000  0.5558530000000 1.0
C      1  0.5061090000000  0.5210430000000  0.5907660000000 1.0
C      1  0.5849270000000  0.4771330000000  0.5408850000000 1.0
C      1  0.4938170000000  0.4763370000000  0.4779510000000 1.0
C      1  0.4860900000000  0.5099250000000  0.5028830000000 1.0
C      1  0.4988150000000  0.4934060000000  0.5226930000000 1.0
C      1  0.5300020000000  0.5139400000000  0.5120020000000 1.0
C      1  0.5131770000000  0.4796640000000  0.5010700000000 1.0
C      1  0.5012030000000  0.5189260000000  0.4800430000000 1.0
C      1  0.5184270000000  0.4723160000000  0.5588350000000 1.0
C      1  0.5635490000000  0.5335780000000  0.5112070000000 1.0
C      1  0.5341080000000  0.4688380000000  0.4513710000000 1.0
C      1  0.4802240000000  0.5330650000000  0.4444050000000 1.0
C      1  0.4449640000000  0.4662640000000  0.4922930000000 1.0
C      1  0.4670920000000  0.5290200000000  0.5501460000000 1.0
C      1  0.5442890000000  0.4591150000000  0.5647560000000 1.0
C      1  0.5824490000000  0.5415940000000  0.4927720000000 1.0
C      1  0.5284170000000  0.4574290000000  0.4262910000000 1.0
C      1  0.4527260000000  0.5415910000000  0.4364470000000 1.0
C      1  0.4217620000000  0.4575010000000  0.5081930000000 1.0
C      1  0.4706340000000  0.5484870000000  0.5708000000000 1.0
C      1  0.4482730000000  0.5143440000000  0.5814620000000 1.0
C      1  0.5480440000000  0.4845930000000  0.5829140000000 1.0
C      1  0.5961090000000  0.5155370000000  0.4986700000000 1.0
C      1  0.5502140000000  0.4849430000000  0.4186220000000 1.0
C      1  0.4460110000000  0.5165460000000  0.4209460000000 1.0
C      1  0.4064830000000  0.4852970000000  0.5060630000000 1.0
C      1  0.4754440000000  0.4208030000000  0.5550760000000 1.0
C      1  0.5365230000000  0.5811930000000  0.5504170000000 1.0
C      1  0.5646000000000  0.4280740000000  0.4987310000000 1.0
C      1  0.5310240000000  0.5673190000000  0.4469390000000 1.0
C      1  0.4614500000000  0.4213520000000  0.4515850000000 1.0
C      1  0.4380110000000  0.5792770000000  0.5074100000000 1.0
C      1  0.5269540000000  0.5142560000000  0.4618160000000 1.0
C      1  0.4764590000000  0.4923170000000  0.4609220000000 1.0
C      1  0.4570020000000  0.5097040000000  0.5020570000000 1.0
C      1  0.4729890000000  0.4863870000000  0.5393210000000 1.0
C      1  0.5212870000000  0.5076740000000  0.5383620000000 1.0
C      1  0.5401780000000  0.4916720000000  0.4988760000000 1.0
C      1  0.4868920000000  0.4490430000000  0.4803950000000 1.0
C      1  0.4700260000000  0.5530520000000  0.5061820000000 1.0
C      1  0.4893480000000  0.4461510000000  0.5260900000000 1.0
C      1  0.5179960000000  0.5524070000000  0.5255510000000 1.0
C      1  0.5263150000000  0.4533230000000  0.5002610000000 1.0
C      1  0.5074190000000  0.5476820000000  0.4809070000000 1.0
C      1  0.5621760000000  0.4316920000000  0.5276600000000 1.0
C      1  0.5586810000000  0.5644590000000  0.4596350000000 1.0
C      1  0.4855570000000  0.4288010000000  0.4348720000000 1.0
C      1  0.4370240000000  0.5718780000000  0.4772500000000 1.0
C      1  0.4478390000000  0.4256540000000  0.5427220000000 1.0
C      1  0.5126470000000  0.5738300000000  0.5668020000000 1.0
C      1  0.4323270000000  0.5247770000000  0.5598570000000 1.0
C      1  0.5111970000000  0.4704250000000  0.5867140000000 1.0
C      1  0.5712760000000  0.5250680000000  0.5366430000000 1.0
C      1  0.5653210000000  0.4753810000000  0.4401030000000 1.0
C      1  0.4934160000000  0.5235760000000  0.4186330000000 1.0
C      1  0.4300000000000  0.4738830000000  0.4681560000000 1.0
C      1  0.4811190000000  0.3928200000000  0.5135590000000 1.0
C      1  0.5073210000000  0.6139110000000  0.5281780000000 1.0
C      1  0.5327400000000  0.3929540000000  0.5065580000000 1.0
C      1  0.5214630000000  0.6056310000000  0.4750310000000 1.0
C      1  0.4963980000000  0.3960180000000  0.4757860000000 1.0
C      1  0.4756310000000  0.6055450000000  0.4897640000000 1.0
C      1  0.4374780000000  0.5678370000000  0.5354820000000 1.0
C      1  0.4975280000000  0.4331540000000  0.5737410000000 1.0
C      1  0.5617410000000  0.5691040000000  0.5395320000000 1.0
C      1  0.5577590000000  0.4277810000000  0.4521630000000 1.0
C      1  0.4932450000000  0.5654720000000  0.4224200000000 1.0
C      1  0.4362570000000  0.4333350000000  0.4629170000000 1.0
C      1  0.5196620000000  0.4923530000000  0.4449440000000 1.0
C      1  0.4465440000000  0.4970490000000  0.4623450000000 1.0
C      1  0.4463860000000  0.4962020000000  0.5245250000000 1.0
C      1  0.4804170000000  0.5058640000000  0.5587710000000 1.0
C      1  0.5535780000000  0.5032400000000  0.5432500000000 1.0
C      1  0.5537540000000  0.5018470000000  0.4756890000000 1.0
C      1  0.5112320000000  0.5886330000000  0.4533990000000 1.0
C      1  0.4684040000000  0.4020450000000  0.4728890000000 1.0
C      1  0.4612090000000  0.5976050000000  0.5123550000000 1.0
C      1  0.4920060000000  0.4024280000000  0.5386540000000 1.0
C      1  0.5333690000000  0.5992240000000  0.5273040000000 1.0
C      1  0.5468890000000  0.4079270000000  0.4852270000000 1.0
C      1  0.4880840000000  0.5539590000000  0.4623470000000 1.0
C      1  0.4630720000000  0.4449570000000  0.4911750000000 1.0
C      1  0.4685900000000  0.5416600000000  0.5268410000000 1.0
C      1  0.5031600000000  0.4585080000000  0.5414390000000 1.0
C      1  0.5367800000000  0.5404180000000  0.5071660000000 1.0
C      1  0.5305250000000  0.4465230000000  0.4727410000000 1.0
C      1  0.5559820000000  0.5138550000000  0.4245730000000 1.0
C      1  0.4603240000000  0.4917700000000  0.4130500000000 1.0
C      1  0.4076470000000  0.5113740000000  0.4926360000000 1.0
C      1  0.4403230000000  0.4861100000000  0.5791630000000 1.0
C      1  0.5337980000000  0.5113530000000  0.5858030000000 1.0
C      1  0.5933960000000  0.4904190000000  0.5147660000000 1.0
C      1  0.4992780000000  0.5611870000000  0.5058820000000 1.0
C      1  0.5020630000000  0.4386560000000  0.5014340000000 1.0
END
