TITL C-2441158-471-1200 0.0793276950006318 125000 -13985.8442508909 0 0 108 (C1) n - 1
REM
REM in /home/bkarasulu/work/CARBON/AIRSS/Generating-Clusters/ReaxFF-fromJPCA2015/Units_Real/with-SteepDescent/Higher-Symm
REM
REM
REM
REM
REM
REM ./C.cell (1df0a924f5614ab8850e4351716899ee)
REM
REM compiler GCC version 9.2.1 20190827 (Red Hat 9.2.1-1)
REM options -cpp -mtune=generic -march=x86-64 -g -O0 -fpre-include=/usr/include/finclude/math-vector-fortran.h
REM seed 292145788 417171472 -39047247 -694526875 -1279072808 -408209587 -1160339924 -1593722651 -954090555 -566363827 1345444879 1630056153 -1007224903 -394709054 1055161115 -227252747 -41365242 1115562783 2085044967 1539347731 1165667266 -106577073 -2044475384 -1455521337 910331466 1534084055 -109411465 -352840507 2125773283 1513972931 1626740680 -38798148 1609615847
REM
CELL 1.54180   50.00000   50.00000   50.00000   90.00000   90.00000   90.00000
LATT -1
SFAC C  
C      1  0.4163250000000  0.5010670000000  0.4623160000000 1.0
C      1  0.5842670000000  0.5014760000000  0.5403600000000 1.0
C      1  0.4396560000000  0.5147140000000  0.4481290000000 1.0
C      1  0.5627640000000  0.4857730000000  0.5539040000000 1.0
C      1  0.4474970000000  0.5588770000000  0.5338610000000 1.0
C      1  0.5521050000000  0.4429950000000  0.4664990000000 1.0
C      1  0.4771420000000  0.4663800000000  0.5673430000000 1.0
C      1  0.5235710000000  0.5353990000000  0.4330700000000 1.0
C      1  0.5141460000000  0.4692460000000  0.4767510000000 1.0
C      1  0.4869110000000  0.5215340000000  0.5195170000000 1.0
C      1  0.4876620000000  0.4300570000000  0.4508170000000 1.0
C      1  0.5109320000000  0.5715260000000  0.5499660000000 1.0
C      1  0.5385890000000  0.4521180000000  0.4411110000000 1.0
C      1  0.4601590000000  0.5457320000000  0.5572840000000 1.0
C      1  0.5083310000000  0.4931710000000  0.5953750000000 1.0
C      1  0.4899880000000  0.5099240000000  0.4019220000000 1.0
C      1  0.5500260000000  0.5392540000000  0.5508000000000 1.0
C      1  0.4493290000000  0.4632710000000  0.4503770000000 1.0
C      1  0.5735600000000  0.4804190000000  0.5031070000000 1.0
C      1  0.4346710000000  0.5215000000000  0.5012760000000 1.0
C      1  0.5454320000000  0.5833310000000  0.4785890000000 1.0
C      1  0.4579960000000  0.4264860000000  0.5201660000000 1.0
C      1  0.5316650000000  0.4989940000000  0.5057920000000 1.0
C      1  0.4702290000000  0.4958170000000  0.4834210000000 1.0
C      1  0.4770360000000  0.4356790000000  0.5601920000000 1.0
C      1  0.5226520000000  0.5623730000000  0.4441920000000 1.0
C      1  0.4494270000000  0.4376760000000  0.5525640000000 1.0
C      1  0.5471420000000  0.5684410000000  0.4563310000000 1.0
C      1  0.4507720000000  0.4786620000000  0.5748390000000 1.0
C      1  0.5488190000000  0.5205960000000  0.4263500000000 1.0
C      1  0.4506970000000  0.5417900000000  0.4492350000000 1.0
C      1  0.5507410000000  0.4585290000000  0.5567120000000 1.0
C      1  0.4354350000000  0.4384520000000  0.5064460000000 1.0
C      1  0.5646550000000  0.5623160000000  0.4783480000000 1.0
C      1  0.4464270000000  0.4266530000000  0.4797860000000 1.0
C      1  0.5470840000000  0.5659980000000  0.5195260000000 1.0
C      1  0.4617700000000  0.5026770000000  0.4031910000000 1.0
C      1  0.5379180000000  0.4968240000000  0.5989800000000 1.0
C      1  0.4095650000000  0.4806460000000  0.5080380000000 1.0
C      1  0.5901160000000  0.5191330000000  0.4926100000000 1.0
C      1  0.5122870000000  0.5062570000000  0.5575380000000 1.0
C      1  0.4899390000000  0.4927500000000  0.4383550000000 1.0
C      1  0.5344030000000  0.4236380000000  0.5085330000000 1.0
C      1  0.4625020000000  0.5803820000000  0.4889480000000 1.0
C      1  0.5028200000000  0.5037100000000  0.4614130000000 1.0
C      1  0.4963410000000  0.4963550000000  0.5343050000000 1.0
C      1  0.5054750000000  0.5858200000000  0.5028720000000 1.0
C      1  0.4946650000000  0.4138200000000  0.4967680000000 1.0
C      1  0.5161960000000  0.4797280000000  0.5204980000000 1.0
C      1  0.4802610000000  0.5184620000000  0.4720190000000 1.0
C      1  0.5066540000000  0.5366640000000  0.5051370000000 1.0
C      1  0.4999080000000  0.4655760000000  0.5016580000000 1.0
C      1  0.4978550000000  0.4576000000000  0.4545770000000 1.0
C      1  0.5026570000000  0.5456710000000  0.5457050000000 1.0
C      1  0.5236140000000  0.5285250000000  0.5469360000000 1.0
C      1  0.4716810000000  0.4711570000000  0.4681820000000 1.0
C      1  0.5571190000000  0.5056900000000  0.5112980000000 1.0
C      1  0.4438920000000  0.4939690000000  0.4915630000000 1.0
C      1  0.4792330000000  0.5462800000000  0.4401750000000 1.0
C      1  0.5211180000000  0.4523020000000  0.5619640000000 1.0
C      1  0.4030540000000  0.4987350000000  0.4883170000000 1.0
C      1  0.5966070000000  0.4993880000000  0.5122280000000 1.0
C      1  0.5063230000000  0.4179430000000  0.4704440000000 1.0
C      1  0.4928260000000  0.5821330000000  0.5283000000000 1.0
C      1  0.5339580000000  0.5434840000000  0.5060370000000 1.0
C      1  0.4730840000000  0.4574220000000  0.4925850000000 1.0
C      1  0.4661800000000  0.5760920000000  0.5182890000000 1.0
C      1  0.5331680000000  0.4247500000000  0.4787330000000 1.0
C      1  0.4588130000000  0.4355350000000  0.4550560000000 1.0
C      1  0.5401420000000  0.5666750000000  0.5474280000000 1.0
C      1  0.5245120000000  0.5205180000000  0.4598840000000 1.0
C      1  0.4735610000000  0.4799120000000  0.5377350000000 1.0
C      1  0.4621630000000  0.5047330000000  0.5812110000000 1.0
C      1  0.5377150000000  0.4956380000000  0.4176250000000 1.0
C      1  0.5545390000000  0.4948180000000  0.4611830000000 1.0
C      1  0.4481800000000  0.4973400000000  0.5380750000000 1.0
C      1  0.5659690000000  0.4609810000000  0.4847180000000 1.0
C      1  0.4258170000000  0.5430390000000  0.5203250000000 1.0
C      1  0.4345530000000  0.4744440000000  0.5496670000000 1.0
C      1  0.5655120000000  0.5196900000000  0.4498970000000 1.0
C      1  0.4945880000000  0.5320610000000  0.4203220000000 1.0
C      1  0.5049650000000  0.4686330000000  0.5795180000000 1.0
C      1  0.4891370000000  0.5819900000000  0.4782800000000 1.0
C      1  0.5089390000000  0.4181450000000  0.5222380000000 1.0
C      1  0.5349450000000  0.4874010000000  0.4814710000000 1.0
C      1  0.4625550000000  0.5306290000000  0.5086930000000 1.0
C      1  0.4250510000000  0.4614260000000  0.5224800000000 1.0
C      1  0.5752970000000  0.5352050000000  0.4736850000000 1.0
C      1  0.4494160000000  0.5590180000000  0.4732030000000 1.0
C      1  0.5556150000000  0.4447700000000  0.5330470000000 1.0
C      1  0.5682390000000  0.5240260000000  0.5317340000000 1.0
C      1  0.4317680000000  0.4772460000000  0.4696770000000 1.0
C      1  0.5342990000000  0.5863480000000  0.5035260000000 1.0
C      1  0.4654150000000  0.4107720000000  0.4955470000000 1.0
C      1  0.4961740000000  0.5670020000000  0.4534990000000 1.0
C      1  0.5044140000000  0.4322560000000  0.5477690000000 1.0
C      1  0.4901290000000  0.5159700000000  0.5819490000000 1.0
C      1  0.5091430000000  0.4843270000000  0.4169140000000 1.0
C      1  0.4870250000000  0.5434340000000  0.5685020000000 1.0
C      1  0.5118840000000  0.4562590000000  0.4307460000000 1.0
C      1  0.4500550000000  0.5184920000000  0.5590150000000 1.0
C      1  0.5493560000000  0.4782220000000  0.4371000000000 1.0
C      1  0.4594550000000  0.4961050000000  0.4336740000000 1.0
C      1  0.5407920000000  0.4984360000000  0.5688230000000 1.0
C      1  0.4694670000000  0.5412370000000  0.4846270000000 1.0
C      1  0.5353230000000  0.4524170000000  0.5180840000000 1.0
C      1  0.5214640000000  0.5390820000000  0.4807220000000 1.0
C      1  0.4765810000000  0.4559600000000  0.5198800000000 1.0
END
