TITL C-2441161-5029-1122 0.0586766118144127 125000 -20241.907646245 0 0 146 (C1) n - 1
REM
REM in /home/bkarasulu/work/CARBON/AIRSS/Generating-Clusters/ReaxFF-fromJPCA2015/Units_Real/with-SteepDescent/Higher-Symm
REM
REM
REM
REM
REM
REM ./C.cell (1df0a924f5614ab8850e4351716899ee)
REM
REM compiler GCC version 9.2.1 20190827 (Red Hat 9.2.1-1)
REM options -cpp -mtune=generic -march=x86-64 -g -O0 -fpre-include=/usr/include/finclude/math-vector-fortran.h
REM seed 1503628487 2057271238 -27409077 712523750 -1950575910 -1305233323 1733335760 -548879935 1888125629 163188296 1430418054 -1393063442 -1437043234 -145638572 -707676863 -228855522 1756584464 -1742890198 1563967791 50801261 -1725127578 246956226 -1792333242 -762172914 -1667882660 1949779094 -33041858 851841227 -1220320121 1046324699 -324154092 26530163 -1698375133
REM
CELL 1.54180   50.00000   50.00000   50.00000   90.00000   90.00000   90.00000
LATT -1
SFAC C  
C      1  0.4430270000000  0.5177700000000  0.5139320000000 1.0
C      1  0.5525020000000  0.5149620000000  0.5201700000000 1.0
C      1  0.4840940000000  0.5805790000000  0.4428860000000 1.0
C      1  0.5128400000000  0.5845440000000  0.4385430000000 1.0
C      1  0.4341210000000  0.4624460000000  0.5708670000000 1.0
C      1  0.5691640000000  0.4589480000000  0.5694980000000 1.0
C      1  0.4872800000000  0.5157730000000  0.5744390000000 1.0
C      1  0.5137160000000  0.5152770000000  0.5756610000000 1.0
C      1  0.5166070000000  0.4692440000000  0.5875180000000 1.0
C      1  0.4852120000000  0.4692360000000  0.5860630000000 1.0
C      1  0.4320500000000  0.5799550000000  0.4657320000000 1.0
C      1  0.5654930000000  0.5778600000000  0.4661220000000 1.0
C      1  0.5576130000000  0.5612530000000  0.4433240000000 1.0
C      1  0.4397230000000  0.5640450000000  0.4407440000000 1.0
C      1  0.4197690000000  0.5364030000000  0.5205030000000 1.0
C      1  0.5778580000000  0.5354550000000  0.5217410000000 1.0
C      1  0.4838860000000  0.5385020000000  0.4241040000000 1.0
C      1  0.5155450000000  0.5412660000000  0.4190140000000 1.0
C      1  0.4747340000000  0.4547400000000  0.4801640000000 1.0
C      1  0.5268660000000  0.4570860000000  0.4799270000000 1.0
C      1  0.5976590000000  0.5005670000000  0.4660900000000 1.0
C      1  0.4014710000000  0.5002020000000  0.4658060000000 1.0
C      1  0.5839840000000  0.4495140000000  0.5462860000000 1.0
C      1  0.4165210000000  0.4536460000000  0.5486920000000 1.0
C      1  0.4877430000000  0.5016370000000  0.5240010000000 1.0
C      1  0.5149160000000  0.4905720000000  0.5291600000000 1.0
C      1  0.5186120000000  0.4109870000000  0.5118880000000 1.0
C      1  0.4893800000000  0.4112170000000  0.5172720000000 1.0
C      1  0.5121510000000  0.4920780000000  0.4124710000000 1.0
C      1  0.4833500000000  0.4909540000000  0.4097210000000 1.0
C      1  0.4371260000000  0.5349560000000  0.4409840000000 1.0
C      1  0.5639200000000  0.5323340000000  0.4453130000000 1.0
C      1  0.4809100000000  0.5259400000000  0.5374300000000 1.0
C      1  0.5303620000000  0.5153860000000  0.5397770000000 1.0
C      1  0.4861510000000  0.4540830000000  0.4532640000000 1.0
C      1  0.5130130000000  0.4539410000000  0.4539430000000 1.0
C      1  0.5326010000000  0.4314690000000  0.5635140000000 1.0
C      1  0.4660360000000  0.4266870000000  0.5642560000000 1.0
C      1  0.4415900000000  0.4148200000000  0.4828290000000 1.0
C      1  0.5597520000000  0.4235340000000  0.4883720000000 1.0
C      1  0.4858470000000  0.5734810000000  0.5543740000000 1.0
C      1  0.5159210000000  0.5750470000000  0.5549580000000 1.0
C      1  0.5174970000000  0.3906690000000  0.4904620000000 1.0
C      1  0.4877710000000  0.3921510000000  0.4918440000000 1.0
C      1  0.4865960000000  0.5980960000000  0.5144400000000 1.0
C      1  0.5162750000000  0.5983610000000  0.5125440000000 1.0
C      1  0.5569470000000  0.5023460000000  0.5766110000000 1.0
C      1  0.4461650000000  0.5075270000000  0.5742550000000 1.0
C      1  0.5782030000000  0.4854700000000  0.5669600000000 1.0
C      1  0.4243940000000  0.4893380000000  0.5681900000000 1.0
C      1  0.4466400000000  0.5139660000000  0.4220860000000 1.0
C      1  0.5537650000000  0.5101070000000  0.4293340000000 1.0
C      1  0.5562820000000  0.5490730000000  0.5640480000000 1.0
C      1  0.4432910000000  0.5490250000000  0.5645880000000 1.0
C      1  0.4109240000000  0.4606990000000  0.4729380000000 1.0
C      1  0.5835200000000  0.4621120000000  0.4716740000000 1.0
C      1  0.4896020000000  0.4183810000000  0.5495770000000 1.0
C      1  0.5062010000000  0.4418330000000  0.5534500000000 1.0
C      1  0.5647670000000  0.4440750000000  0.5049970000000 1.0
C      1  0.4356180000000  0.4374420000000  0.5030600000000 1.0
C      1  0.5731920000000  0.5757790000000  0.4948870000000 1.0
C      1  0.4253300000000  0.5748100000000  0.4930370000000 1.0
C      1  0.4439410000000  0.4908400000000  0.5259660000000 1.0
C      1  0.5580670000000  0.4817870000000  0.5240910000000 1.0
C      1  0.4133710000000  0.4779360000000  0.4496460000000 1.0
C      1  0.5900800000000  0.4741310000000  0.4465040000000 1.0
C      1  0.4719300000000  0.4818110000000  0.4879650000000 1.0
C      1  0.5221190000000  0.4819960000000  0.4958070000000 1.0
C      1  0.5524860000000  0.5118800000000  0.4924370000000 1.0
C      1  0.4430300000000  0.5120880000000  0.4864900000000 1.0
C      1  0.4737020000000  0.5594000000000  0.4944370000000 1.0
C      1  0.5357080000000  0.5602010000000  0.4926200000000 1.0
C      1  0.3943720000000  0.4809730000000  0.4870590000000 1.0
C      1  0.6027560000000  0.4805530000000  0.4864720000000 1.0
C      1  0.5746590000000  0.5462580000000  0.4935410000000 1.0
C      1  0.4187830000000  0.5467550000000  0.4921260000000 1.0
C      1  0.4503200000000  0.4247790000000  0.5395450000000 1.0
C      1  0.5483280000000  0.4283720000000  0.5394430000000 1.0
C      1  0.4730860000000  0.5882210000000  0.4903420000000 1.0
C      1  0.5280190000000  0.5887460000000  0.4878730000000 1.0
C      1  0.4992080000000  0.4689150000000  0.5437250000000 1.0
C      1  0.4712670000000  0.4733160000000  0.5369220000000 1.0
C      1  0.4875160000000  0.4061380000000  0.4661400000000 1.0
C      1  0.5173640000000  0.4052520000000  0.4649430000000 1.0
C      1  0.5948380000000  0.5253450000000  0.4811380000000 1.0
C      1  0.4008560000000  0.5253100000000  0.4821270000000 1.0
C      1  0.4543290000000  0.5240870000000  0.4626960000000 1.0
C      1  0.5473490000000  0.5226150000000  0.4676190000000 1.0
C      1  0.4386110000000  0.5803170000000  0.5231440000000 1.0
C      1  0.5595540000000  0.5780550000000  0.5237260000000 1.0
C      1  0.4712210000000  0.4941450000000  0.5851270000000 1.0
C      1  0.5307790000000  0.4938210000000  0.5873760000000 1.0
C      1  0.4652660000000  0.4467850000000  0.5241670000000 1.0
C      1  0.5416580000000  0.4522710000000  0.5233040000000 1.0
C      1  0.3957790000000  0.4903190000000  0.5148930000000 1.0
C      1  0.6040370000000  0.4912440000000  0.5135870000000 1.0
C      1  0.5667200000000  0.4616460000000  0.4332370000000 1.0
C      1  0.4385100000000  0.4665900000000  0.4378990000000 1.0
C      1  0.4582950000000  0.4189030000000  0.4597040000000 1.0
C      1  0.5457110000000  0.4194230000000  0.4637380000000 1.0
C      1  0.3943700000000  0.5182910000000  0.5096730000000 1.0
C      1  0.6024800000000  0.5194060000000  0.5087240000000 1.0
C      1  0.4164370000000  0.4822200000000  0.5369960000000 1.0
C      1  0.5861590000000  0.4786050000000  0.5359580000000 1.0
C      1  0.4881020000000  0.5418490000000  0.5126320000000 1.0
C      1  0.5145580000000  0.5430120000000  0.5016970000000 1.0
C      1  0.5315330000000  0.5611200000000  0.5746460000000 1.0
C      1  0.4692440000000  0.5603570000000  0.5743540000000 1.0
C      1  0.4864680000000  0.4401290000000  0.5044800000000 1.0
C      1  0.5195180000000  0.4403280000000  0.5052420000000 1.0
C      1  0.5513160000000  0.4365420000000  0.4394490000000 1.0
C      1  0.4502580000000  0.4385500000000  0.4383440000000 1.0
C      1  0.5399810000000  0.4535930000000  0.5804010000000 1.0
C      1  0.4625780000000  0.4533010000000  0.5776780000000 1.0
C      1  0.5500120000000  0.4838300000000  0.4421220000000 1.0
C      1  0.4553330000000  0.4881870000000  0.4312770000000 1.0
C      1  0.4860680000000  0.4606920000000  0.4051870000000 1.0
C      1  0.5145400000000  0.4634860000000  0.4087930000000 1.0
C      1  0.4858600000000  0.5054930000000  0.4944660000000 1.0
C      1  0.5085220000000  0.4999200000000  0.4778690000000 1.0
C      1  0.5136820000000  0.5980120000000  0.4642770000000 1.0
C      1  0.4847300000000  0.5982210000000  0.4655590000000 1.0
C      1  0.5258560000000  0.4453450000000  0.4291360000000 1.0
C      1  0.4759000000000  0.4442610000000  0.4270380000000 1.0
C      1  0.5301940000000  0.5630080000000  0.4296860000000 1.0
C      1  0.4657620000000  0.5631880000000  0.4291240000000 1.0
C      1  0.5144190000000  0.5470280000000  0.4728230000000 1.0
C      1  0.4859980000000  0.5542120000000  0.4687970000000 1.0
C      1  0.4455630000000  0.4834260000000  0.4951330000000 1.0
C      1  0.5511310000000  0.4858430000000  0.4948110000000 1.0
C      1  0.5146510000000  0.5420550000000  0.5888950000000 1.0
C      1  0.4857640000000  0.5408960000000  0.5880490000000 1.0
C      1  0.4548130000000  0.5251630000000  0.5516000000000 1.0
C      1  0.5496830000000  0.5223880000000  0.5592410000000 1.0
C      1  0.4715110000000  0.5175910000000  0.4078120000000 1.0
C      1  0.5283620000000  0.5159340000000  0.4154230000000 1.0
C      1  0.4357010000000  0.4589620000000  0.4857210000000 1.0
C      1  0.5547080000000  0.4707580000000  0.4704850000000 1.0
C      1  0.5324090000000  0.5852360000000  0.5327270000000 1.0
C      1  0.4703030000000  0.5815550000000  0.5311710000000 1.0
C      1  0.5749080000000  0.4280190000000  0.5266310000000 1.0
C      1  0.4240960000000  0.4326360000000  0.5305040000000 1.0
C      1  0.5707590000000  0.5586370000000  0.5408010000000 1.0
C      1  0.4273990000000  0.5581040000000  0.5416150000000 1.0
C      1  0.5193730000000  0.5200690000000  0.4613000000000 1.0
C      1  0.4812680000000  0.5296640000000  0.4537390000000 1.0
END
