TITL C-2441164-471-1122 0.0878955977655721 125000 -15972.985450883 0 0 128 (C1) n - 1
REM
REM in /home/bkarasulu/work/CARBON/AIRSS/Generating-Clusters/ReaxFF-fromJPCA2015/Units_Real/with-SteepDescent/Higher-Symm
REM
REM
REM
REM
REM
REM ./C.cell (1df0a924f5614ab8850e4351716899ee)
REM
REM compiler GCC version 9.2.1 20190827 (Red Hat 9.2.1-1)
REM options -cpp -mtune=generic -march=x86-64 -g -O0 -fpre-include=/usr/include/finclude/math-vector-fortran.h
REM seed -1449734667 -445991578 1591295750 1694270251 1294521562 -2088995774 -1577101386 64189985 910053324 -433631243 165760047 -2009763734 1231080124 1237093680 233947714 -1781349001 859091314 -1096775086 -866946628 -866216094 -1457040808 -530959715 -1458663930 -1448197524 327095961 1997147256 -83209462 948951897 1792063084 518437951 -583093142 -1622207130 1011130600
REM
CELL 1.54180   50.00000   50.00000   50.00000   90.00000   90.00000   90.00000
LATT -1
SFAC C  
C      1  0.5307280000000  0.4190130000000  0.5214680000000 1.0
C      1  0.4302740000000  0.4472470000000  0.5172620000000 1.0
C      1  0.4279680000000  0.5514550000000  0.5214220000000 1.0
C      1  0.5297130000000  0.5775720000000  0.5215620000000 1.0
C      1  0.5886040000000  0.5016310000000  0.5208950000000 1.0
C      1  0.5279520000000  0.4177380000000  0.4810540000000 1.0
C      1  0.4285610000000  0.4444170000000  0.4767500000000 1.0
C      1  0.4262810000000  0.5496310000000  0.4806710000000 1.0
C      1  0.5227990000000  0.5864950000000  0.4811520000000 1.0
C      1  0.5884040000000  0.5026120000000  0.4808290000000 1.0
C      1  0.5456250000000  0.5647160000000  0.5446570000000 1.0
C      1  0.5653880000000  0.4665930000000  0.5503230000000 1.0
C      1  0.4823660000000  0.4234050000000  0.5481540000000 1.0
C      1  0.4215610000000  0.4845000000000  0.5499270000000 1.0
C      1  0.4654920000000  0.5706990000000  0.5499740000000 1.0
C      1  0.5515680000000  0.5605840000000  0.4530380000000 1.0
C      1  0.5638440000000  0.4675240000000  0.4479020000000 1.0
C      1  0.4893630000000  0.4205450000000  0.4547510000000 1.0
C      1  0.4221680000000  0.4895610000000  0.4504430000000 1.0
C      1  0.4580030000000  0.5706610000000  0.4535600000000 1.0
C      1  0.5694350000000  0.4555770000000  0.4745250000000 1.0
C      1  0.4759930000000  0.4151780000000  0.4776350000000 1.0
C      1  0.4130320000000  0.4938430000000  0.4777580000000 1.0
C      1  0.4662650000000  0.5817190000000  0.4786820000000 1.0
C      1  0.5636410000000  0.5581260000000  0.4805030000000 1.0
C      1  0.5705470000000  0.4563630000000  0.5211930000000 1.0
C      1  0.4784220000000  0.4162240000000  0.5206090000000 1.0
C      1  0.4130010000000  0.4996930000000  0.5270050000000 1.0
C      1  0.4699020000000  0.5809810000000  0.5231850000000 1.0
C      1  0.5660320000000  0.5518540000000  0.5287570000000 1.0
C      1  0.5307060000000  0.5280850000000  0.5774670000000 1.0
C      1  0.5226060000000  0.4804890000000  0.5801350000000 1.0
C      1  0.4924690000000  0.4755340000000  0.5813750000000 1.0
C      1  0.4609520000000  0.4916860000000  0.5774140000000 1.0
C      1  0.4816190000000  0.5393820000000  0.5791030000000 1.0
C      1  0.5250390000000  0.5273970000000  0.4230980000000 1.0
C      1  0.5225160000000  0.4787570000000  0.4177320000000 1.0
C      1  0.4938370000000  0.4784880000000  0.4112430000000 1.0
C      1  0.4771750000000  0.5019690000000  0.4105240000000 1.0
C      1  0.4928970000000  0.5259410000000  0.4109260000000 1.0
C      1  0.4837680000000  0.4466440000000  0.5818980000000 1.0
C      1  0.4469290000000  0.5179610000000  0.5844110000000 1.0
C      1  0.5042960000000  0.5604960000000  0.5783820000000 1.0
C      1  0.5555740000000  0.5156190000000  0.5805450000000 1.0
C      1  0.5380230000000  0.4575560000000  0.5916040000000 1.0
C      1  0.4829430000000  0.4528030000000  0.4237520000000 1.0
C      1  0.4468580000000  0.5009910000000  0.4189210000000 1.0
C      1  0.4796120000000  0.5512820000000  0.4147510000000 1.0
C      1  0.5522090000000  0.5131220000000  0.4187850000000 1.0
C      1  0.5372090000000  0.4535650000000  0.4090390000000 1.0
C      1  0.4595260000000  0.4873290000000  0.4743660000000 1.0
C      1  0.4768840000000  0.5350340000000  0.4764020000000 1.0
C      1  0.5222720000000  0.5300030000000  0.4750630000000 1.0
C      1  0.5352310000000  0.4900910000000  0.4787980000000 1.0
C      1  0.4989840000000  0.4580830000000  0.4755480000000 1.0
C      1  0.4592770000000  0.4883800000000  0.5265870000000 1.0
C      1  0.4757600000000  0.5315990000000  0.5268550000000 1.0
C      1  0.5217410000000  0.5282560000000  0.5190720000000 1.0
C      1  0.5359980000000  0.4895110000000  0.5203280000000 1.0
C      1  0.4994290000000  0.4599910000000  0.5256820000000 1.0
C      1  0.5583550000000  0.4293910000000  0.4848040000000 1.0
C      1  0.4461000000000  0.4204370000000  0.4848480000000 1.0
C      1  0.4090820000000  0.5258680000000  0.4876590000000 1.0
C      1  0.4951890000000  0.5959850000000  0.4875930000000 1.0
C      1  0.5884090000000  0.5306470000000  0.4904900000000 1.0
C      1  0.5596300000000  0.4293270000000  0.5130180000000 1.0
C      1  0.4480340000000  0.4220970000000  0.5121360000000 1.0
C      1  0.4088460000000  0.5275440000000  0.5154340000000 1.0
C      1  0.4981410000000  0.5917360000000  0.5146350000000 1.0
C      1  0.5873780000000  0.5337880000000  0.5179160000000 1.0
C      1  0.5731850000000  0.4888810000000  0.5662640000000 1.0
C      1  0.5036660000000  0.4305420000000  0.5657100000000 1.0
C      1  0.4419350000000  0.4689300000000  0.5665570000000 1.0
C      1  0.4529040000000  0.5456550000000  0.5721160000000 1.0
C      1  0.5324120000000  0.5559470000000  0.5699180000000 1.0
C      1  0.5696200000000  0.4919350000000  0.4310180000000 1.0
C      1  0.5029940000000  0.4301140000000  0.4337790000000 1.0
C      1  0.4367540000000  0.4754440000000  0.4302810000000 1.0
C      1  0.4543200000000  0.5512630000000  0.4324790000000 1.0
C      1  0.5316630000000  0.5562480000000  0.4329820000000 1.0
C      1  0.4471660000000  0.5219380000000  0.4387880000000 1.0
C      1  0.5009640000000  0.5603830000000  0.4346160000000 1.0
C      1  0.5652030000000  0.5170330000000  0.4436500000000 1.0
C      1  0.5307020000000  0.4419930000000  0.4365140000000 1.0
C      1  0.4574000000000  0.4556760000000  0.4388220000000 1.0
C      1  0.4385990000000  0.5220820000000  0.5572960000000 1.0
C      1  0.4905620000000  0.5734290000000  0.5571710000000 1.0
C      1  0.5705880000000  0.5151170000000  0.5567120000000 1.0
C      1  0.5314980000000  0.4428180000000  0.5649870000000 1.0
C      1  0.4600900000000  0.4467950000000  0.5657410000000 1.0
C      1  0.5429290000000  0.4647810000000  0.4856550000000 1.0
C      1  0.4772890000000  0.4449550000000  0.4852670000000 1.0
C      1  0.4415560000000  0.5032890000000  0.4864490000000 1.0
C      1  0.4848160000000  0.5582830000000  0.4875800000000 1.0
C      1  0.5494530000000  0.5311560000000  0.4858200000000 1.0
C      1  0.5428210000000  0.4645260000000  0.5142790000000 1.0
C      1  0.4774320000000  0.4478750000000  0.5136390000000 1.0
C      1  0.4405380000000  0.5033780000000  0.5137470000000 1.0
C      1  0.4856110000000  0.5554970000000  0.5141570000000 1.0
C      1  0.5487890000000  0.5304800000000  0.5152600000000 1.0
C      1  0.5357900000000  0.4702800000000  0.5536640000000 1.0
C      1  0.4928780000000  0.4747140000000  0.5498560000000 1.0
C      1  0.4582930000000  0.5015750000000  0.5500740000000 1.0
C      1  0.4880620000000  0.5327470000000  0.5514340000000 1.0
C      1  0.5144610000000  0.5206260000000  0.5485010000000 1.0
C      1  0.5344980000000  0.4707690000000  0.4458400000000 1.0
C      1  0.4929730000000  0.4700680000000  0.4513370000000 1.0
C      1  0.4668850000000  0.5042730000000  0.4535970000000 1.0
C      1  0.4878290000000  0.5432640000000  0.4531510000000 1.0
C      1  0.5179780000000  0.5163790000000  0.4499300000000 1.0
C      1  0.5131510000000  0.5570350000000  0.4837750000000 1.0
C      1  0.5583480000000  0.5067470000000  0.4725440000000 1.0
C      1  0.5227530000000  0.4462380000000  0.4792120000000 1.0
C      1  0.4558490000000  0.4591210000000  0.4690180000000 1.0
C      1  0.4498750000000  0.5306610000000  0.4830950000000 1.0
C      1  0.5137070000000  0.5537510000000  0.5126660000000 1.0
C      1  0.5583610000000  0.5059200000000  0.5275600000000 1.0
C      1  0.5229950000000  0.4467640000000  0.5227980000000 1.0
C      1  0.4546130000000  0.4615410000000  0.5238550000000 1.0
C      1  0.4496600000000  0.5307000000000  0.5156340000000 1.0
C      1  0.5464810000000  0.5788740000000  0.4961540000000 1.0
C      1  0.5865950000000  0.4804560000000  0.5007470000000 1.0
C      1  0.5088490000000  0.4110550000000  0.5027780000000 1.0
C      1  0.4390930000000  0.5684510000000  0.5003220000000 1.0
C      1  0.4176260000000  0.4632460000000  0.4949710000000 1.0
C      1  0.4952750000000  0.4985730000000  0.4494740000000 1.0
C      1  0.5037060000000  0.4952700000000  0.5437100000000 1.0
C      1  0.5186870000000  0.5021680000000  0.5001890000000 1.0
END
