TITL C-2441166-8118-708 0.15230581711685 125000 -24207.6571827689 0 0 185 (C1) n - 1
REM
REM in /home/bkarasulu/work/CARBON/AIRSS/Generating-Clusters/ReaxFF-fromJPCA2015/Units_Real/with-SteepDescent/Higher-Symm
REM
REM
REM
REM
REM
REM ./C.cell (1df0a924f5614ab8850e4351716899ee)
REM
REM compiler GCC version 9.2.1 20190827 (Red Hat 9.2.1-1)
REM options -cpp -mtune=generic -march=x86-64 -g -O0 -fpre-include=/usr/include/finclude/math-vector-fortran.h
REM seed 151628278 -1536606851 -1841078635 -1251844576 1949200219 359041805 -1952388634 -1677908458 61900597 -2077837691 1066067168 -507655950 -579700637 -485365199 -1241067917 998056225 1877814028 2086289016 -1254913552 -784076137 -1957580095 -1277089491 -1936335765 -653504107 -1604549348 1505503288 581524018 1809021771 629402149 357693263 -452231270 -1405900583 368793591
REM
CELL 1.54180   50.00000   50.00000   50.00000   90.00000   90.00000   90.00000
LATT -1
SFAC C  
C      1  0.5449980000000  0.4315650000000  0.5522440000000 1.0
C      1  0.4585100000000  0.5778980000000  0.5549110000000 1.0
C      1  0.4605090000000  0.4249000000000  0.4459160000000 1.0
C      1  0.5367710000000  0.5712810000000  0.4472340000000 1.0
C      1  0.4279700000000  0.5411950000000  0.5530360000000 1.0
C      1  0.5727500000000  0.4618560000000  0.5533550000000 1.0
C      1  0.4288480000000  0.4543150000000  0.4485790000000 1.0
C      1  0.5703080000000  0.5396160000000  0.4467740000000 1.0
C      1  0.5860120000000  0.4710880000000  0.4497000000000 1.0
C      1  0.4169250000000  0.5289610000000  0.4546560000000 1.0
C      1  0.4174390000000  0.4738910000000  0.5459180000000 1.0
C      1  0.5828610000000  0.5383670000000  0.5442000000000 1.0
C      1  0.4607600000000  0.5854430000000  0.4533060000000 1.0
C      1  0.5353720000000  0.4174800000000  0.4569040000000 1.0
C      1  0.4568710000000  0.4162420000000  0.5460730000000 1.0
C      1  0.5300730000000  0.5856850000000  0.5482070000000 1.0
C      1  0.3828630000000  0.5120040000000  0.4906140000000 1.0
C      1  0.6158130000000  0.4863040000000  0.4901260000000 1.0
C      1  0.6166040000000  0.5127370000000  0.5072970000000 1.0
C      1  0.3837580000000  0.4877920000000  0.5086540000000 1.0
C      1  0.5163190000000  0.3828880000000  0.4893180000000 1.0
C      1  0.4926960000000  0.6184690000000  0.4908030000000 1.0
C      1  0.5172110000000  0.6160280000000  0.5087470000000 1.0
C      1  0.4920370000000  0.3804500000000  0.5075870000000 1.0
C      1  0.4293240000000  0.4479370000000  0.4971260000000 1.0
C      1  0.5703460000000  0.5517050000000  0.4973760000000 1.0
C      1  0.5722830000000  0.4468640000000  0.5064450000000 1.0
C      1  0.4235320000000  0.5620890000000  0.5034370000000 1.0
C      1  0.4444260000000  0.4243130000000  0.4970290000000 1.0
C      1  0.5529140000000  0.5696120000000  0.4968240000000 1.0
C      1  0.4474810000000  0.5748940000000  0.5015480000000 1.0
C      1  0.5521700000000  0.4284990000000  0.5039600000000 1.0
C      1  0.4378640000000  0.5243220000000  0.5895190000000 1.0
C      1  0.5620770000000  0.4784960000000  0.5892970000000 1.0
C      1  0.5622680000000  0.5206890000000  0.4107380000000 1.0
C      1  0.4360070000000  0.4780480000000  0.4171360000000 1.0
C      1  0.5168480000000  0.4349360000000  0.5823200000000 1.0
C      1  0.4788910000000  0.5634620000000  0.5880040000000 1.0
C      1  0.5182780000000  0.5634120000000  0.4112730000000 1.0
C      1  0.4770010000000  0.4355580000000  0.4093640000000 1.0
C      1  0.4628880000000  0.4966520000000  0.5279290000000 1.0
C      1  0.5400750000000  0.5011830000000  0.5384940000000 1.0
C      1  0.5284610000000  0.5028940000000  0.4724020000000 1.0
C      1  0.4740420000000  0.5000400000000  0.4779420000000 1.0
C      1  0.5029880000000  0.4663080000000  0.5338390000000 1.0
C      1  0.4986000000000  0.5250960000000  0.5216520000000 1.0
C      1  0.5006420000000  0.5323710000000  0.4692920000000 1.0
C      1  0.5017150000000  0.4652680000000  0.4746850000000 1.0
C      1  0.5866880000000  0.4437010000000  0.5338930000000 1.0
C      1  0.4137910000000  0.5578110000000  0.5304120000000 1.0
C      1  0.4142070000000  0.4413750000000  0.4697000000000 1.0
C      1  0.5820600000000  0.5596420000000  0.4662530000000 1.0
C      1  0.4436370000000  0.5861950000000  0.5316890000000 1.0
C      1  0.5596580000000  0.4145790000000  0.5342810000000 1.0
C      1  0.4445750000000  0.4121540000000  0.4707600000000 1.0
C      1  0.5594320000000  0.5827360000000  0.4651260000000 1.0
C      1  0.4305110000000  0.5515600000000  0.5825910000000 1.0
C      1  0.5671260000000  0.4509810000000  0.5823620000000 1.0
C      1  0.5671740000000  0.5487380000000  0.4171430000000 1.0
C      1  0.4294980000000  0.4498990000000  0.4192700000000 1.0
C      1  0.5459540000000  0.4308380000000  0.5814340000000 1.0
C      1  0.4510520000000  0.5717360000000  0.5834830000000 1.0
C      1  0.5461240000000  0.5685560000000  0.4176520000000 1.0
C      1  0.4496740000000  0.4292790000000  0.4167230000000 1.0
C      1  0.3977100000000  0.5359100000000  0.5203600000000 1.0
C      1  0.6055500000000  0.4620890000000  0.5216890000000 1.0
C      1  0.6023760000000  0.5389040000000  0.4779310000000 1.0
C      1  0.3944110000000  0.4613690000000  0.4756350000000 1.0
C      1  0.5401300000000  0.3962050000000  0.5236820000000 1.0
C      1  0.4639800000000  0.6045420000000  0.5227970000000 1.0
C      1  0.5416570000000  0.6025980000000  0.4785740000000 1.0
C      1  0.4653770000000  0.3943360000000  0.4785070000000 1.0
C      1  0.4850500000000  0.4634320000000  0.4058840000000 1.0
C      1  0.5103960000000  0.5335240000000  0.4104810000000 1.0
C      1  0.5098530000000  0.4637070000000  0.5873010000000 1.0
C      1  0.4877270000000  0.5340390000000  0.5864350000000 1.0
C      1  0.4659890000000  0.4853130000000  0.4150100000000 1.0
C      1  0.5343780000000  0.5117110000000  0.4093250000000 1.0
C      1  0.4654480000000  0.5149350000000  0.5927910000000 1.0
C      1  0.5340800000000  0.4883970000000  0.5899970000000 1.0
C      1  0.4607540000000  0.4730170000000  0.5157750000000 1.0
C      1  0.5412790000000  0.5233650000000  0.5190900000000 1.0
C      1  0.5470570000000  0.4801200000000  0.4789690000000 1.0
C      1  0.4567060000000  0.5234920000000  0.4781270000000 1.0
C      1  0.4801410000000  0.4532020000000  0.5217990000000 1.0
C      1  0.5217410000000  0.5440480000000  0.5223090000000 1.0
C      1  0.4755690000000  0.5465530000000  0.4751560000000 1.0
C      1  0.5272030000000  0.4595630000000  0.4840700000000 1.0
C      1  0.5591670000000  0.5240120000000  0.4936170000000 1.0
C      1  0.4452320000000  0.4741150000000  0.4924430000000 1.0
C      1  0.4469650000000  0.5178760000000  0.5118770000000 1.0
C      1  0.5618290000000  0.4764720000000  0.5068570000000 1.0
C      1  0.5249630000000  0.5607070000000  0.4938240000000 1.0
C      1  0.4822670000000  0.4464840000000  0.4860450000000 1.0
C      1  0.5267530000000  0.4410470000000  0.5061560000000 1.0
C      1  0.4762980000000  0.5615930000000  0.5048350000000 1.0
C      1  0.4632320000000  0.6158200000000  0.4952370000000 1.0
C      1  0.5438920000000  0.3910230000000  0.4953340000000 1.0
C      1  0.5462570000000  0.6098600000000  0.5068260000000 1.0
C      1  0.4623800000000  0.3833220000000  0.5051020000000 1.0
C      1  0.6090130000000  0.4567160000000  0.4922980000000 1.0
C      1  0.3873380000000  0.5408580000000  0.4937370000000 1.0
C      1  0.6108420000000  0.5423810000000  0.5059470000000 1.0
C      1  0.3888340000000  0.4592080000000  0.5048200000000 1.0
C      1  0.4826540000000  0.4623510000000  0.5973850000000 1.0
C      1  0.5163950000000  0.5364470000000  0.5953120000000 1.0
C      1  0.5137820000000  0.4628680000000  0.4056810000000 1.0
C      1  0.4832020000000  0.5355300000000  0.4003600000000 1.0
C      1  0.4665620000000  0.4866190000000  0.5979170000000 1.0
C      1  0.5374850000000  0.5170610000000  0.5960420000000 1.0
C      1  0.4654440000000  0.5137890000000  0.4033910000000 1.0
C      1  0.5344390000000  0.4831510000000  0.4041660000000 1.0
C      1  0.5256980000000  0.4408080000000  0.4213870000000 1.0
C      1  0.4650530000000  0.5532550000000  0.4251500000000 1.0
C      1  0.4627500000000  0.4496870000000  0.5769940000000 1.0
C      1  0.5242980000000  0.5574100000000  0.5770330000000 1.0
C      1  0.4514610000000  0.5277090000000  0.4245850000000 1.0
C      1  0.5565040000000  0.4755580000000  0.4218310000000 1.0
C      1  0.4477470000000  0.4743170000000  0.5805480000000 1.0
C      1  0.5589520000000  0.5273100000000  0.5791950000000 1.0
C      1  0.5155350000000  0.4111120000000  0.5312500000000 1.0
C      1  0.4856630000000  0.5856580000000  0.5197200000000 1.0
C      1  0.4885490000000  0.4168530000000  0.4856900000000 1.0
C      1  0.5174330000000  0.5860330000000  0.4816460000000 1.0
C      1  0.4177190000000  0.5146130000000  0.5145210000000 1.0
C      1  0.5871320000000  0.4852170000000  0.5195640000000 1.0
C      1  0.4052270000000  0.4850210000000  0.4608590000000 1.0
C      1  0.5850330000000  0.5153670000000  0.4800920000000 1.0
C      1  0.5004820000000  0.4778320000000  0.4486450000000 1.0
C      1  0.4992470000000  0.5186230000000  0.4403330000000 1.0
C      1  0.4997740000000  0.4792370000000  0.5577260000000 1.0
C      1  0.4980910000000  0.5191320000000  0.5545960000000 1.0
C      1  0.4790610000000  0.4969340000000  0.4452860000000 1.0
C      1  0.5201470000000  0.4983840000000  0.4437270000000 1.0
C      1  0.4776130000000  0.4990220000000  0.5525480000000 1.0
C      1  0.5197960000000  0.4999500000000  0.5603040000000 1.0
C      1  0.5119990000000  0.5942860000000  0.5266260000000 1.0
C      1  0.4932690000000  0.4086040000000  0.5141730000000 1.0
C      1  0.4919780000000  0.5959750000000  0.4740380000000 1.0
C      1  0.5124530000000  0.4050920000000  0.4726250000000 1.0
C      1  0.5973910000000  0.5103280000000  0.5282010000000 1.0
C      1  0.4068700000000  0.4907420000000  0.5249180000000 1.0
C      1  0.5941640000000  0.4895140000000  0.4715840000000 1.0
C      1  0.4078530000000  0.5100710000000  0.4753950000000 1.0
C      1  0.4503530000000  0.4070180000000  0.5189270000000 1.0
C      1  0.5636730000000  0.5883970000000  0.5194130000000 1.0
C      1  0.5551890000000  0.4126450000000  0.4795530000000 1.0
C      1  0.4515180000000  0.5940880000000  0.4794490000000 1.0
C      1  0.4085290000000  0.4438210000000  0.5200860000000 1.0
C      1  0.5877990000000  0.5545100000000  0.5201710000000 1.0
C      1  0.4070030000000  0.5587650000000  0.4808670000000 1.0
C      1  0.5886190000000  0.4377480000000  0.4808320000000 1.0
C      1  0.5682070000000  0.5509550000000  0.5667930000000 1.0
C      1  0.4191860000000  0.4451790000000  0.5469810000000 1.0
C      1  0.4196720000000  0.5570590000000  0.4540860000000 1.0
C      1  0.5710860000000  0.4528950000000  0.4317780000000 1.0
C      1  0.5473270000000  0.5710780000000  0.5670020000000 1.0
C      1  0.4408870000000  0.4330440000000  0.5631870000000 1.0
C      1  0.5505870000000  0.4329300000000  0.4331930000000 1.0
C      1  0.4426140000000  0.5680290000000  0.4389230000000 1.0
C      1  0.5278280000000  0.4543390000000  0.5313610000000 1.0
C      1  0.4761210000000  0.5429600000000  0.5271220000000 1.0
C      1  0.4670610000000  0.4489380000000  0.4620910000000 1.0
C      1  0.5255690000000  0.5467000000000  0.4685960000000 1.0
C      1  0.4507470000000  0.5351410000000  0.5347020000000 1.0
C      1  0.5478160000000  0.4741610000000  0.5318670000000 1.0
C      1  0.4493670000000  0.4706770000000  0.4637830000000 1.0
C      1  0.5446710000000  0.5268190000000  0.4685170000000 1.0
C      1  0.5795940000000  0.4874150000000  0.5674890000000 1.0
C      1  0.4217480000000  0.5141020000000  0.5679470000000 1.0
C      1  0.4220780000000  0.4927000000000  0.4377750000000 1.0
C      1  0.5758990000000  0.5128840000000  0.4354450000000 1.0
C      1  0.4863930000000  0.5745760000000  0.5625330000000 1.0
C      1  0.5057180000000  0.4210330000000  0.5581960000000 1.0
C      1  0.4866170000000  0.4195570000000  0.4320470000000 1.0
C      1  0.5089230000000  0.5754560000000  0.4357190000000 1.0
C      1  0.5109670000000  0.4293490000000  0.4404030000000 1.0
C      1  0.4821770000000  0.5656440000000  0.4470630000000 1.0
C      1  0.4804340000000  0.4343340000000  0.5502000000000 1.0
C      1  0.5112200000000  0.5635110000000  0.5522090000000 1.0
C      1  0.4401520000000  0.5151980000000  0.4474770000000 1.0
C      1  0.5638430000000  0.4891720000000  0.4458400000000 1.0
C      1  0.4309120000000  0.4882560000000  0.5641600000000 1.0
C      1  0.5670500000000  0.5117900000000  0.5557210000000 1.0
C      1  0.4994190000000  0.5094000000000  0.4904040000000 1.0
END
