TITL C-2441157-2117-782 0.208879555188346 125000 -23385.9621301891 0 0 191 (C1) n - 1
REM
REM in /home/bkarasulu/work/CARBON/AIRSS/Generating-Clusters/ReaxFF-fromJPCA2015/Units_Real/with-SteepDescent/Higher-Symm
REM
REM
REM
REM
REM
REM ./C.cell (1df0a924f5614ab8850e4351716899ee)
REM
REM compiler GCC version 9.2.1 20190827 (Red Hat 9.2.1-1)
REM options -cpp -mtune=generic -march=x86-64 -g -O0 -fpre-include=/usr/include/finclude/math-vector-fortran.h
REM seed -1429465922 183291676 1077140378 828445327 -390335570 1500238855 1994863914 -404551872 1351796624 -1325215875 -385114566 2055768398 -2068141262 627763417 -395350503 1300602529 1033574190 -1947764197 1701887159 1106480170 1366345565 -951099636 569558631 965990891 1934941578 1701399450 174021588 778493486 -801696345 -1958097918 -1362816857 1539838832 -1088171156
REM
CELL 1.54180   50.00000   50.00000   50.00000   90.00000   90.00000   90.00000
LATT -1
SFAC C  
C      1  0.5076300000000  0.4308410000000  0.4851890000000 1.0
C      1  0.5105870000000  0.4514850000000  0.5438080000000 1.0
C      1  0.5155910000000  0.5016060000000  0.5626170000000 1.0
C      1  0.5097420000000  0.5499850000000  0.5452340000000 1.0
C      1  0.5143920000000  0.5665350000000  0.4836020000000 1.0
C      1  0.5093880000000  0.5323550000000  0.4388090000000 1.0
C      1  0.5195140000000  0.4733720000000  0.4328030000000 1.0
C      1  0.5266620000000  0.4945320000000  0.4726480000000 1.0
C      1  0.5223640000000  0.4706990000000  0.4915630000000 1.0
C      1  0.5290580000000  0.4752230000000  0.5161730000000 1.0
C      1  0.5172510000000  0.4962790000000  0.5306600000000 1.0
C      1  0.5288800000000  0.5168370000000  0.5209370000000 1.0
C      1  0.5192200000000  0.5252060000000  0.5019600000000 1.0
C      1  0.5314540000000  0.5184490000000  0.4809810000000 1.0
C      1  0.6002710000000  0.4679840000000  0.4816410000000 1.0
C      1  0.6041570000000  0.4679260000000  0.5121230000000 1.0
C      1  0.6021780000000  0.4903380000000  0.5331920000000 1.0
C      1  0.6037870000000  0.5214570000000  0.5285920000000 1.0
C      1  0.5984020000000  0.5360020000000  0.5017500000000 1.0
C      1  0.6006590000000  0.5216770000000  0.4720180000000 1.0
C      1  0.6025660000000  0.4938400000000  0.4633270000000 1.0
C      1  0.4542160000000  0.4533270000000  0.4211760000000 1.0
C      1  0.4527770000000  0.4101960000000  0.4897150000000 1.0
C      1  0.4502060000000  0.4303210000000  0.5632850000000 1.0
C      1  0.4523750000000  0.5107340000000  0.5888790000000 1.0
C      1  0.4483320000000  0.5804470000000  0.5500500000000 1.0
C      1  0.4524020000000  0.5853920000000  0.4679120000000 1.0
C      1  0.4513350000000  0.5336420000000  0.4130580000000 1.0
C      1  0.5249570000000  0.4847370000000  0.6021140000000 1.0
C      1  0.5286880000000  0.5654170000000  0.5862210000000 1.0
C      1  0.5244290000000  0.6139950000000  0.4831490000000 1.0
C      1  0.5244380000000  0.5696480000000  0.4147150000000 1.0
C      1  0.5242770000000  0.4579400000000  0.3891990000000 1.0
C      1  0.5258350000000  0.3986800000000  0.4551530000000 1.0
C      1  0.5265570000000  0.4005940000000  0.5335710000000 1.0
C      1  0.4677510000000  0.4521760000000  0.5568260000000 1.0
C      1  0.4682960000000  0.5109750000000  0.5641330000000 1.0
C      1  0.4654430000000  0.5660270000000  0.5330320000000 1.0
C      1  0.4689020000000  0.5611880000000  0.4732100000000 1.0
C      1  0.4645800000000  0.5188060000000  0.4327430000000 1.0
C      1  0.4660100000000  0.4720900000000  0.4407050000000 1.0
C      1  0.4693930000000  0.4346120000000  0.4985170000000 1.0
C      1  0.4542580000000  0.5480530000000  0.4936950000000 1.0
C      1  0.4591500000000  0.5212120000000  0.4603330000000 1.0
C      1  0.4553820000000  0.4722860000000  0.4652380000000 1.0
C      1  0.4549040000000  0.4560280000000  0.4868560000000 1.0
C      1  0.4623620000000  0.4669080000000  0.5336600000000 1.0
C      1  0.4563490000000  0.4936300000000  0.5449670000000 1.0
C      1  0.4581220000000  0.5412240000000  0.5220100000000 1.0
C      1  0.5230410000000  0.5856060000000  0.4397450000000 1.0
C      1  0.5266850000000  0.5118370000000  0.3994040000000 1.0
C      1  0.5280770000000  0.4280990000000  0.4314160000000 1.0
C      1  0.5206320000000  0.3911790000000  0.5066900000000 1.0
C      1  0.5248260000000  0.4457620000000  0.5946790000000 1.0
C      1  0.5257120000000  0.5388460000000  0.5987060000000 1.0
C      1  0.5300990000000  0.5930570000000  0.5358030000000 1.0
C      1  0.4286770000000  0.5558460000000  0.4420110000000 1.0
C      1  0.4295730000000  0.4887040000000  0.4171010000000 1.0
C      1  0.4307620000000  0.4282960000000  0.4582610000000 1.0
C      1  0.4291600000000  0.4264510000000  0.5270490000000 1.0
C      1  0.4279190000000  0.4752200000000  0.5771300000000 1.0
C      1  0.4300460000000  0.5459370000000  0.5669920000000 1.0
C      1  0.4271940000000  0.5806740000000  0.5059460000000 1.0
C      1  0.4025090000000  0.5366430000000  0.4897270000000 1.0
C      1  0.4027490000000  0.5185470000000  0.4649630000000 1.0
C      1  0.4037860000000  0.4814250000000  0.4639910000000 1.0
C      1  0.4023350000000  0.4615710000000  0.4868570000000 1.0
C      1  0.4004390000000  0.4728410000000  0.5268330000000 1.0
C      1  0.3985880000000  0.4999230000000  0.5401730000000 1.0
C      1  0.4016270000000  0.5275290000000  0.5273730000000 1.0
C      1  0.4787810000000  0.4946630000000  0.4286980000000 1.0
C      1  0.4816260000000  0.4352790000000  0.4432780000000 1.0
C      1  0.4824010000000  0.4082000000000  0.5270230000000 1.0
C      1  0.4837480000000  0.4619510000000  0.5785160000000 1.0
C      1  0.4857210000000  0.5404500000000  0.5868640000000 1.0
C      1  0.4844800000000  0.5824400000000  0.5195230000000 1.0
C      1  0.4782460000000  0.5741960000000  0.4295690000000 1.0
C      1  0.4284100000000  0.4786030000000  0.5201970000000 1.0
C      1  0.4375830000000  0.5006660000000  0.5284120000000 1.0
C      1  0.4310180000000  0.5237210000000  0.5210120000000 1.0
C      1  0.4308460000000  0.5291730000000  0.4932810000000 1.0
C      1  0.4334940000000  0.5128820000000  0.4715280000000 1.0
C      1  0.4315490000000  0.4866890000000  0.4736320000000 1.0
C      1  0.4298140000000  0.4693940000000  0.4962600000000 1.0
C      1  0.4927950000000  0.4971500000000  0.5247700000000 1.0
C      1  0.4791150000000  0.5192960000000  0.5187990000000 1.0
C      1  0.4945900000000  0.5343400000000  0.5017530000000 1.0
C      1  0.4851010000000  0.5226350000000  0.4733240000000 1.0
C      1  0.4985660000000  0.4973500000000  0.4662490000000 1.0
C      1  0.4955020000000  0.4729240000000  0.4797330000000 1.0
C      1  0.4812430000000  0.4765510000000  0.5110480000000 1.0
C      1  0.4984250000000  0.5098650000000  0.3948780000000 1.0
C      1  0.4996550000000  0.4317760000000  0.4234350000000 1.0
C      1  0.4930450000000  0.3930560000000  0.5022670000000 1.0
C      1  0.4984800000000  0.4382080000000  0.5880110000000 1.0
C      1  0.5001920000000  0.5258320000000  0.6072430000000 1.0
C      1  0.5025440000000  0.5954750000000  0.5415960000000 1.0
C      1  0.4961140000000  0.5898980000000  0.4474980000000 1.0
C      1  0.4526620000000  0.5596790000000  0.4262030000000 1.0
C      1  0.4523020000000  0.4764580000000  0.4029390000000 1.0
C      1  0.4519540000000  0.4074630000000  0.4611230000000 1.0
C      1  0.4528960000000  0.4155410000000  0.5388970000000 1.0
C      1  0.4480710000000  0.4848630000000  0.5957810000000 1.0
C      1  0.4504030000000  0.5658980000000  0.5745140000000 1.0
C      1  0.4485930000000  0.5969430000000  0.4939100000000 1.0
C      1  0.4149010000000  0.4723820000000  0.4375350000000 1.0
C      1  0.4125060000000  0.4349140000000  0.4807140000000 1.0
C      1  0.4120260000000  0.4480400000000  0.5397310000000 1.0
C      1  0.4128510000000  0.4980270000000  0.5656430000000 1.0
C      1  0.4127290000000  0.5501370000000  0.5439760000000 1.0
C      1  0.4114760000000  0.5646990000000  0.4872090000000 1.0
C      1  0.4132060000000  0.5308130000000  0.4402370000000 1.0
C      1  0.4980090000000  0.5731900000000  0.5595830000000 1.0
C      1  0.4982360000000  0.5948600000000  0.4779580000000 1.0
C      1  0.4922720000000  0.5336950000000  0.4117070000000 1.0
C      1  0.5017490000000  0.4594350000000  0.4099940000000 1.0
C      1  0.4974930000000  0.4037000000000  0.4747280000000 1.0
C      1  0.5009130000000  0.4289770000000  0.5611090000000 1.0
C      1  0.4981930000000  0.4960630000000  0.6057910000000 1.0
C      1  0.5880000000000  0.5397470000000  0.4559080000000 1.0
C      1  0.5862710000000  0.4851520000000  0.4412560000000 1.0
C      1  0.5865510000000  0.4449320000000  0.4694150000000 1.0
C      1  0.5908380000000  0.4469050000000  0.5243500000000 1.0
C      1  0.5874490000000  0.4809420000000  0.5570000000000 1.0
C      1  0.5898590000000  0.5348890000000  0.5475900000000 1.0
C      1  0.5886010000000  0.5637910000000  0.5000660000000 1.0
C      1  0.5585440000000  0.4158040000000  0.4775190000000 1.0
C      1  0.5612730000000  0.4298270000000  0.5580950000000 1.0
C      1  0.5618140000000  0.4981860000000  0.5889200000000 1.0
C      1  0.5595980000000  0.5647330000000  0.5591620000000 1.0
C      1  0.5590100000000  0.5896080000000  0.4861020000000 1.0
C      1  0.5573840000000  0.5443560000000  0.4209580000000 1.0
C      1  0.5607570000000  0.4635500000000  0.4163090000000 1.0
C      1  0.4274820000000  0.5200800000000  0.5782280000000 1.0
C      1  0.4240030000000  0.5750060000000  0.5342480000000 1.0
C      1  0.4259780000000  0.5734420000000  0.4639380000000 1.0
C      1  0.4266720000000  0.5179310000000  0.4179540000000 1.0
C      1  0.4284810000000  0.4472340000000  0.4360370000000 1.0
C      1  0.4263160000000  0.4176280000000  0.4996180000000 1.0
C      1  0.4259020000000  0.4492240000000  0.5644800000000 1.0
C      1  0.4764810000000  0.6000890000000  0.4977780000000 1.0
C      1  0.4965440000000  0.5636570000000  0.4094460000000 1.0
C      1  0.4810660000000  0.4845270000000  0.3987060000000 1.0
C      1  0.4793100000000  0.4084750000000  0.4509720000000 1.0
C      1  0.5016770000000  0.4038230000000  0.5477820000000 1.0
C      1  0.4748130000000  0.4794360000000  0.6011330000000 1.0
C      1  0.4782950000000  0.5671470000000  0.5802590000000 1.0
C      1  0.5408980000000  0.4878680000000  0.4170170000000 1.0
C      1  0.5381480000000  0.4376670000000  0.4759490000000 1.0
C      1  0.5483090000000  0.4205000000000  0.5334780000000 1.0
C      1  0.5451590000000  0.4755930000000  0.5787550000000 1.0
C      1  0.5382620000000  0.5443010000000  0.5532290000000 1.0
C      1  0.5423980000000  0.5815910000000  0.5103200000000 1.0
C      1  0.5364740000000  0.5439020000000  0.4437070000000 1.0
C      1  0.5402480000000  0.5988170000000  0.4643990000000 1.0
C      1  0.5361100000000  0.5389220000000  0.4024860000000 1.0
C      1  0.5424620000000  0.4430650000000  0.4074700000000 1.0
C      1  0.5386650000000  0.3946960000000  0.4815100000000 1.0
C      1  0.5427700000000  0.4331860000000  0.5787260000000 1.0
C      1  0.5393030000000  0.5108910000000  0.6019470000000 1.0
C      1  0.5382860000000  0.5832590000000  0.5637160000000 1.0
C      1  0.5465080000000  0.5172220000000  0.5566110000000 1.0
C      1  0.5543530000000  0.5570160000000  0.5200250000000 1.0
C      1  0.5441520000000  0.5551100000000  0.4692830000000 1.0
C      1  0.5586870000000  0.5017470000000  0.4377300000000 1.0
C      1  0.5387900000000  0.4494760000000  0.4490150000000 1.0
C      1  0.5528400000000  0.4391420000000  0.5114660000000 1.0
C      1  0.5391850000000  0.4640710000000  0.5527430000000 1.0
C      1  0.4952510000000  0.4482080000000  0.4655120000000 1.0
C      1  0.4943760000000  0.4349480000000  0.5135470000000 1.0
C      1  0.5024000000000  0.4751650000000  0.5595760000000 1.0
C      1  0.4942510000000  0.5250260000000  0.5623760000000 1.0
C      1  0.5034010000000  0.5603970000000  0.5110890000000 1.0
C      1  0.4960520000000  0.5495600000000  0.4639630000000 1.0
C      1  0.5045140000000  0.4990890000000  0.4408400000000 1.0
C      1  0.5511470000000  0.4657800000000  0.5266650000000 1.0
C      1  0.5687460000000  0.4918630000000  0.5240760000000 1.0
C      1  0.5532950000000  0.5155190000000  0.5278100000000 1.0
C      1  0.5646170000000  0.5337310000000  0.5076110000000 1.0
C      1  0.5546410000000  0.5313790000000  0.4812480000000 1.0
C      1  0.5496280000000  0.4881070000000  0.4611770000000 1.0
C      1  0.5669880000000  0.4803780000000  0.4785390000000 1.0
C      1  0.5760280000000  0.5087580000000  0.5648360000000 1.0
C      1  0.5792760000000  0.5605150000000  0.5369920000000 1.0
C      1  0.5772410000000  0.5678240000000  0.4742480000000 1.0
C      1  0.5775260000000  0.5264960000000  0.4330520000000 1.0
C      1  0.5728400000000  0.4571450000000  0.4433460000000 1.0
C      1  0.5774060000000  0.4312060000000  0.4942720000000 1.0
C      1  0.5805510000000  0.4532860000000  0.5507030000000 1.0
C      1  0.4638660000000  0.4986010000000  0.4995930000000 1.0
C      1  0.5683440000000  0.4902770000000  0.5000350000000 1.0
END
