TITL C-2441159-1093-1147 0.0215656677625114 125000 -20298.2486871185 0 0 138 (C1) n - 1
REM
REM in /home/bkarasulu/work/CARBON/AIRSS/Generating-Clusters/ReaxFF-fromJPCA2015/Units_Real/with-SteepDescent/Higher-Symm
REM
REM
REM
REM
REM
REM ./C.cell (1df0a924f5614ab8850e4351716899ee)
REM
REM compiler GCC version 9.2.1 20190827 (Red Hat 9.2.1-1)
REM options -cpp -mtune=generic -march=x86-64 -g -O0 -fpre-include=/usr/include/finclude/math-vector-fortran.h
REM seed -1860414656 945253206 -1861959229 -1911279987 -717944393 458664571 2138159438 -1103215319 -679753798 709159227 -158395747 1198882075 -1386487716 -1279924932 -328159775 1304807909 174293800 1477175871 1165501050 -923145539 705576486 1053078349 1966070789 -1011116721 -560619990 -820170771 388532853 1486078382 -445349187 -465781362 -745009473 -202883471 1851248333
REM
CELL 1.54180   50.00000   50.00000   50.00000   90.00000   90.00000   90.00000
LATT -1
SFAC C  
C      1  0.4479080000000  0.4303700000000  0.4841130000000 1.0
C      1  0.4437500000000  0.4763020000000  0.5701960000000 1.0
C      1  0.4437540000000  0.5737720000000  0.5159630000000 1.0
C      1  0.4452500000000  0.5198250000000  0.4311510000000 1.0
C      1  0.5581120000000  0.4303070000000  0.5144990000000 1.0
C      1  0.5586070000000  0.4801790000000  0.4326690000000 1.0
C      1  0.5588210000000  0.5668820000000  0.4877850000000 1.0
C      1  0.5479410000000  0.5134720000000  0.5697750000000 1.0
C      1  0.4551980000000  0.4463360000000  0.5091270000000 1.0
C      1  0.4558250000000  0.5152080000000  0.5481860000000 1.0
C      1  0.4579070000000  0.5503470000000  0.4832000000000 1.0
C      1  0.4587250000000  0.4843460000000  0.4527740000000 1.0
C      1  0.5389520000000  0.4550770000000  0.4793370000000 1.0
C      1  0.5489870000000  0.5225140000000  0.4478440000000 1.0
C      1  0.5372210000000  0.5463080000000  0.5169960000000 1.0
C      1  0.5411830000000  0.4718980000000  0.5395220000000 1.0
C      1  0.4910130000000  0.4684330000000  0.4905560000000 1.0
C      1  0.4860860000000  0.4901320000000  0.5385550000000 1.0
C      1  0.4866440000000  0.5297420000000  0.5115720000000 1.0
C      1  0.4939940000000  0.5105670000000  0.4693760000000 1.0
C      1  0.5081090000000  0.4663410000000  0.5109130000000 1.0
C      1  0.5076590000000  0.4862120000000  0.4701810000000 1.0
C      1  0.5056920000000  0.5300020000000  0.4880850000000 1.0
C      1  0.5033850000000  0.5093050000000  0.5293780000000 1.0
C      1  0.4697520000000  0.5843400000000  0.5560800000000 1.0
C      1  0.4707810000000  0.5572250000000  0.4185080000000 1.0
C      1  0.4693370000000  0.4162670000000  0.4404400000000 1.0
C      1  0.4709460000000  0.4411850000000  0.5846180000000 1.0
C      1  0.5283770000000  0.5841980000000  0.4482890000000 1.0
C      1  0.5276080000000  0.5579840000000  0.5827760000000 1.0
C      1  0.5308070000000  0.4215450000000  0.5564170000000 1.0
C      1  0.5284660000000  0.4449630000000  0.4178350000000 1.0
C      1  0.4110820000000  0.4487200000000  0.4946840000000 1.0
C      1  0.4114020000000  0.4974050000000  0.5526610000000 1.0
C      1  0.4143210000000  0.5474710000000  0.5044280000000 1.0
C      1  0.4141560000000  0.5018830000000  0.4508660000000 1.0
C      1  0.5922580000000  0.4534360000000  0.5120860000000 1.0
C      1  0.5923920000000  0.4792760000000  0.4650920000000 1.0
C      1  0.5920660000000  0.5298650000000  0.4758650000000 1.0
C      1  0.5830380000000  0.5041390000000  0.5505510000000 1.0
C      1  0.5029610000000  0.4472610000000  0.5289150000000 1.0
C      1  0.5025000000000  0.5299510000000  0.5511270000000 1.0
C      1  0.5048630000000  0.5522450000000  0.4690200000000 1.0
C      1  0.5063680000000  0.4731710000000  0.4455540000000 1.0
C      1  0.4924590000000  0.4456000000000  0.4722250000000 1.0
C      1  0.4983310000000  0.5308220000000  0.4481930000000 1.0
C      1  0.4912440000000  0.5543570000000  0.5265170000000 1.0
C      1  0.4926970000000  0.4687640000000  0.5535840000000 1.0
C      1  0.5334090000000  0.5275570000000  0.4963600000000 1.0
C      1  0.5465800000000  0.5114500000000  0.4771360000000 1.0
C      1  0.5358760000000  0.4852180000000  0.4848890000000 1.0
C      1  0.5268380000000  0.4866950000000  0.5173810000000 1.0
C      1  0.4631040000000  0.5248610000000  0.4941340000000 1.0
C      1  0.4611070000000  0.4933210000000  0.5298140000000 1.0
C      1  0.4619900000000  0.4792590000000  0.5036690000000 1.0
C      1  0.4617670000000  0.4987750000000  0.4796080000000 1.0
C      1  0.5768820000000  0.5541450000000  0.4684980000000 1.0
C      1  0.5756930000000  0.4628290000000  0.4477090000000 1.0
C      1  0.5794160000000  0.4393860000000  0.5328480000000 1.0
C      1  0.5680000000000  0.5279200000000  0.5577990000000 1.0
C      1  0.4240810000000  0.5595060000000  0.5294490000000 1.0
C      1  0.4197570000000  0.4693300000000  0.5609100000000 1.0
C      1  0.4248950000000  0.4411620000000  0.4699280000000 1.0
C      1  0.4236080000000  0.5300060000000  0.4435340000000 1.0
C      1  0.4531630000000  0.4383570000000  0.4293120000000 1.0
C      1  0.4537800000000  0.4297040000000  0.5629910000000 1.0
C      1  0.4529900000000  0.5642960000000  0.5703050000000 1.0
C      1  0.4541950000000  0.5699490000000  0.4388050000000 1.0
C      1  0.5472530000000  0.4383770000000  0.5737130000000 1.0
C      1  0.5444610000000  0.4284660000000  0.4364920000000 1.0
C      1  0.5437980000000  0.5669990000000  0.4298930000000 1.0
C      1  0.5444550000000  0.5708270000000  0.5620920000000 1.0
C      1  0.4936900000000  0.5050040000000  0.5913940000000 1.0
C      1  0.4872600000000  0.5976840000000  0.4888950000000 1.0
C      1  0.4847620000000  0.5001100000000  0.4079490000000 1.0
C      1  0.4896130000000  0.4027550000000  0.5054220000000 1.0
C      1  0.5157350000000  0.5007540000000  0.4077020000000 1.0
C      1  0.5149550000000  0.5930630000000  0.4987220000000 1.0
C      1  0.5185400000000  0.4929790000000  0.5875690000000 1.0
C      1  0.5150200000000  0.4062820000000  0.4940520000000 1.0
C      1  0.5663370000000  0.4360950000000  0.4554320000000 1.0
C      1  0.5708280000000  0.4509760000000  0.5606100000000 1.0
C      1  0.5645970000000  0.5569470000000  0.5456160000000 1.0
C      1  0.5623420000000  0.5498460000000  0.4438780000000 1.0
C      1  0.4303320000000  0.4430020000000  0.5489760000000 1.0
C      1  0.4322830000000  0.4535300000000  0.4440600000000 1.0
C      1  0.4312910000000  0.5577810000000  0.4533170000000 1.0
C      1  0.4317370000000  0.5487900000000  0.5567690000000 1.0
C      1  0.5989710000000  0.4739190000000  0.4933910000000 1.0
C      1  0.6000380000000  0.5106090000000  0.5284360000000 1.0
C      1  0.5983620000000  0.5265190000000  0.5037090000000 1.0
C      1  0.5895750000000  0.5069480000000  0.4577810000000 1.0
C      1  0.3964080000000  0.4729650000000  0.4903670000000 1.0
C      1  0.3991250000000  0.4960840000000  0.4745600000000 1.0
C      1  0.4004730000000  0.5225150000000  0.5075680000000 1.0
C      1  0.3983040000000  0.5032910000000  0.5280150000000 1.0
C      1  0.4798100000000  0.4278230000000  0.5230520000000 1.0
C      1  0.4790920000000  0.5241100000000  0.5698430000000 1.0
C      1  0.4806090000000  0.5682260000000  0.4755010000000 1.0
C      1  0.4803590000000  0.4769280000000  0.4336230000000 1.0
C      1  0.5178730000000  0.4318890000000  0.4742040000000 1.0
C      1  0.5213050000000  0.5264480000000  0.4283280000000 1.0
C      1  0.5167850000000  0.5671660000000  0.5239810000000 1.0
C      1  0.5198710000000  0.4724550000000  0.5657340000000 1.0
C      1  0.4331570000000  0.4825620000000  0.4421710000000 1.0
C      1  0.4281260000000  0.4423930000000  0.5198250000000 1.0
C      1  0.4303080000000  0.5196490000000  0.5600260000000 1.0
C      1  0.4308200000000  0.5585730000000  0.4829170000000 1.0
C      1  0.5661860000000  0.4791900000000  0.5542150000000 1.0
C      1  0.5619540000000  0.4392910000000  0.4857920000000 1.0
C      1  0.5686910000000  0.5051540000000  0.4384340000000 1.0
C      1  0.5638370000000  0.5581280000000  0.5159810000000 1.0
C      1  0.4756820000000  0.5850520000000  0.4518810000000 1.0
C      1  0.4758350000000  0.4512970000000  0.4175100000000 1.0
C      1  0.4763700000000  0.4163880000000  0.5506670000000 1.0
C      1  0.4751610000000  0.5514200000000  0.5835020000000 1.0
C      1  0.5215360000000  0.5831720000000  0.5491180000000 1.0
C      1  0.5240650000000  0.4520890000000  0.5857870000000 1.0
C      1  0.5212770000000  0.4155770000000  0.4477640000000 1.0
C      1  0.5226900000000  0.5528450000000  0.4150210000000 1.0
C      1  0.4717380000000  0.5274000000000  0.4236660000000 1.0
C      1  0.4718630000000  0.4255240000000  0.4682620000000 1.0
C      1  0.4701780000000  0.4689920000000  0.5757060000000 1.0
C      1  0.4693660000000  0.5760820000000  0.5276030000000 1.0
C      1  0.5245020000000  0.5297960000000  0.5732310000000 1.0
C      1  0.5347940000000  0.4383450000000  0.5321030000000 1.0
C      1  0.5296710000000  0.4742400000000  0.4257380000000 1.0
C      1  0.5320000000000  0.5733890000000  0.4754860000000 1.0
C      1  0.5000560000000  0.4346040000000  0.5865690000000 1.0
C      1  0.4974630000000  0.5872590000000  0.5655420000000 1.0
C      1  0.4977410000000  0.5683910000000  0.4153510000000 1.0
C      1  0.4973850000000  0.4134260000000  0.4309900000000 1.0
C      1  0.5008530000000  0.4362110000000  0.4132830000000 1.0
C      1  0.5011650000000  0.5872980000000  0.4374320000000 1.0
C      1  0.4998860000000  0.5672950000000  0.5865430000000 1.0
C      1  0.5029880000000  0.4160680000000  0.5650830000000 1.0
C      1  0.4138890000000  0.4978050000000  0.5001650000000 1.0
C      1  0.5919720000000  0.4995030000000  0.5069320000000 1.0
END
