TITL C-2441159-1093-99 0.0255090838397247 125000 -15104.7474596061 0 0 104 (C1) n - 1
REM
REM in /home/bkarasulu/work/CARBON/AIRSS/Generating-Clusters/ReaxFF-fromJPCA2015/Units_Real/with-SteepDescent/Higher-Symm
REM
REM
REM
REM
REM
REM ./C.cell (1df0a924f5614ab8850e4351716899ee)
REM
REM compiler GCC version 9.2.1 20190827 (Red Hat 9.2.1-1)
REM options -cpp -mtune=generic -march=x86-64 -g -O0 -fpre-include=/usr/include/finclude/math-vector-fortran.h
REM seed -220293187 988603415 -102473357 2143630870 -166435752 -944335553 1309702669 -1055776410 -1437862345 -552409989 417050933 -327800548 -832379066 632558202 1584665555 -490989755 -487059577 838620142 1580758377 -1194350632 171835297 -1158609839 1437730243 -1716346068 1678043383 690851586 -688548560 312535876 -1099420189 2123638928 -1882480307 923534508 -1840346416
REM
CELL 1.54180   50.00000   50.00000   50.00000   90.00000   90.00000   90.00000
LATT -1
SFAC C  
C      1  0.5450840000000  0.5505810000000  0.4421210000000 1.0
C      1  0.4538270000000  0.4495780000000  0.5600510000000 1.0
C      1  0.5342620000000  0.4755720000000  0.4799110000000 1.0
C      1  0.4649280000000  0.5270350000000  0.5128910000000 1.0
C      1  0.5547440000000  0.5294460000000  0.5654280000000 1.0
C      1  0.4467540000000  0.4703090000000  0.4329730000000 1.0
C      1  0.5375590000000  0.5684860000000  0.4633510000000 1.0
C      1  0.4614420000000  0.4334690000000  0.5375470000000 1.0
C      1  0.4345000000000  0.5423490000000  0.4486540000000 1.0
C      1  0.5613320000000  0.4568490000000  0.5516600000000 1.0
C      1  0.4249050000000  0.5269910000000  0.5239820000000 1.0
C      1  0.5751680000000  0.4725020000000  0.4747240000000 1.0
C      1  0.4362700000000  0.5450970000000  0.4779320000000 1.0
C      1  0.5552550000000  0.4597070000000  0.5198120000000 1.0
C      1  0.5522400000000  0.4575680000000  0.4620900000000 1.0
C      1  0.4490370000000  0.5424520000000  0.5351520000000 1.0
C      1  0.5087980000000  0.5728850000000  0.4658860000000 1.0
C      1  0.4902840000000  0.4278600000000  0.5377890000000 1.0
C      1  0.4394570000000  0.4927900000000  0.5603280000000 1.0
C      1  0.5600390000000  0.5084360000000  0.4406460000000 1.0
C      1  0.4622540000000  0.5437190000000  0.4892830000000 1.0
C      1  0.5317790000000  0.4569390000000  0.5016460000000 1.0
C      1  0.4731180000000  0.4647850000000  0.5756340000000 1.0
C      1  0.5248920000000  0.5348970000000  0.4279850000000 1.0
C      1  0.5075240000000  0.4463120000000  0.5522190000000 1.0
C      1  0.4904340000000  0.5571950000000  0.4502460000000 1.0
C      1  0.4228340000000  0.4694640000000  0.4811020000000 1.0
C      1  0.5796390000000  0.5291950000000  0.5166670000000 1.0
C      1  0.5515560000000  0.5670290000000  0.5374280000000 1.0
C      1  0.4505910000000  0.4323150000000  0.4631280000000 1.0
C      1  0.5066760000000  0.5142250000000  0.5772250000000 1.0
C      1  0.4952530000000  0.4841430000000  0.4199800000000 1.0
C      1  0.4553800000000  0.4216760000000  0.4893680000000 1.0
C      1  0.5465730000000  0.5801070000000  0.5116350000000 1.0
C      1  0.4381840000000  0.4971720000000  0.4254850000000 1.0
C      1  0.5613450000000  0.5021540000000  0.5735900000000 1.0
C      1  0.4199520000000  0.4715000000000  0.5306500000000 1.0
C      1  0.5790400000000  0.5281030000000  0.4749890000000 1.0
C      1  0.5324320000000  0.5072160000000  0.4321980000000 1.0
C      1  0.4669690000000  0.4920000000000  0.5697100000000 1.0
C      1  0.4985230000000  0.4895460000000  0.4471070000000 1.0
C      1  0.5027650000000  0.5010200000000  0.5522500000000 1.0
C      1  0.4801210000000  0.5355580000000  0.4672800000000 1.0
C      1  0.5125580000000  0.4750860000000  0.5416170000000 1.0
C      1  0.5087340000000  0.5429130000000  0.5021880000000 1.0
C      1  0.5029150000000  0.4528690000000  0.5024550000000 1.0
C      1  0.5277740000000  0.5767970000000  0.5526070000000 1.0
C      1  0.4737520000000  0.4236460000000  0.4486170000000 1.0
C      1  0.5205410000000  0.4208620000000  0.4587630000000 1.0
C      1  0.4792590000000  0.5799180000000  0.5413890000000 1.0
C      1  0.4986020000000  0.5453100000000  0.4267230000000 1.0
C      1  0.5001540000000  0.4540950000000  0.5789410000000 1.0
C      1  0.5444250000000  0.4279690000000  0.4727080000000 1.0
C      1  0.4556990000000  0.5731130000000  0.5269870000000 1.0
C      1  0.4657910000000  0.5388690000000  0.5626520000000 1.0
C      1  0.5354330000000  0.4602040000000  0.4348850000000 1.0
C      1  0.4815270000000  0.4100840000000  0.4909320000000 1.0
C      1  0.5191420000000  0.5908450000000  0.5107530000000 1.0
C      1  0.4460280000000  0.4350470000000  0.5126040000000 1.0
C      1  0.5535360000000  0.5657660000000  0.4879190000000 1.0
C      1  0.5157610000000  0.4405080000000  0.4361360000000 1.0
C      1  0.4847590000000  0.5590140000000  0.5629210000000 1.0
C      1  0.4200380000000  0.5258040000000  0.4951090000000 1.0
C      1  0.5790530000000  0.4748170000000  0.5032820000000 1.0
C      1  0.5690070000000  0.4994370000000  0.4675910000000 1.0
C      1  0.4336450000000  0.4988890000000  0.5307830000000 1.0
C      1  0.5639190000000  0.5398110000000  0.4946710000000 1.0
C      1  0.4263950000000  0.4556390000000  0.5072510000000 1.0
C      1  0.5440860000000  0.4865020000000  0.5297840000000 1.0
C      1  0.4581620000000  0.5101520000000  0.4636190000000 1.0
C      1  0.5649490000000  0.5418080000000  0.5412380000000 1.0
C      1  0.4371960000000  0.4572400000000  0.4575950000000 1.0
C      1  0.5046520000000  0.5707510000000  0.4949090000000 1.0
C      1  0.4981250000000  0.4246410000000  0.5099240000000 1.0
C      1  0.5280520000000  0.5348290000000  0.5771980000000 1.0
C      1  0.4730830000000  0.4640380000000  0.4209960000000 1.0
C      1  0.5688130000000  0.5346270000000  0.4480300000000 1.0
C      1  0.4317230000000  0.4662200000000  0.5554220000000 1.0
C      1  0.4765490000000  0.5173370000000  0.5788380000000 1.0
C      1  0.5257500000000  0.4824250000000  0.4189100000000 1.0
C      1  0.4320940000000  0.5127550000000  0.4501030000000 1.0
C      1  0.5650250000000  0.4850850000000  0.5506320000000 1.0
C      1  0.4622040000000  0.4897530000000  0.4834110000000 1.0
C      1  0.5413970000000  0.5114490000000  0.5126000000000 1.0
C      1  0.5016800000000  0.4993480000000  0.4873830000000 1.0
C      1  0.5008690000000  0.5005100000000  0.5120700000000 1.0
C      1  0.4928420000000  0.4109280000000  0.4648660000000 1.0
C      1  0.5076490000000  0.5907030000000  0.5370340000000 1.0
C      1  0.4761140000000  0.5357920000000  0.4124970000000 1.0
C      1  0.5241540000000  0.4652300000000  0.5917240000000 1.0
C      1  0.5068660000000  0.5260060000000  0.4789220000000 1.0
C      1  0.4911160000000  0.4749660000000  0.5195800000000 1.0
C      1  0.5461300000000  0.4841790000000  0.5907780000000 1.0
C      1  0.4533110000000  0.5171590000000  0.4104450000000 1.0
C      1  0.4614650000000  0.4977960000000  0.5118430000000 1.0
C      1  0.5405500000000  0.5034220000000  0.4846100000000 1.0
C      1  0.4500640000000  0.5430900000000  0.4232320000000 1.0
C      1  0.5494430000000  0.4575640000000  0.5780430000000 1.0
C      1  0.5138470000000  0.5587530000000  0.5704790000000 1.0
C      1  0.4868070000000  0.4407350000000  0.4301450000000 1.0
C      1  0.5830640000000  0.5010680000000  0.5122280000000 1.0
C      1  0.4158090000000  0.4979990000000  0.4849120000000 1.0
C      1  0.5156320000000  0.5232580000000  0.5240850000000 1.0
C      1  0.4885590000000  0.4783340000000  0.4716970000000 1.0
END
