TITL C-2441169-1362-1271 -0.00329249521030608 125000 -9047.32176435513 0 0 63 (C1) n - 1
REM
REM in /home/bkarasulu/work/CARBON/AIRSS/Generating-Clusters/ReaxFF-fromJPCA2015/Units_Real/with-SteepDescent/Higher-Symm
REM
REM
REM
REM
REM
REM ./C.cell (1df0a924f5614ab8850e4351716899ee)
REM
REM compiler GCC version 9.2.1 20190827 (Red Hat 9.2.1-1)
REM options -cpp -mtune=generic -march=x86-64 -g -O0 -fpre-include=/usr/include/finclude/math-vector-fortran.h
REM seed -562760047 -303370657 1707599531 -1829539155 -777301156 -83263920 -1016211238 -1397228805 -1102008827 -699933284 -886141124 537977291 -592222666 -855788130 -102033471 1762811059 -1272029443 -1217369998 712135229 1611559409 -2140212715 2120323413 26345659 -762918521 -1949692827 -1435944460 -212829940 -109948284 1758380486 501840465 1489769835 1264669083 2122719693
REM
CELL 1.54180   50.00000   50.00000   50.00000   90.00000   90.00000   90.00000
LATT -1
SFAC C  
C      1  0.4985450000000  0.5107880000000  0.5399690000000 1.0
C      1  0.4870680000000  0.5297870000000  0.5225630000000 1.0
C      1  0.4854020000000  0.5361120000000  0.4965860000000 1.0
C      1  0.4925710000000  0.5275090000000  0.4705330000000 1.0
C      1  0.4914390000000  0.5025670000000  0.4562680000000 1.0
C      1  0.4959190000000  0.4764180000000  0.4638280000000 1.0
C      1  0.4863650000000  0.4648450000000  0.4874520000000 1.0
C      1  0.4883120000000  0.4666260000000  0.5149290000000 1.0
C      1  0.4884290000000  0.4849890000000  0.5354660000000 1.0
C      1  0.5351180000000  0.5297830000000  0.5613380000000 1.0
C      1  0.5376980000000  0.5624960000000  0.5265870000000 1.0
C      1  0.5386300000000  0.5670960000000  0.4819990000000 1.0
C      1  0.5474070000000  0.5428720000000  0.4439960000000 1.0
C      1  0.5393510000000  0.4984630000000  0.4310210000000 1.0
C      1  0.5342760000000  0.4505610000000  0.4534110000000 1.0
C      1  0.5376350000000  0.4320330000000  0.4962740000000 1.0
C      1  0.5367370000000  0.4467190000000  0.5405220000000 1.0
C      1  0.5461250000000  0.4808140000000  0.5703150000000 1.0
C      1  0.4692680000000  0.5614580000000  0.4944240000000 1.0
C      1  0.4698150000000  0.5443760000000  0.4558230000000 1.0
C      1  0.4590750000000  0.5035460000000  0.4317990000000 1.0
C      1  0.4603890000000  0.4662610000000  0.4458190000000 1.0
C      1  0.4695440000000  0.4402550000000  0.4833480000000 1.0
C      1  0.4715900000000  0.4446770000000  0.5255310000000 1.0
C      1  0.4713770000000  0.4745430000000  0.5572850000000 1.0
C      1  0.4605550000000  0.5235840000000  0.5615190000000 1.0
C      1  0.4677640000000  0.5460680000000  0.5423540000000 1.0
C      1  0.4439690000000  0.5091580000000  0.5414200000000 1.0
C      1  0.4438740000000  0.5332380000000  0.5246780000000 1.0
C      1  0.4452940000000  0.5434800000000  0.4977590000000 1.0
C      1  0.4484760000000  0.5316290000000  0.4706310000000 1.0
C      1  0.4444250000000  0.5037540000000  0.4565570000000 1.0
C      1  0.4418860000000  0.4746290000000  0.4652490000000 1.0
C      1  0.4460700000000  0.4568000000000  0.4891520000000 1.0
C      1  0.4467690000000  0.4589600000000  0.5184560000000 1.0
C      1  0.4482160000000  0.4796270000000  0.5398260000000 1.0
C      1  0.5149680000000  0.5147700000000  0.4245000000000 1.0
C      1  0.5074110000000  0.4381990000000  0.4509690000000 1.0
C      1  0.5094130000000  0.4223500000000  0.4989780000000 1.0
C      1  0.5090340000000  0.4375960000000  0.5476470000000 1.0
C      1  0.5190420000000  0.4700460000000  0.5718910000000 1.0
C      1  0.5080300000000  0.5407810000000  0.5670630000000 1.0
C      1  0.5090470000000  0.5719900000000  0.5272430000000 1.0
C      1  0.5102950000000  0.5725320000000  0.4770990000000 1.0
C      1  0.5189600000000  0.5415180000000  0.4353810000000 1.0
C      1  0.4944770000000  0.5756270000000  0.5013240000000 1.0
C      1  0.4975380000000  0.5560120000000  0.4529630000000 1.0
C      1  0.4869750000000  0.5031900000000  0.4267500000000 1.0
C      1  0.4876300000000  0.4587110000000  0.4413150000000 1.0
C      1  0.4938480000000  0.4265860000000  0.4743720000000 1.0
C      1  0.4943700000000  0.4267220000000  0.5242810000000 1.0
C      1  0.4945150000000  0.4578190000000  0.5652760000000 1.0
C      1  0.4887430000000  0.5184480000000  0.5666420000000 1.0
C      1  0.4942230000000  0.5602670000000  0.5493990000000 1.0
C      1  0.5534940000000  0.5419480000000  0.4901260000000 1.0
C      1  0.5581060000000  0.5253740000000  0.4659860000000 1.0
C      1  0.5543810000000  0.4972280000000  0.4563240000000 1.0
C      1  0.5516420000000  0.4692150000000  0.4677960000000 1.0
C      1  0.5533400000000  0.4566110000000  0.4948620000000 1.0
C      1  0.5531410000000  0.4651400000000  0.5244780000000 1.0
C      1  0.5562700000000  0.4882040000000  0.5422510000000 1.0
C      1  0.5515520000000  0.5171670000000  0.5407150000000 1.0
C      1  0.5541720000000  0.5394290000000  0.5196800000000 1.0
END
