TITL C-2441169-1362-1301 0.0283415795718348 125000 -21053.0713237732 0 0 141 (C1) n - 1
REM
REM in /home/bkarasulu/work/CARBON/AIRSS/Generating-Clusters/ReaxFF-fromJPCA2015/Units_Real/with-SteepDescent/Higher-Symm
REM
REM
REM
REM
REM
REM ./C.cell (1df0a924f5614ab8850e4351716899ee)
REM
REM compiler GCC version 9.2.1 20190827 (Red Hat 9.2.1-1)
REM options -cpp -mtune=generic -march=x86-64 -g -O0 -fpre-include=/usr/include/finclude/math-vector-fortran.h
REM seed 3826562 862505436 1729961394 484156289 1833417734 -181266698 -37590146 1862986455 1459341760 900145641 642811968 -1769884943 896283633 -969099204 -239452794 1741983165 1885912198 -408420307 -1896994554 1845732769 251684309 -1567494362 948624241 1372160274 -937604009 -167652527 10157472 1455001374 -1711652463 -378162915 918650493 1913885925 1138391994
REM
CELL 1.54180   50.00000   50.00000   50.00000   90.00000   90.00000   90.00000
LATT -1
SFAC C  
C      1  0.5202240000000  0.4500160000000  0.4943580000000 1.0
C      1  0.5378650000000  0.4540720000000  0.5173830000000 1.0
C      1  0.5334390000000  0.4745450000000  0.5343250000000 1.0
C      1  0.5242940000000  0.4974360000000  0.5486610000000 1.0
C      1  0.5326390000000  0.5216380000000  0.5371980000000 1.0
C      1  0.5388950000000  0.5430500000000  0.5254870000000 1.0
C      1  0.5254850000000  0.5485550000000  0.4988650000000 1.0
C      1  0.5294720000000  0.5342490000000  0.4756960000000 1.0
C      1  0.5268720000000  0.5156160000000  0.4543210000000 1.0
C      1  0.5309410000000  0.4872880000000  0.4578360000000 1.0
C      1  0.5237570000000  0.4614580000000  0.4661480000000 1.0
C      1  0.5828950000000  0.4519510000000  0.4834280000000 1.0
C      1  0.5840890000000  0.4521810000000  0.5121560000000 1.0
C      1  0.5843230000000  0.4644820000000  0.5381810000000 1.0
C      1  0.5836100000000  0.4905430000000  0.5512800000000 1.0
C      1  0.5833710000000  0.5194570000000  0.5476150000000 1.0
C      1  0.5846040000000  0.5411140000000  0.5286660000000 1.0
C      1  0.5836490000000  0.5524860000000  0.5022280000000 1.0
C      1  0.5826540000000  0.5453900000000  0.4738980000000 1.0
C      1  0.5826020000000  0.5241660000000  0.4539940000000 1.0
C      1  0.5826940000000  0.4955300000000  0.4485500000000 1.0
C      1  0.5826920000000  0.4685430000000  0.4594110000000 1.0
C      1  0.4863050000000  0.4751910000000  0.5364160000000 1.0
C      1  0.4936760000000  0.4965640000000  0.5526340000000 1.0
C      1  0.4854150000000  0.5202500000000  0.5400080000000 1.0
C      1  0.4845040000000  0.5369230000000  0.5209310000000 1.0
C      1  0.4950680000000  0.5477190000000  0.4965000000000 1.0
C      1  0.4819180000000  0.5388800000000  0.4714830000000 1.0
C      1  0.4954440000000  0.5193040000000  0.4536890000000 1.0
C      1  0.4895240000000  0.4924300000000  0.4568430000000 1.0
C      1  0.4937790000000  0.4658530000000  0.4635320000000 1.0
C      1  0.4911810000000  0.4510910000000  0.4909770000000 1.0
C      1  0.4860020000000  0.4606340000000  0.5163900000000 1.0
C      1  0.4096600000000  0.5485250000000  0.5180710000000 1.0
C      1  0.4047790000000  0.5493350000000  0.4898680000000 1.0
C      1  0.3958790000000  0.5260180000000  0.4754280000000 1.0
C      1  0.4089770000000  0.5129260000000  0.4527990000000 1.0
C      1  0.4100030000000  0.4845680000000  0.4502420000000 1.0
C      1  0.4111490000000  0.4611780000000  0.4680780000000 1.0
C      1  0.4037300000000  0.4513280000000  0.4937470000000 1.0
C      1  0.4097300000000  0.4534350000000  0.5210160000000 1.0
C      1  0.4061730000000  0.4745180000000  0.5423490000000 1.0
C      1  0.4028730000000  0.5019660000000  0.5413700000000 1.0
C      1  0.4055280000000  0.5296900000000  0.5418190000000 1.0
C      1  0.4759910000000  0.5950390000000  0.4773590000000 1.0
C      1  0.4760850000000  0.5664210000000  0.4308610000000 1.0
C      1  0.4749980000000  0.5196650000000  0.4093660000000 1.0
C      1  0.4759150000000  0.4663020000000  0.4135990000000 1.0
C      1  0.4757100000000  0.4254000000000  0.4444220000000 1.0
C      1  0.4755940000000  0.4035420000000  0.4946650000000 1.0
C      1  0.4758210000000  0.4190570000000  0.5466350000000 1.0
C      1  0.4754290000000  0.4561250000000  0.5822360000000 1.0
C      1  0.4773620000000  0.5082500000000  0.5980350000000 1.0
C      1  0.4750890000000  0.5561400000000  0.5732960000000 1.0
C      1  0.4757060000000  0.5870250000000  0.5319320000000 1.0
C      1  0.4501410000000  0.4525630000000  0.5683200000000 1.0
C      1  0.4586590000000  0.5030830000000  0.5800110000000 1.0
C      1  0.4495250000000  0.5541050000000  0.5602430000000 1.0
C      1  0.4510680000000  0.5721060000000  0.5367250000000 1.0
C      1  0.4533920000000  0.5831870000000  0.4865560000000 1.0
C      1  0.4522740000000  0.5512380000000  0.4373080000000 1.0
C      1  0.4497840000000  0.5274290000000  0.4210260000000 1.0
C      1  0.4510120000000  0.4647370000000  0.4274890000000 1.0
C      1  0.4517760000000  0.4416600000000  0.4446500000000 1.0
C      1  0.4554860000000  0.4201540000000  0.4926580000000 1.0
C      1  0.4500520000000  0.4321450000000  0.5480280000000 1.0
C      1  0.4881800000000  0.5356120000000  0.5897180000000 1.0
C      1  0.4889850000000  0.5770200000000  0.5560880000000 1.0
C      1  0.4874470000000  0.5962460000000  0.5060750000000 1.0
C      1  0.4882700000000  0.5835940000000  0.4512950000000 1.0
C      1  0.4890730000000  0.5451410000000  0.4143390000000 1.0
C      1  0.4874980000000  0.4924680000000  0.4070250000000 1.0
C      1  0.4891270000000  0.4415960000000  0.4238880000000 1.0
C      1  0.4875800000000  0.4098640000000  0.4668490000000 1.0
C      1  0.4883490000000  0.4072290000000  0.5229030000000 1.0
C      1  0.4891740000000  0.4340060000000  0.5687710000000 1.0
C      1  0.4883320000000  0.4793940000000  0.5964200000000 1.0
C      1  0.5575880000000  0.5603820000000  0.4370080000000 1.0
C      1  0.5578190000000  0.5167870000000  0.4141800000000 1.0
C      1  0.5577400000000  0.4680570000000  0.4191780000000 1.0
C      1  0.5577220000000  0.4292370000000  0.4496810000000 1.0
C      1  0.5559270000000  0.4140300000000  0.4953930000000 1.0
C      1  0.5577670000000  0.4243710000000  0.5455910000000 1.0
C      1  0.5585040000000  0.4603560000000  0.5778740000000 1.0
C      1  0.5573790000000  0.5086210000000  0.5864350000000 1.0
C      1  0.5571510000000  0.5533770000000  0.5685070000000 1.0
C      1  0.5577200000000  0.5845550000000  0.5274970000000 1.0
C      1  0.5571890000000  0.5851750000000  0.4795780000000 1.0
C      1  0.5298900000000  0.4232460000000  0.4451230000000 1.0
C      1  0.5287100000000  0.4060980000000  0.4949860000000 1.0
C      1  0.5299440000000  0.4183890000000  0.5474240000000 1.0
C      1  0.5303520000000  0.4572980000000  0.5832010000000 1.0
C      1  0.5293180000000  0.5087340000000  0.5930020000000 1.0
C      1  0.5296170000000  0.5578760000000  0.5738330000000 1.0
C      1  0.5297800000000  0.5897090000000  0.5306920000000 1.0
C      1  0.5289710000000  0.5909260000000  0.4783570000000 1.0
C      1  0.5295920000000  0.5645330000000  0.4325030000000 1.0
C      1  0.5297010000000  0.5178390000000  0.4079200000000 1.0
C      1  0.5296020000000  0.4658950000000  0.4134390000000 1.0
C      1  0.4314060000000  0.5304580000000  0.5562420000000 1.0
C      1  0.4369030000000  0.5579580000000  0.5152550000000 1.0
C      1  0.4352330000000  0.5611890000000  0.4833350000000 1.0
C      1  0.4537250000000  0.5411360000000  0.4654690000000 1.0
C      1  0.4375210000000  0.5136100000000  0.4449810000000 1.0
C      1  0.4364620000000  0.4856300000000  0.4409040000000 1.0
C      1  0.4384830000000  0.4521860000000  0.4674510000000 1.0
C      1  0.4363920000000  0.4396180000000  0.4924530000000 1.0
C      1  0.4386870000000  0.4514720000000  0.5290650000000 1.0
C      1  0.4358480000000  0.4721520000000  0.5504080000000 1.0
C      1  0.4414460000000  0.5033150000000  0.5612860000000 1.0
C      1  0.5163470000000  0.4101810000000  0.4679880000000 1.0
C      1  0.5166470000000  0.4080560000000  0.5224140000000 1.0
C      1  0.5178820000000  0.4346920000000  0.5687560000000 1.0
C      1  0.5170290000000  0.4815850000000  0.5934900000000 1.0
C      1  0.5165150000000  0.5349790000000  0.5880050000000 1.0
C      1  0.5177380000000  0.5774200000000  0.5551080000000 1.0
C      1  0.5162910000000  0.5950870000000  0.5047510000000 1.0
C      1  0.5164920000000  0.5818070000000  0.4529060000000 1.0
C      1  0.5176290000000  0.5438800000000  0.4152640000000 1.0
C      1  0.5163390000000  0.4915980000000  0.4066960000000 1.0
C      1  0.5178080000000  0.4413340000000  0.4249140000000 1.0
C      1  0.5642930000000  0.5595620000000  0.5408090000000 1.0
C      1  0.5699220000000  0.5779410000000  0.5034800000000 1.0
C      1  0.5690340000000  0.5671010000000  0.4615870000000 1.0
C      1  0.5693580000000  0.5355970000000  0.4315370000000 1.0
C      1  0.5695700000000  0.4930820000000  0.4233980000000 1.0
C      1  0.5693780000000  0.4528380000000  0.4397530000000 1.0
C      1  0.5689340000000  0.4280470000000  0.4753790000000 1.0
C      1  0.5633320000000  0.4313580000000  0.5179630000000 1.0
C      1  0.5706960000000  0.4466870000000  0.5565790000000 1.0
C      1  0.5698770000000  0.4858720000000  0.5757630000000 1.0
C      1  0.5693410000000  0.5287890000000  0.5709670000000 1.0
C      1  0.4454680000000  0.5015440000000  0.5000400000000 1.0
C      1  0.6006300000000  0.5010620000000  0.4990370000000 1.0
C      1  0.4708850000000  0.5023000000000  0.5002760000000 1.0
C      1  0.4200610000000  0.5009570000000  0.4997680000000 1.0
C      1  0.5242170000000  0.4963540000000  0.4994840000000 1.0
C      1  0.5502110000000  0.4980450000000  0.4992140000000 1.0
C      1  0.4973130000000  0.5027640000000  0.5005340000000 1.0
C      1  0.5759600000000  0.4997150000000  0.4989470000000 1.0
C      1  0.3912570000000  0.5032170000000  0.4968550000000 1.0
END
