TITL C-2441164-471-1300 0.00011571813190938 125000 -3184.36552260279 0 0 23 (C1) n - 1
REM
REM in /home/bkarasulu/work/CARBON/AIRSS/Generating-Clusters/ReaxFF-fromJPCA2015/Units_Real/with-SteepDescent/Higher-Symm
REM
REM
REM
REM
REM
REM ./C.cell (1df0a924f5614ab8850e4351716899ee)
REM
REM compiler GCC version 9.2.1 20190827 (Red Hat 9.2.1-1)
REM options -cpp -mtune=generic -march=x86-64 -g -O0 -fpre-include=/usr/include/finclude/math-vector-fortran.h
REM seed 767027195 -738946637 -140277762 13084286 -2065195606 -75200701 110706404 -927064901 -1804830600 -1714429015 1361862006 2111584231 1679075749 -1031574097 1293797372 1920706307 843189127 -1819659723 2102824987 436300125 -2069176762 -1807780601 444391014 -1942557723 2045689928 -335430387 -1836321273 1873966133 2095140087 824421080 1923337376 -662349299 -184093214
REM
CELL 1.54180   50.00000   50.00000   50.00000   90.00000   90.00000   90.00000
LATT -1
SFAC C  
C      1  0.5428310000000  0.4987640000000  0.4574280000000 1.0
C      1  0.5429880000000  0.4642540000000  0.5210130000000 1.0
C      1  0.5458660000000  0.5351520000000  0.5177230000000 1.0
C      1  0.4568650000000  0.4980280000000  0.5396430000000 1.0
C      1  0.4546090000000  0.4659670000000  0.4773580000000 1.0
C      1  0.4536070000000  0.5369600000000  0.4780900000000 1.0
C      1  0.4666190000000  0.4562840000000  0.5045650000000 1.0
C      1  0.4718470000000  0.5242860000000  0.5299890000000 1.0
C      1  0.4746530000000  0.5169860000000  0.4648010000000 1.0
C      1  0.5265420000000  0.4609870000000  0.4944980000000 1.0
C      1  0.5294870000000  0.5260490000000  0.4657620000000 1.0
C      1  0.5276100000000  0.5163520000000  0.5364860000000 1.0
C      1  0.5355600000000  0.4907630000000  0.5300730000000 1.0
C      1  0.5395340000000  0.5330930000000  0.4904750000000 1.0
C      1  0.5350100000000  0.4785710000000  0.4762830000000 1.0
C      1  0.4638250000000  0.4916660000000  0.4684650000000 1.0
C      1  0.4626020000000  0.5307230000000  0.5046580000000 1.0
C      1  0.4582930000000  0.4743880000000  0.5244770000000 1.0
C      1  0.5009080000000  0.5271410000000  0.5292770000000 1.0
C      1  0.5017700000000  0.5246100000000  0.4742300000000 1.0
C      1  0.4966910000000  0.4621490000000  0.5027950000000 1.0
C      1  0.5036790000000  0.5140200000000  0.5025480000000 1.0
C      1  0.4922220000000  0.4879260000000  0.5063840000000 1.0
END
