TITL C-2441165-58-1112 0.213885085019821 125000 -20307.3180590382 0 0 170 (C1) n - 1
REM
REM in /home/bkarasulu/work/CARBON/AIRSS/Generating-Clusters/ReaxFF-fromJPCA2015/Units_Real/with-SteepDescent/Higher-Symm
REM
REM
REM
REM
REM
REM ./C.cell (1df0a924f5614ab8850e4351716899ee)
REM
REM compiler GCC version 9.2.1 20190827 (Red Hat 9.2.1-1)
REM options -cpp -mtune=generic -march=x86-64 -g -O0 -fpre-include=/usr/include/finclude/math-vector-fortran.h
REM seed 254157321 644672 137920608 -11134888 -945059643 1218839035 644134569 -725809472 -1565538821 -1317847301 -1157351687 1284149486 1896646102 1153837241 -298003139 -1752179357 -1742981154 -754939853 -73729961 1306528078 -1372666971 1803637624 -1661209020 -1538544135 424009709 -805412372 2070607371 731517724 267379057 -808004496 -1946635272 1326998900 2014080560
REM
CELL 1.54180   50.00000   50.00000   50.00000   90.00000   90.00000   90.00000
LATT -1
SFAC C  
C      1  0.5513440000000  0.5588590000000  0.4674860000000 1.0
C      1  0.4872970000000  0.5506510000000  0.4369960000000 1.0
C      1  0.4366310000000  0.5501330000000  0.4896570000000 1.0
C      1  0.4776780000000  0.5578410000000  0.5560460000000 1.0
C      1  0.5460280000000  0.5505580000000  0.5452040000000 1.0
C      1  0.4487710000000  0.5587350000000  0.4680410000000 1.0
C      1  0.5129500000000  0.5500880000000  0.4371010000000 1.0
C      1  0.5631370000000  0.5500650000000  0.4896980000000 1.0
C      1  0.5224830000000  0.5578640000000  0.5561120000000 1.0
C      1  0.4541090000000  0.5507420000000  0.5451270000000 1.0
C      1  0.5908500000000  0.4686950000000  0.5579890000000 1.0
C      1  0.5828910000000  0.4683780000000  0.4324650000000 1.0
C      1  0.4607040000000  0.4685300000000  0.3997060000000 1.0
C      1  0.3923220000000  0.4686200000000  0.5063630000000 1.0
C      1  0.4715720000000  0.4655220000000  0.6024550000000 1.0
C      1  0.4091000000000  0.4686000000000  0.5581110000000 1.0
C      1  0.4170240000000  0.4684450000000  0.4325350000000 1.0
C      1  0.5388640000000  0.4685550000000  0.4001130000000 1.0
C      1  0.6072110000000  0.4654370000000  0.5049400000000 1.0
C      1  0.5273430000000  0.4683340000000  0.6032930000000 1.0
C      1  0.5633790000000  0.4873940000000  0.4397110000000 1.0
C      1  0.4607940000000  0.4879860000000  0.4201950000000 1.0
C      1  0.4115470000000  0.4879970000000  0.5119850000000 1.0
C      1  0.4837110000000  0.4872010000000  0.5874740000000 1.0
C      1  0.5786880000000  0.4877000000000  0.5412340000000 1.0
C      1  0.4365420000000  0.4874050000000  0.4397900000000 1.0
C      1  0.5385700000000  0.4879110000000  0.4209700000000 1.0
C      1  0.5901550000000  0.4879680000000  0.5113810000000 1.0
C      1  0.5145360000000  0.4870620000000  0.5859760000000 1.0
C      1  0.4216640000000  0.4879950000000  0.5422150000000 1.0
C      1  0.4676660000000  0.4877700000000  0.5228100000000 1.0
C      1  0.5125610000000  0.4952830000000  0.5395730000000 1.0
C      1  0.5406310000000  0.4896170000000  0.4998570000000 1.0
C      1  0.5135580000000  0.4893240000000  0.4622890000000 1.0
C      1  0.4672300000000  0.4967610000000  0.4759750000000 1.0
C      1  0.5324030000000  0.4879320000000  0.5223590000000 1.0
C      1  0.4879060000000  0.4955860000000  0.5395070000000 1.0
C      1  0.4594520000000  0.4893810000000  0.5003460000000 1.0
C      1  0.4887970000000  0.4889510000000  0.4635210000000 1.0
C      1  0.5323470000000  0.4961260000000  0.4754800000000 1.0
C      1  0.4603720000000  0.4525620000000  0.4710970000000 1.0
C      1  0.4630080000000  0.4482740000000  0.5269330000000 1.0
C      1  0.5157120000000  0.4524670000000  0.5471790000000 1.0
C      1  0.5451490000000  0.4481440000000  0.5001050000000 1.0
C      1  0.5145620000000  0.4491690000000  0.4542490000000 1.0
C      1  0.5398300000000  0.4524010000000  0.4714410000000 1.0
C      1  0.5367760000000  0.4482250000000  0.5268780000000 1.0
C      1  0.4842640000000  0.4522760000000  0.5471090000000 1.0
C      1  0.4544390000000  0.4485810000000  0.4999170000000 1.0
C      1  0.4857920000000  0.4486690000000  0.4543370000000 1.0
C      1  0.4642100000000  0.5332390000000  0.5257440000000 1.0
C      1  0.5132400000000  0.5234470000000  0.5402470000000 1.0
C      1  0.5448320000000  0.5321100000000  0.4990540000000 1.0
C      1  0.5145790000000  0.5337840000000  0.4603940000000 1.0
C      1  0.4660090000000  0.5227670000000  0.4762940000000 1.0
C      1  0.5358350000000  0.5331410000000  0.5257450000000 1.0
C      1  0.4866730000000  0.5233940000000  0.5401340000000 1.0
C      1  0.4549730000000  0.5324190000000  0.4991200000000 1.0
C      1  0.4856330000000  0.5342580000000  0.4602750000000 1.0
C      1  0.5332690000000  0.5220210000000  0.4764000000000 1.0
C      1  0.5238980000000  0.5787870000000  0.5753480000000 1.0
C      1  0.5742120000000  0.5746690000000  0.4999830000000 1.0
C      1  0.5236960000000  0.5765520000000  0.4290890000000 1.0
C      1  0.4359800000000  0.5782160000000  0.4527240000000 1.0
C      1  0.4393960000000  0.5753610000000  0.5437760000000 1.0
C      1  0.4759970000000  0.5786930000000  0.5753340000000 1.0
C      1  0.4257600000000  0.5747460000000  0.5001120000000 1.0
C      1  0.4763680000000  0.5763490000000  0.4288540000000 1.0
C      1  0.5643160000000  0.5784740000000  0.4524700000000 1.0
C      1  0.5604760000000  0.5753680000000  0.5437510000000 1.0
C      1  0.4445210000000  0.4789350000000  0.4658920000000 1.0
C      1  0.4507230000000  0.4822930000000  0.5445650000000 1.0
C      1  0.5248860000000  0.4785740000000  0.5602720000000 1.0
C      1  0.5669710000000  0.4842070000000  0.4926270000000 1.0
C      1  0.5158170000000  0.4794950000000  0.4368870000000 1.0
C      1  0.5561620000000  0.4789120000000  0.4661280000000 1.0
C      1  0.5490600000000  0.4824830000000  0.5441130000000 1.0
C      1  0.4751050000000  0.4794840000000  0.5601710000000 1.0
C      1  0.4338770000000  0.4824380000000  0.4925100000000 1.0
C      1  0.4856180000000  0.4793120000000  0.4361240000000 1.0
C      1  0.4176480000000  0.4437590000000  0.5413740000000 1.0
C      1  0.5144820000000  0.4428010000000  0.5916970000000 1.0
C      1  0.5909290000000  0.4427150000000  0.5150150000000 1.0
C      1  0.5423920000000  0.4432540000000  0.4175250000000 1.0
C      1  0.4349280000000  0.4429610000000  0.4341400000000 1.0
C      1  0.5822930000000  0.4437050000000  0.5418450000000 1.0
C      1  0.4859690000000  0.4417520000000  0.5916530000000 1.0
C      1  0.4091360000000  0.4438780000000  0.5148260000000 1.0
C      1  0.4576990000000  0.4433610000000  0.4175670000000 1.0
C      1  0.5651730000000  0.4428370000000  0.4341590000000 1.0
C      1  0.5969050000000  0.5217520000000  0.4824010000000 1.0
C      1  0.5124770000000  0.5220580000000  0.4029320000000 1.0
C      1  0.4115090000000  0.5219860000000  0.4583830000000 1.0
C      1  0.4325140000000  0.5219920000000  0.5713040000000 1.0
C      1  0.5471360000000  0.5222280000000  0.5855740000000 1.0
C      1  0.4032350000000  0.5219030000000  0.4822390000000 1.0
C      1  0.4873060000000  0.5220460000000  0.4028400000000 1.0
C      1  0.5885290000000  0.5219150000000  0.4584270000000 1.0
C      1  0.5674950000000  0.5221650000000  0.5713450000000 1.0
C      1  0.4530520000000  0.5218920000000  0.5858380000000 1.0
C      1  0.3917680000000  0.4711590000000  0.4784240000000 1.0
C      1  0.4454830000000  0.4703780000000  0.5952470000000 1.0
C      1  0.5748300000000  0.4712490000000  0.5809060000000 1.0
C      1  0.5996690000000  0.4711880000000  0.4545750000000 1.0
C      1  0.4871330000000  0.4712240000000  0.3905770000000 1.0
C      1  0.6081680000000  0.4705190000000  0.4780260000000 1.0
C      1  0.5540900000000  0.4711080000000  0.5952000000000 1.0
C      1  0.4250420000000  0.4712650000000  0.5809320000000 1.0
C      1  0.4002990000000  0.4710440000000  0.4547250000000 1.0
C      1  0.5124830000000  0.4711800000000  0.3910290000000 1.0
C      1  0.5395170000000  0.5878450000000  0.5275150000000 1.0
C      1  0.5367930000000  0.5845360000000  0.4734370000000 1.0
C      1  0.4856890000000  0.5879040000000  0.4543810000000 1.0
C      1  0.4518850000000  0.5879640000000  0.5012640000000 1.0
C      1  0.4846930000000  0.5840330000000  0.5446810000000 1.0
C      1  0.4604310000000  0.5876880000000  0.5275210000000 1.0
C      1  0.4630200000000  0.5841140000000  0.4732300000000 1.0
C      1  0.5138950000000  0.5877580000000  0.4544400000000 1.0
C      1  0.5478650000000  0.5874110000000  0.5012050000000 1.0
C      1  0.5152830000000  0.5844260000000  0.5449000000000 1.0
C      1  0.5143080000000  0.5610330000000  0.5955020000000 1.0
C      1  0.5937520000000  0.5610680000000  0.5159250000000 1.0
C      1  0.5443800000000  0.5611480000000  0.4151060000000 1.0
C      1  0.4316950000000  0.5608900000000  0.4307060000000 1.0
C      1  0.4145690000000  0.5608820000000  0.5425240000000 1.0
C      1  0.4857170000000  0.5611910000000  0.5955300000000 1.0
C      1  0.4061750000000  0.5607660000000  0.5158870000000 1.0
C      1  0.4556950000000  0.5607380000000  0.4155080000000 1.0
C      1  0.5685110000000  0.5608180000000  0.4307800000000 1.0
C      1  0.5853610000000  0.5609940000000  0.5425140000000 1.0
C      1  0.4423680000000  0.4295460000000  0.4594840000000 1.0
C      1  0.4445080000000  0.4298950000000  0.5416790000000 1.0
C      1  0.5228860000000  0.4295650000000  0.5668090000000 1.0
C      1  0.5686730000000  0.4299850000000  0.4985950000000 1.0
C      1  0.5207740000000  0.4294640000000  0.4327540000000 1.0
C      1  0.5576680000000  0.4293510000000  0.4594220000000 1.0
C      1  0.5555980000000  0.4299630000000  0.5418550000000 1.0
C      1  0.4770640000000  0.4290730000000  0.5662410000000 1.0
C      1  0.4308560000000  0.4302180000000  0.4986420000000 1.0
C      1  0.4791490000000  0.4292050000000  0.4328880000000 1.0
C      1  0.5510130000000  0.5078900000000  0.4038220000000 1.0
C      1  0.4242540000000  0.5075600000000  0.4222780000000 1.0
C      1  0.4014630000000  0.5079870000000  0.5483570000000 1.0
C      1  0.5157280000000  0.5077570000000  0.6076720000000 1.0
C      1  0.6062150000000  0.5105250000000  0.5201010000000 1.0
C      1  0.4487180000000  0.5079760000000  0.4033950000000 1.0
C      1  0.5756430000000  0.5075400000000  0.4223100000000 1.0
C      1  0.5988180000000  0.5081860000000  0.5488170000000 1.0
C      1  0.4861370000000  0.5097850000000  0.6057700000000 1.0
C      1  0.3918620000000  0.5078300000000  0.5189910000000 1.0
C      1  0.5486430000000  0.4073870000000  0.5002860000000 1.0
C      1  0.5149790000000  0.4087760000000  0.4538310000000 1.0
C      1  0.4606480000000  0.4094410000000  0.4714360000000 1.0
C      1  0.4602890000000  0.4076040000000  0.5284920000000 1.0
C      1  0.5151720000000  0.4094710000000  0.5461880000000 1.0
C      1  0.4511440000000  0.4077260000000  0.5003330000000 1.0
C      1  0.4847540000000  0.4082210000000  0.4536820000000 1.0
C      1  0.5392150000000  0.4093920000000  0.4712990000000 1.0
C      1  0.5396300000000  0.4075930000000  0.5286980000000 1.0
C      1  0.4849880000000  0.4090700000000  0.5459900000000 1.0
C      1  0.4008140000000  0.5328200000000  0.5066170000000 1.0
C      1  0.4757940000000  0.5332390000000  0.5949060000000 1.0
C      1  0.5838120000000  0.5332680000000  0.5532780000000 1.0
C      1  0.5756030000000  0.5321940000000  0.4375110000000 1.0
C      1  0.4633070000000  0.5330720000000  0.4082600000000 1.0
C      1  0.5988480000000  0.5334950000000  0.5067210000000 1.0
C      1  0.5246400000000  0.5328310000000  0.5950020000000 1.0
C      1  0.4161570000000  0.5328860000000  0.5528530000000 1.0
C      1  0.4242650000000  0.5321900000000  0.4374860000000 1.0
C      1  0.5364570000000  0.5328370000000  0.4085010000000 1.0
END
