TITL C-2441166-8118-489 0.240488946197998 125000 -21847.893746123 0 0 186 (C1) n - 1
REM
REM in /home/bkarasulu/work/CARBON/AIRSS/Generating-Clusters/ReaxFF-fromJPCA2015/Units_Real/with-SteepDescent/Higher-Symm
REM
REM
REM
REM
REM
REM ./C.cell (1df0a924f5614ab8850e4351716899ee)
REM
REM compiler GCC version 9.2.1 20190827 (Red Hat 9.2.1-1)
REM options -cpp -mtune=generic -march=x86-64 -g -O0 -fpre-include=/usr/include/finclude/math-vector-fortran.h
REM seed -1193583792 1446482858 -699251066 -607847923 -2039739986 -842325863 275659198 1539507376 -316107671 1853821994 -1464858524 685434703 931204844 1421596369 -1707677053 -2131702094 -1960394441 690755735 -1220490887 508120525 312681829 2048195340 -897583841 -1579519026 -590683855 1371665080 -1323989781 -1130138456 1823935748 1280475814 -2020527714 1930501173 6795908
REM
CELL 1.54180   50.00000   50.00000   50.00000   90.00000   90.00000   90.00000
LATT -1
SFAC C  
C      1  0.4783680000000  0.4955300000000  0.4092300000000 1.0
C      1  0.5086780000000  0.5084540000000  0.5946960000000 1.0
C      1  0.5242890000000  0.4230320000000  0.5719650000000 1.0
C      1  0.4794360000000  0.4212160000000  0.4269880000000 1.0
C      1  0.4467730000000  0.5091760000000  0.4698310000000 1.0
C      1  0.5562440000000  0.5064200000000  0.5367000000000 1.0
C      1  0.5184320000000  0.5863800000000  0.4350890000000 1.0
C      1  0.4818140000000  0.5854920000000  0.5650030000000 1.0
C      1  0.5550600000000  0.4097800000000  0.5267890000000 1.0
C      1  0.4441270000000  0.4160440000000  0.4673790000000 1.0
C      1  0.5439770000000  0.5936110000000  0.5500770000000 1.0
C      1  0.4562850000000  0.5914150000000  0.4484040000000 1.0
C      1  0.4436270000000  0.4330060000000  0.5667210000000 1.0
C      1  0.5581320000000  0.4317750000000  0.4323300000000 1.0
C      1  0.5829590000000  0.4702040000000  0.4551850000000 1.0
C      1  0.4144020000000  0.4663770000000  0.5495200000000 1.0
C      1  0.4488490000000  0.4731440000000  0.5441130000000 1.0
C      1  0.5509140000000  0.4723880000000  0.4534110000000 1.0
C      1  0.4346040000000  0.4863790000000  0.4705740000000 1.0
C      1  0.5688140000000  0.4721430000000  0.5236230000000 1.0
C      1  0.4412950000000  0.5929440000000  0.4732440000000 1.0
C      1  0.5586340000000  0.5926770000000  0.5252640000000 1.0
C      1  0.5465720000000  0.4786230000000  0.4096790000000 1.0
C      1  0.4498240000000  0.4762640000000  0.5883870000000 1.0
C      1  0.5197930000000  0.4795640000000  0.3976690000000 1.0
C      1  0.4754550000000  0.4760030000000  0.6024240000000 1.0
C      1  0.5286560000000  0.4986310000000  0.5749600000000 1.0
C      1  0.4623660000000  0.4964160000000  0.4328780000000 1.0
C      1  0.5255280000000  0.5238730000000  0.6136920000000 1.0
C      1  0.4887430000000  0.5197650000000  0.3966850000000 1.0
C      1  0.5333020000000  0.5433010000000  0.5912090000000 1.0
C      1  0.4711180000000  0.5402560000000  0.4083780000000 1.0
C      1  0.4973320000000  0.4607610000000  0.4000020000000 1.0
C      1  0.5021580000000  0.4610780000000  0.6019930000000 1.0
C      1  0.5225420000000  0.5182530000000  0.4823380000000 1.0
C      1  0.4918610000000  0.5074600000000  0.5178590000000 1.0
C      1  0.4851100000000  0.4793870000000  0.5238740000000 1.0
C      1  0.5125820000000  0.4893060000000  0.4736620000000 1.0
C      1  0.4534920000000  0.5184200000000  0.5932510000000 1.0
C      1  0.5424610000000  0.5181920000000  0.4056690000000 1.0
C      1  0.4136480000000  0.4915220000000  0.5618090000000 1.0
C      1  0.5901030000000  0.4966640000000  0.4478730000000 1.0
C      1  0.5382860000000  0.5464240000000  0.4093600000000 1.0
C      1  0.4620980000000  0.5461510000000  0.5900900000000 1.0
C      1  0.4285400000000  0.5013290000000  0.5154930000000 1.0
C      1  0.5662790000000  0.5051050000000  0.4899790000000 1.0
C      1  0.5536850000000  0.4783430000000  0.4987400000000 1.0
C      1  0.4381200000000  0.4799330000000  0.5000470000000 1.0
C      1  0.5764130000000  0.4357460000000  0.4846830000000 1.0
C      1  0.4264090000000  0.4377000000000  0.5134650000000 1.0
C      1  0.4468180000000  0.4358060000000  0.4892090000000 1.0
C      1  0.5572890000000  0.4290780000000  0.5060750000000 1.0
C      1  0.4714090000000  0.5385620000000  0.5642560000000 1.0
C      1  0.5299080000000  0.5395490000000  0.4354760000000 1.0
C      1  0.4507120000000  0.5186180000000  0.5234330000000 1.0
C      1  0.5483170000000  0.5162810000000  0.4715020000000 1.0
C      1  0.5267320000000  0.5577000000000  0.5548480000000 1.0
C      1  0.4741010000000  0.5556890000000  0.4458450000000 1.0
C      1  0.4649320000000  0.4211240000000  0.5298480000000 1.0
C      1  0.5365210000000  0.4179820000000  0.4702400000000 1.0
C      1  0.4385170000000  0.4260490000000  0.5378350000000 1.0
C      1  0.5620600000000  0.4253730000000  0.4614740000000 1.0
C      1  0.5713540000000  0.4511020000000  0.5595190000000 1.0
C      1  0.4308790000000  0.4483850000000  0.4459790000000 1.0
C      1  0.4040880000000  0.5410830000000  0.5251800000000 1.0
C      1  0.5927090000000  0.5418610000000  0.4723950000000 1.0
C      1  0.4705090000000  0.4228510000000  0.5022970000000 1.0
C      1  0.5312220000000  0.4200980000000  0.4967740000000 1.0
C      1  0.5111320000000  0.4119600000000  0.4581360000000 1.0
C      1  0.4903200000000  0.4160410000000  0.5416670000000 1.0
C      1  0.5738140000000  0.5627600000000  0.4943530000000 1.0
C      1  0.4241210000000  0.5636730000000  0.5064100000000 1.0
C      1  0.5530280000000  0.4706460000000  0.5455460000000 1.0
C      1  0.4499340000000  0.4733770000000  0.4525010000000 1.0
C      1  0.5116780000000  0.5439740000000  0.5189610000000 1.0
C      1  0.4879680000000  0.5479420000000  0.4884050000000 1.0
C      1  0.4933780000000  0.5185520000000  0.4528510000000 1.0
C      1  0.5044850000000  0.5148080000000  0.5473940000000 1.0
C      1  0.5518260000000  0.5688860000000  0.5643780000000 1.0
C      1  0.4499850000000  0.5660690000000  0.4337280000000 1.0
C      1  0.5226270000000  0.4508760000000  0.5790480000000 1.0
C      1  0.4837550000000  0.4487760000000  0.4234200000000 1.0
C      1  0.4964260000000  0.4295210000000  0.4756300000000 1.0
C      1  0.5050480000000  0.4314170000000  0.5230540000000 1.0
C      1  0.4752280000000  0.5596910000000  0.5482800000000 1.0
C      1  0.5267760000000  0.5598220000000  0.4513850000000 1.0
C      1  0.5072070000000  0.4767400000000  0.4471690000000 1.0
C      1  0.4911300000000  0.4745760000000  0.5520550000000 1.0
C      1  0.3937380000000  0.4689700000000  0.4704180000000 1.0
C      1  0.6077380000000  0.4706690000000  0.5303090000000 1.0
C      1  0.4733950000000  0.5109300000000  0.4761370000000 1.0
C      1  0.5283480000000  0.5034500000000  0.5297540000000 1.0
C      1  0.5755700000000  0.5498080000000  0.5579800000000 1.0
C      1  0.4247300000000  0.5501240000000  0.4411810000000 1.0
C      1  0.5336010000000  0.4171970000000  0.5451820000000 1.0
C      1  0.4674130000000  0.4173210000000  0.4524630000000 1.0
C      1  0.5723270000000  0.4725020000000  0.5788550000000 1.0
C      1  0.4257290000000  0.4684260000000  0.4222900000000 1.0
C      1  0.5737120000000  0.5233380000000  0.5712440000000 1.0
C      1  0.4252670000000  0.5230750000000  0.4281210000000 1.0
C      1  0.4149810000000  0.4958010000000  0.4307620000000 1.0
C      1  0.5856300000000  0.4967830000000  0.5675690000000 1.0
C      1  0.4844660000000  0.4819240000000  0.4846340000000 1.0
C      1  0.5267660000000  0.4770620000000  0.5162260000000 1.0
C      1  0.4032750000000  0.4955650000000  0.4573860000000 1.0
C      1  0.6019080000000  0.4965050000000  0.5434400000000 1.0
C      1  0.5157760000000  0.5190920000000  0.5092090000000 1.0
C      1  0.4730250000000  0.5194830000000  0.5042870000000 1.0
C      1  0.5076190000000  0.4155680000000  0.4295320000000 1.0
C      1  0.4961610000000  0.4187840000000  0.5701360000000 1.0
C      1  0.4861830000000  0.4593780000000  0.4487330000000 1.0
C      1  0.5134040000000  0.4596410000000  0.5538530000000 1.0
C      1  0.5302280000000  0.3935680000000  0.5258330000000 1.0
C      1  0.4654950000000  0.3956160000000  0.4726230000000 1.0
C      1  0.5470280000000  0.5014520000000  0.4467120000000 1.0
C      1  0.4531020000000  0.5015000000000  0.5495030000000 1.0
C      1  0.5828750000000  0.5749870000000  0.5204520000000 1.0
C      1  0.4165580000000  0.5763690000000  0.4795390000000 1.0
C      1  0.5129530000000  0.3958600000000  0.5026860000000 1.0
C      1  0.4833730000000  0.3961920000000  0.4953870000000 1.0
C      1  0.4292030000000  0.5137790000000  0.5692930000000 1.0
C      1  0.5711030000000  0.5128450000000  0.4324740000000 1.0
C      1  0.4010730000000  0.5220050000000  0.4757140000000 1.0
C      1  0.6004170000000  0.5200300000000  0.5247210000000 1.0
C      1  0.5812330000000  0.5385110000000  0.4451390000000 1.0
C      1  0.4151160000000  0.5385640000000  0.5517250000000 1.0
C      1  0.5179100000000  0.5948490000000  0.5346090000000 1.0
C      1  0.4819250000000  0.5946090000000  0.4645810000000 1.0
C      1  0.5928050000000  0.4596500000000  0.4806020000000 1.0
C      1  0.4074660000000  0.4580420000000  0.5182950000000 1.0
C      1  0.4541730000000  0.5228720000000  0.4276340000000 1.0
C      1  0.5445090000000  0.5235400000000  0.5709870000000 1.0
C      1  0.5962270000000  0.5116860000000  0.4750330000000 1.0
C      1  0.4013990000000  0.5113600000000  0.5234000000000 1.0
C      1  0.4676000000000  0.4596790000000  0.4708890000000 1.0
C      1  0.5314440000000  0.4629350000000  0.5361910000000 1.0
C      1  0.3898250000000  0.5045940000000  0.4978680000000 1.0
C      1  0.6096930000000  0.5044550000000  0.5007010000000 1.0
C      1  0.4780890000000  0.5043890000000  0.6008370000000 1.0
C      1  0.5170520000000  0.5087840000000  0.3965440000000 1.0
C      1  0.5446010000000  0.4767350000000  0.5891030000000 1.0
C      1  0.4475880000000  0.4665710000000  0.4057020000000 1.0
C      1  0.5560820000000  0.5453650000000  0.5110630000000 1.0
C      1  0.4446430000000  0.5483270000000  0.4888760000000 1.0
C      1  0.4867420000000  0.5572430000000  0.5173410000000 1.0
C      1  0.5156700000000  0.5483040000000  0.4774260000000 1.0
C      1  0.4664250000000  0.5969680000000  0.4881520000000 1.0
C      1  0.5333310000000  0.5959110000000  0.5100560000000 1.0
C      1  0.5300210000000  0.4636360000000  0.4328490000000 1.0
C      1  0.4686800000000  0.4633880000000  0.5656820000000 1.0
C      1  0.4104660000000  0.4480920000000  0.4642130000000 1.0
C      1  0.5862720000000  0.4518080000000  0.5346240000000 1.0
C      1  0.4084010000000  0.5532800000000  0.4640150000000 1.0
C      1  0.5909230000000  0.5507880000000  0.5346210000000 1.0
C      1  0.6080050000000  0.4756800000000  0.5013930000000 1.0
C      1  0.3928130000000  0.4752560000000  0.4991160000000 1.0
C      1  0.5545300000000  0.5662950000000  0.4544570000000 1.0
C      1  0.4484420000000  0.5681900000000  0.5444960000000 1.0
C      1  0.4311220000000  0.5254280000000  0.4814210000000 1.0
C      1  0.5677360000000  0.5196940000000  0.5151260000000 1.0
C      1  0.5299430000000  0.4337670000000  0.4246580000000 1.0
C      1  0.4718320000000  0.4340250000000  0.5743000000000 1.0
C      1  0.5263570000000  0.4683990000000  0.6151970000000 1.0
C      1  0.4713240000000  0.4719880000000  0.3918300000000 1.0
C      1  0.5154660000000  0.5681590000000  0.4132730000000 1.0
C      1  0.4856420000000  0.5668140000000  0.5867340000000 1.0
C      1  0.4787190000000  0.5116780000000  0.5601100000000 1.0
C      1  0.5160640000000  0.5147520000000  0.4380780000000 1.0
C      1  0.4919170000000  0.5549270000000  0.4227600000000 1.0
C      1  0.5092960000000  0.5532480000000  0.5777090000000 1.0
C      1  0.4420680000000  0.5825900000000  0.5213940000000 1.0
C      1  0.5562360000000  0.5817010000000  0.4783860000000 1.0
C      1  0.5273510000000  0.5835560000000  0.4839570000000 1.0
C      1  0.4712670000000  0.5876980000000  0.5156920000000 1.0
C      1  0.4408910000000  0.5431560000000  0.5387220000000 1.0
C      1  0.5620130000000  0.5421060000000  0.4639660000000 1.0
C      1  0.5098460000000  0.4510170000000  0.4847810000000 1.0
C      1  0.5025740000000  0.4572480000000  0.5103210000000 1.0
C      1  0.4675920000000  0.5520400000000  0.4719890000000 1.0
C      1  0.5340990000000  0.5510390000000  0.5288600000000 1.0
C      1  0.4306550000000  0.4574300000000  0.5761440000000 1.0
C      1  0.5659790000000  0.4565100000000  0.4171440000000 1.0
C      1  0.5351930000000  0.4650070000000  0.4777880000000 1.0
C      1  0.4582320000000  0.4691420000000  0.5171930000000 1.0
C      1  0.5101660000000  0.5950290000000  0.4610730000000 1.0
C      1  0.4900050000000  0.5965430000000  0.5396970000000 1.0
END
