TITL C-2441165-58-589 0.00907176625681014 125000 -10268.0056836027 0 0 71 (C1) n - 1
REM
REM in /home/bkarasulu/work/CARBON/AIRSS/Generating-Clusters/ReaxFF-fromJPCA2015/Units_Real/with-SteepDescent/Higher-Symm
REM
REM
REM
REM
REM
REM ./C.cell (1df0a924f5614ab8850e4351716899ee)
REM
REM compiler GCC version 9.2.1 20190827 (Red Hat 9.2.1-1)
REM options -cpp -mtune=generic -march=x86-64 -g -O0 -fpre-include=/usr/include/finclude/math-vector-fortran.h
REM seed 572157055 -777711795 -1992222442 387380515 444481020 -69219064 -1303724975 -642534359 -1157012558 -974401503 1745369865 893579478 1058023480 -1616288443 227208753 1200552883 -308328260 1683850905 -1117616213 894598778 -2105403067 -1937963933 -1340927410 -959440071 -303431360 -1638387852 -2002701049 1333888368 889393269 1898882318 -1585592989 1662759786 -496218082
REM
CELL 1.54180   50.00000   50.00000   50.00000   90.00000   90.00000   90.00000
LATT -1
SFAC C  
C      1  0.5483870000000  0.5442300000000  0.4878020000000 1.0
C      1  0.4386930000000  0.5199590000000  0.4890170000000 1.0
C      1  0.5130520000000  0.4396750000000  0.4851270000000 1.0
C      1  0.5011470000000  0.4641550000000  0.4978730000000 1.0
C      1  0.5341220000000  0.5194800000000  0.4971730000000 1.0
C      1  0.4669180000000  0.5204300000000  0.4988710000000 1.0
C      1  0.5181860000000  0.5419080000000  0.5394690000000 1.0
C      1  0.4545380000000  0.4961780000000  0.5405010000000 1.0
C      1  0.5223070000000  0.4684530000000  0.5453350000000 1.0
C      1  0.5415030000000  0.5329510000000  0.5519400000000 1.0
C      1  0.4509830000000  0.5205830000000  0.5524510000000 1.0
C      1  0.5078990000000  0.4495430000000  0.5546220000000 1.0
C      1  0.5614810000000  0.4927080000000  0.5366120000000 1.0
C      1  0.4731960000000  0.5599880000000  0.5372790000000 1.0
C      1  0.4648070000000  0.4475190000000  0.5369630000000 1.0
C      1  0.5299960000000  0.5662730000000  0.4939160000000 1.0
C      1  0.4282440000000  0.4930870000000  0.4947930000000 1.0
C      1  0.5421470000000  0.4395170000000  0.4894460000000 1.0
C      1  0.5312970000000  0.4820830000000  0.5627110000000 1.0
C      1  0.5012120000000  0.5384920000000  0.5587350000000 1.0
C      1  0.4660970000000  0.4830050000000  0.5589210000000 1.0
C      1  0.5317790000000  0.4776760000000  0.4382050000000 1.0
C      1  0.5047150000000  0.5371390000000  0.4408350000000 1.0
C      1  0.4618630000000  0.4858050000000  0.4391770000000 1.0
C      1  0.4835080000000  0.4784980000000  0.4801640000000 1.0
C      1  0.5287280000000  0.4979890000000  0.4784010000000 1.0
C      1  0.4903630000000  0.5272690000000  0.4828640000000 1.0
C      1  0.5326280000000  0.5290600000000  0.4400690000000 1.0
C      1  0.4581160000000  0.5128070000000  0.4434290000000 1.0
C      1  0.5071950000000  0.4622740000000  0.4386620000000 1.0
C      1  0.4600450000000  0.4680840000000  0.4634650000000 1.0
C      1  0.5441990000000  0.4804750000000  0.4628040000000 1.0
C      1  0.4932870000000  0.5485630000000  0.4640730000000 1.0
C      1  0.5698260000000  0.5161500000000  0.5189910000000 1.0
C      1  0.4502420000000  0.5540120000000  0.5189430000000 1.0
C      1  0.4832630000000  0.4323360000000  0.5187170000000 1.0
C      1  0.5721450000000  0.4741940000000  0.4975630000000 1.0
C      1  0.4857910000000  0.5791480000000  0.4963140000000 1.0
C      1  0.4416770000000  0.4474790000000  0.4976550000000 1.0
C      1  0.4389100000000  0.5292480000000  0.5270380000000 1.0
C      1  0.5116090000000  0.4352280000000  0.5283530000000 1.0
C      1  0.5544470000000  0.5388020000000  0.5266280000000 1.0
C      1  0.4313240000000  0.4864430000000  0.5231990000000 1.0
C      1  0.5391620000000  0.4437230000000  0.5179010000000 1.0
C      1  0.5235060000000  0.5666600000000  0.5223820000000 1.0
C      1  0.4405010000000  0.4588880000000  0.5241530000000 1.0
C      1  0.5589420000000  0.4670240000000  0.5222160000000 1.0
C      1  0.4953980000000  0.5736560000000  0.5229930000000 1.0
C      1  0.5474270000000  0.5041100000000  0.5597160000000 1.0
C      1  0.4736780000000  0.5403420000000  0.5589170000000 1.0
C      1  0.4788000000000  0.4584090000000  0.5598820000000 1.0
C      1  0.5119410000000  0.4775730000000  0.5202280000000 1.0
C      1  0.5131860000000  0.5245610000000  0.5161270000000 1.0
C      1  0.4731540000000  0.5041760000000  0.5206320000000 1.0
C      1  0.5545180000000  0.5344470000000  0.4598740000000 1.0
C      1  0.4448310000000  0.5300010000000  0.4602560000000 1.0
C      1  0.5020420000000  0.4406960000000  0.4578760000000 1.0
C      1  0.5062160000000  0.5702360000000  0.4778060000000 1.0
C      1  0.4358360000000  0.4696150000000  0.4798370000000 1.0
C      1  0.5581280000000  0.4603220000000  0.4762190000000 1.0
C      1  0.5758410000000  0.5145770000000  0.4655950000000 1.0
C      1  0.4542780000000  0.5597270000000  0.4643070000000 1.0
C      1  0.4714450000000  0.4347100000000  0.4633990000000 1.0
C      1  0.4661730000000  0.4313910000000  0.4947090000000 1.0
C      1  0.5781290000000  0.5029600000000  0.4931490000000 1.0
C      1  0.4586340000000  0.5683340000000  0.4925420000000 1.0
C      1  0.4963990000000  0.5114860000000  0.4274850000000 1.0
C      1  0.4886350000000  0.4833640000000  0.4299780000000 1.0
C      1  0.5254240000000  0.5039730000000  0.4267970000000 1.0
C      1  0.4999660000000  0.5019530000000  0.5264860000000 1.0
C      1  0.5003640000000  0.5011390000000  0.4748390000000 1.0
END
