TITL C-2441156-4686-1127 0.0347421648412887 125000 -24436.6089401985 0 0 168 (C1) n - 1
REM
REM in /home/bkarasulu/work/CARBON/AIRSS/Generating-Clusters/ReaxFF-fromJPCA2015/Units_Real/with-SteepDescent/Higher-Symm
REM
REM
REM
REM
REM
REM ./C.cell (1df0a924f5614ab8850e4351716899ee)
REM
REM compiler GCC version 9.2.1 20190827 (Red Hat 9.2.1-1)
REM options -cpp -mtune=generic -march=x86-64 -g -O0 -fpre-include=/usr/include/finclude/math-vector-fortran.h
REM seed -542474570 194999717 1964832205 -1504580612 -1295436658 1537479739 -159044463 912725365 1917186639 2034654336 -692384697 908935658 -97436115 -1709645286 996350355 -1310091011 -133862236 -310317795 746354898 -100872423 -866589002 396877504 1170796558 -151134939 1118372493 232890798 2138657792 -1698833254 -268926909 1832296570 -884313605 1064455242 -1780294247
REM
CELL 1.54180   50.00000   50.00000   50.00000   90.00000   90.00000   90.00000
LATT -1
SFAC C  
C      1  0.5375890000000  0.4313210000000  0.5425890000000 1.0
C      1  0.5400290000000  0.4246630000000  0.4763580000000 1.0
C      1  0.5383940000000  0.4772970000000  0.4267790000000 1.0
C      1  0.5403100000000  0.5330880000000  0.4303500000000 1.0
C      1  0.5369080000000  0.5805540000000  0.4920030000000 1.0
C      1  0.5409710000000  0.5589730000000  0.5557920000000 1.0
C      1  0.5385360000000  0.4882650000000  0.5764660000000 1.0
C      1  0.4454800000000  0.4757760000000  0.5136810000000 1.0
C      1  0.4358360000000  0.4770000000000  0.4878160000000 1.0
C      1  0.4485590000000  0.4918220000000  0.4693700000000 1.0
C      1  0.4491240000000  0.5190110000000  0.4639580000000 1.0
C      1  0.4465650000000  0.5312740000000  0.4915300000000 1.0
C      1  0.4419040000000  0.5214080000000  0.5195730000000 1.0
C      1  0.4345730000000  0.4955170000000  0.5300010000000 1.0
C      1  0.5375870000000  0.4329440000000  0.4292910000000 1.0
C      1  0.5325740000000  0.5121760000000  0.3947760000000 1.0
C      1  0.5387510000000  0.5842390000000  0.4505200000000 1.0
C      1  0.5325520000000  0.5963130000000  0.5372640000000 1.0
C      1  0.5384450000000  0.5274910000000  0.5944950000000 1.0
C      1  0.5322570000000  0.4435200000000  0.5866260000000 1.0
C      1  0.5331150000000  0.3974450000000  0.5123020000000 1.0
C      1  0.4336140000000  0.4865950000000  0.5791630000000 1.0
C      1  0.4379280000000  0.4315960000000  0.5367990000000 1.0
C      1  0.4345100000000  0.4234700000000  0.4711830000000 1.0
C      1  0.4328300000000  0.4768410000000  0.4255120000000 1.0
C      1  0.4324420000000  0.5468300000000  0.4330740000000 1.0
C      1  0.4357870000000  0.5788670000000  0.4942610000000 1.0
C      1  0.4341680000000  0.5539150000000  0.5590720000000 1.0
C      1  0.4884630000000  0.5981310000000  0.4513160000000 1.0
C      1  0.4853750000000  0.5969630000000  0.5481790000000 1.0
C      1  0.4947980000000  0.5206190000000  0.5984820000000 1.0
C      1  0.4849690000000  0.4317310000000  0.5837570000000 1.0
C      1  0.4855510000000  0.3989520000000  0.4986990000000 1.0
C      1  0.4882900000000  0.4400790000000  0.4249700000000 1.0
C      1  0.4852780000000  0.5194270000000  0.4064660000000 1.0
C      1  0.4946830000000  0.5171870000000  0.4355580000000 1.0
C      1  0.5020660000000  0.5561770000000  0.4711260000000 1.0
C      1  0.5028730000000  0.5566630000000  0.5293400000000 1.0
C      1  0.5002510000000  0.5142530000000  0.5695190000000 1.0
C      1  0.5033240000000  0.4593660000000  0.5515040000000 1.0
C      1  0.4996920000000  0.4288410000000  0.4990530000000 1.0
C      1  0.4988370000000  0.4606170000000  0.4448330000000 1.0
C      1  0.4329690000000  0.5732460000000  0.4665500000000 1.0
C      1  0.4336730000000  0.5721670000000  0.5374690000000 1.0
C      1  0.4305680000000  0.5156700000000  0.5772830000000 1.0
C      1  0.4334280000000  0.4471300000000  0.5610920000000 1.0
C      1  0.4301850000000  0.4145070000000  0.4987340000000 1.0
C      1  0.4348170000000  0.4507360000000  0.4378700000000 1.0
C      1  0.4326360000000  0.5197810000000  0.4220800000000 1.0
C      1  0.5930770000000  0.5143860000000  0.4683420000000 1.0
C      1  0.5934340000000  0.5387880000000  0.4902320000000 1.0
C      1  0.5944090000000  0.5324130000000  0.5182290000000 1.0
C      1  0.5912660000000  0.5021910000000  0.5344020000000 1.0
C      1  0.5980760000000  0.4760040000000  0.5222910000000 1.0
C      1  0.5925680000000  0.4676640000000  0.4918340000000 1.0
C      1  0.5945960000000  0.4828710000000  0.4655220000000 1.0
C      1  0.5850520000000  0.4371360000000  0.4910660000000 1.0
C      1  0.5800120000000  0.4735240000000  0.4433970000000 1.0
C      1  0.5857730000000  0.5222700000000  0.4398760000000 1.0
C      1  0.5778140000000  0.5615720000000  0.4819510000000 1.0
C      1  0.5812550000000  0.5477520000000  0.5361250000000 1.0
C      1  0.5793060000000  0.4986160000000  0.5643530000000 1.0
C      1  0.5857550000000  0.4559020000000  0.5371580000000 1.0
C      1  0.4733020000000  0.4388350000000  0.4942450000000 1.0
C      1  0.4755300000000  0.4760590000000  0.4442070000000 1.0
C      1  0.4696540000000  0.5297560000000  0.4460730000000 1.0
C      1  0.4772140000000  0.5664290000000  0.4766670000000 1.0
C      1  0.4760730000000  0.5554230000000  0.5397620000000 1.0
C      1  0.4738740000000  0.5021160000000  0.5646400000000 1.0
C      1  0.4759500000000  0.4534730000000  0.5439480000000 1.0
C      1  0.5622160000000  0.5205600000000  0.5755050000000 1.0
C      1  0.5513410000000  0.4637440000000  0.5782570000000 1.0
C      1  0.5534700000000  0.4154570000000  0.5242610000000 1.0
C      1  0.5598170000000  0.4469600000000  0.4431230000000 1.0
C      1  0.5495040000000  0.5005920000000  0.4155770000000 1.0
C      1  0.5615030000000  0.5663560000000  0.4564430000000 1.0
C      1  0.5542230000000  0.5776940000000  0.5308990000000 1.0
C      1  0.4703910000000  0.5251420000000  0.5251670000000 1.0
C      1  0.4820350000000  0.4992200000000  0.5334390000000 1.0
C      1  0.4726170000000  0.4756820000000  0.5196380000000 1.0
C      1  0.4822570000000  0.4669510000000  0.4924120000000 1.0
C      1  0.4739240000000  0.4862240000000  0.4705870000000 1.0
C      1  0.4874140000000  0.5104050000000  0.4810380000000 1.0
C      1  0.4753170000000  0.5291510000000  0.4967120000000 1.0
C      1  0.5093920000000  0.4614410000000  0.3969010000000 1.0
C      1  0.5101180000000  0.5565690000000  0.4070780000000 1.0
C      1  0.5012970000000  0.6080530000000  0.4753230000000 1.0
C      1  0.5006340000000  0.5857950000000  0.5709980000000 1.0
C      1  0.5048050000000  0.4958960000000  0.6112990000000 1.0
C      1  0.4993650000000  0.4137810000000  0.5662200000000 1.0
C      1  0.5118980000000  0.3946880000000  0.4659050000000 1.0
C      1  0.5625940000000  0.4969390000000  0.5276860000000 1.0
C      1  0.5502780000000  0.4744350000000  0.5164780000000 1.0
C      1  0.5619380000000  0.4709280000000  0.4911480000000 1.0
C      1  0.5513070000000  0.4881960000000  0.4715840000000 1.0
C      1  0.5631790000000  0.5135050000000  0.4752840000000 1.0
C      1  0.5520520000000  0.5292420000000  0.4958430000000 1.0
C      1  0.5506960000000  0.5204600000000  0.5224200000000 1.0
C      1  0.4679190000000  0.4290970000000  0.5279630000000 1.0
C      1  0.4651370000000  0.4244650000000  0.4642600000000 1.0
C      1  0.4628190000000  0.4823900000000  0.4178160000000 1.0
C      1  0.4625650000000  0.5561380000000  0.4334750000000 1.0
C      1  0.4672700000000  0.5836390000000  0.5002200000000 1.0
C      1  0.4662450000000  0.5516790000000  0.5718950000000 1.0
C      1  0.4638740000000  0.4773150000000  0.5857020000000 1.0
C      1  0.4185680000000  0.4720140000000  0.5598950000000 1.0
C      1  0.4181210000000  0.4375600000000  0.5164330000000 1.0
C      1  0.4198190000000  0.4465770000000  0.4620260000000 1.0
C      1  0.4178090000000  0.4984700000000  0.4380620000000 1.0
C      1  0.4182820000000  0.5496620000000  0.4582340000000 1.0
C      1  0.4198430000000  0.5635420000000  0.5126710000000 1.0
C      1  0.4164440000000  0.5315300000000  0.5558910000000 1.0
C      1  0.4902050000000  0.6033890000000  0.5017500000000 1.0
C      1  0.4925680000000  0.5614240000000  0.5840960000000 1.0
C      1  0.4892580000000  0.4732470000000  0.6026780000000 1.0
C      1  0.4879900000000  0.4083450000000  0.5398360000000 1.0
C      1  0.4916640000000  0.4072610000000  0.4512200000000 1.0
C      1  0.4885360000000  0.4791780000000  0.3946020000000 1.0
C      1  0.4907040000000  0.5704490000000  0.4194860000000 1.0
C      1  0.5221780000000  0.4732800000000  0.5154430000000 1.0
C      1  0.5117360000000  0.4686650000000  0.4876750000000 1.0
C      1  0.5233640000000  0.4893950000000  0.4683260000000 1.0
C      1  0.5140690000000  0.5164800000000  0.4746770000000 1.0
C      1  0.5231950000000  0.5320110000000  0.4971970000000 1.0
C      1  0.5226790000000  0.5201650000000  0.5259070000000 1.0
C      1  0.5107350000000  0.4952160000000  0.5317170000000 1.0
C      1  0.4619750000000  0.5778190000000  0.4537350000000 1.0
C      1  0.4625570000000  0.5832200000000  0.5331820000000 1.0
C      1  0.4586860000000  0.5242600000000  0.5789400000000 1.0
C      1  0.4610420000000  0.4492670000000  0.5748090000000 1.0
C      1  0.4558690000000  0.3998330000000  0.4995050000000 1.0
C      1  0.4616060000000  0.4348870000000  0.4376940000000 1.0
C      1  0.4574500000000  0.5107040000000  0.4084750000000 1.0
C      1  0.5041990000000  0.6037930000000  0.5276550000000 1.0
C      1  0.5128450000000  0.5436000000000  0.5971150000000 1.0
C      1  0.5042750000000  0.4486810000000  0.5968810000000 1.0
C      1  0.5047880000000  0.3939300000000  0.5206500000000 1.0
C      1  0.5096570000000  0.4208040000000  0.4320120000000 1.0
C      1  0.5045940000000  0.5033640000000  0.3905540000000 1.0
C      1  0.5090940000000  0.5863540000000  0.4358710000000 1.0
C      1  0.5348990000000  0.4536130000000  0.4086390000000 1.0
C      1  0.5325260000000  0.5405900000000  0.4020610000000 1.0
C      1  0.5305770000000  0.6008530000000  0.4724450000000 1.0
C      1  0.5295810000000  0.5856900000000  0.5640770000000 1.0
C      1  0.5326730000000  0.5007220000000  0.6022700000000 1.0
C      1  0.5283500000000  0.4214480000000  0.5685590000000 1.0
C      1  0.5347400000000  0.3958610000000  0.4830310000000 1.0
C      1  0.4080040000000  0.4704980000000  0.4804530000000 1.0
C      1  0.4073020000000  0.5005670000000  0.4654030000000 1.0
C      1  0.4076710000000  0.5273580000000  0.4771100000000 1.0
C      1  0.4060930000000  0.5371970000000  0.5068240000000 1.0
C      1  0.4032060000000  0.5211800000000  0.5309880000000 1.0
C      1  0.4068570000000  0.4843820000000  0.5328100000000 1.0
C      1  0.4054720000000  0.4632940000000  0.5112580000000 1.0
C      1  0.5666030000000  0.5442530000000  0.4381500000000 1.0
C      1  0.5634870000000  0.5768250000000  0.5029340000000 1.0
C      1  0.5676090000000  0.5459930000000  0.5603630000000 1.0
C      1  0.5752080000000  0.4700610000000  0.5628220000000 1.0
C      1  0.5768930000000  0.4330890000000  0.5185730000000 1.0
C      1  0.5669940000000  0.4326700000000  0.4677820000000 1.0
C      1  0.5771650000000  0.4979080000000  0.4275160000000 1.0
C      1  0.5144600000000  0.5607390000000  0.4982630000000 1.0
C      1  0.5150460000000  0.5396070000000  0.5491720000000 1.0
C      1  0.5147390000000  0.4869720000000  0.5608240000000 1.0
C      1  0.5143860000000  0.4448660000000  0.5287160000000 1.0
C      1  0.5152710000000  0.4406000000000  0.4764210000000 1.0
C      1  0.5146750000000  0.4856250000000  0.4406180000000 1.0
C      1  0.5136420000000  0.5367410000000  0.4496580000000 1.0
END
