TITL C-2441163-1170-1382 0.143840122769007 125000 -23975.8284978323 0 0 184 (C1) n - 1
REM
REM in /home/bkarasulu/work/CARBON/AIRSS/Generating-Clusters/ReaxFF-fromJPCA2015/Units_Real/with-SteepDescent/Higher-Symm
REM
REM
REM
REM
REM
REM ./C.cell (1df0a924f5614ab8850e4351716899ee)
REM
REM compiler GCC version 9.2.1 20190827 (Red Hat 9.2.1-1)
REM options -cpp -mtune=generic -march=x86-64 -g -O0 -fpre-include=/usr/include/finclude/math-vector-fortran.h
REM seed -1015934091 -366641757 1627980067 1737053020 -123821753 -753443539 -298604790 112961003 -1930525048 877938200 96764823 -804092191 -838741848 1867280380 372059014 1088566428 392986393 -37627419 1454272914 783599198 2056268033 -1346734726 2109956330 1290028910 -1302456781 -1292149811 877610208 -464984217 -646886278 -1784787713 -110127288 421403769 1305073994
REM
CELL 1.54180   50.00000   50.00000   50.00000   90.00000   90.00000   90.00000
LATT -1
SFAC C  
C      1  0.5108220000000  0.5329320000000  0.4567870000000 1.0
C      1  0.4898990000000  0.5257530000000  0.5357660000000 1.0
C      1  0.4855700000000  0.4810260000000  0.4641540000000 1.0
C      1  0.5072290000000  0.4738850000000  0.5361710000000 1.0
C      1  0.4720730000000  0.5648150000000  0.5772830000000 1.0
C      1  0.5292640000000  0.5606430000000  0.4235010000000 1.0
C      1  0.5282190000000  0.4354120000000  0.5777510000000 1.0
C      1  0.4706840000000  0.4397830000000  0.4222290000000 1.0
C      1  0.4048760000000  0.5093540000000  0.4904670000000 1.0
C      1  0.5913570000000  0.5096230000000  0.5101130000000 1.0
C      1  0.5919320000000  0.4911870000000  0.4904780000000 1.0
C      1  0.4057810000000  0.4915100000000  0.5095540000000 1.0
C      1  0.6134710000000  0.4818090000000  0.4539320000000 1.0
C      1  0.3926890000000  0.4829390000000  0.5475950000000 1.0
C      1  0.3868320000000  0.5180550000000  0.4534610000000 1.0
C      1  0.6095470000000  0.5156390000000  0.5458730000000 1.0
C      1  0.5795050000000  0.4250290000000  0.4857940000000 1.0
C      1  0.4224840000000  0.4234890000000  0.5139200000000 1.0
C      1  0.4212690000000  0.5775590000000  0.4849420000000 1.0
C      1  0.5785610000000  0.5776750000000  0.5149130000000 1.0
C      1  0.5728460000000  0.4509550000000  0.5247310000000 1.0
C      1  0.4232670000000  0.4533290000000  0.4787360000000 1.0
C      1  0.4230220000000  0.5454200000000  0.5217550000000 1.0
C      1  0.5771910000000  0.5463770000000  0.4772970000000 1.0
C      1  0.4959420000000  0.4302830000000  0.4823950000000 1.0
C      1  0.5039070000000  0.4300190000000  0.5182250000000 1.0
C      1  0.5053950000000  0.5698490000000  0.4860070000000 1.0
C      1  0.4945730000000  0.5688350000000  0.5137150000000 1.0
C      1  0.4948320000000  0.5455410000000  0.4034400000000 1.0
C      1  0.5057770000000  0.5480940000000  0.5985200000000 1.0
C      1  0.5059900000000  0.4558850000000  0.4023200000000 1.0
C      1  0.4959250000000  0.4555210000000  0.6002740000000 1.0
C      1  0.4025360000000  0.5059160000000  0.5355240000000 1.0
C      1  0.5976290000000  0.5042760000000  0.4646230000000 1.0
C      1  0.5984080000000  0.4912830000000  0.5322480000000 1.0
C      1  0.3996870000000  0.4948430000000  0.4657340000000 1.0
C      1  0.4916540000000  0.3901800000000  0.5119150000000 1.0
C      1  0.5087260000000  0.3912920000000  0.4883960000000 1.0
C      1  0.5081060000000  0.6080490000000  0.5120260000000 1.0
C      1  0.4915580000000  0.6081520000000  0.4872890000000 1.0
C      1  0.5332310000000  0.5958690000000  0.4589510000000 1.0
C      1  0.4666790000000  0.5960080000000  0.5402880000000 1.0
C      1  0.4651370000000  0.4045330000000  0.4582460000000 1.0
C      1  0.5346850000000  0.4027360000000  0.5401680000000 1.0
C      1  0.5024380000000  0.4856950000000  0.4412010000000 1.0
C      1  0.5035480000000  0.4851660000000  0.5597870000000 1.0
C      1  0.4996050000000  0.5141490000000  0.4393200000000 1.0
C      1  0.4958120000000  0.5131490000000  0.5603990000000 1.0
C      1  0.4269470000000  0.5090680000000  0.5573070000000 1.0
C      1  0.5713410000000  0.5087750000000  0.4467510000000 1.0
C      1  0.5710650000000  0.4895620000000  0.5554420000000 1.0
C      1  0.4264570000000  0.4888130000000  0.4472440000000 1.0
C      1  0.4692110000000  0.5157340000000  0.5768240000000 1.0
C      1  0.5485880000000  0.5105190000000  0.4114820000000 1.0
C      1  0.5299830000000  0.4824230000000  0.5734060000000 1.0
C      1  0.4509320000000  0.4886600000000  0.4107190000000 1.0
C      1  0.5003030000000  0.4315970000000  0.5822430000000 1.0
C      1  0.4975460000000  0.4342250000000  0.4184320000000 1.0
C      1  0.4988640000000  0.5699990000000  0.5805270000000 1.0
C      1  0.5024570000000  0.5693840000000  0.4191510000000 1.0
C      1  0.4276530000000  0.5658910000000  0.5662370000000 1.0
C      1  0.5731830000000  0.5655100000000  0.4318140000000 1.0
C      1  0.5729100000000  0.4319760000000  0.5682950000000 1.0
C      1  0.4261560000000  0.4356380000000  0.4340420000000 1.0
C      1  0.5475810000000  0.5611790000000  0.5770540000000 1.0
C      1  0.4526030000000  0.5621490000000  0.4223250000000 1.0
C      1  0.4443970000000  0.4320730000000  0.5712750000000 1.0
C      1  0.5481700000000  0.4414660000000  0.4243980000000 1.0
C      1  0.4726350000000  0.5511000000000  0.5050380000000 1.0
C      1  0.5279990000000  0.5532870000000  0.4924980000000 1.0
C      1  0.5270790000000  0.4455800000000  0.5084150000000 1.0
C      1  0.4731370000000  0.4464190000000  0.4919890000000 1.0
C      1  0.5878260000000  0.4661980000000  0.4474420000000 1.0
C      1  0.4060060000000  0.4582590000000  0.5443320000000 1.0
C      1  0.4119730000000  0.5353730000000  0.4480170000000 1.0
C      1  0.5866970000000  0.5349660000000  0.5516120000000 1.0
C      1  0.5039160000000  0.6006540000000  0.4606030000000 1.0
C      1  0.4961290000000  0.5999950000000  0.5385960000000 1.0
C      1  0.4944410000000  0.4037770000000  0.4643730000000 1.0
C      1  0.5045840000000  0.4030410000000  0.5373920000000 1.0
C      1  0.4276970000000  0.5006730000000  0.4211250000000 1.0
C      1  0.5752960000000  0.5057550000000  0.5784970000000 1.0
C      1  0.5708830000000  0.4984990000000  0.4211150000000 1.0
C      1  0.4249900000000  0.4912160000000  0.5796250000000 1.0
C      1  0.5367750000000  0.4462270000000  0.4757880000000 1.0
C      1  0.4636830000000  0.4460580000000  0.5233880000000 1.0
C      1  0.4641230000000  0.5531770000000  0.4733860000000 1.0
C      1  0.5353460000000  0.5524290000000  0.5245020000000 1.0
C      1  0.5510770000000  0.4746590000000  0.4815700000000 1.0
C      1  0.4514110000000  0.4756010000000  0.5202520000000 1.0
C      1  0.4497990000000  0.5237030000000  0.4796340000000 1.0
C      1  0.5504090000000  0.5253830000000  0.5201570000000 1.0
C      1  0.5492340000000  0.4036330000000  0.5152210000000 1.0
C      1  0.4500080000000  0.4034320000000  0.4830690000000 1.0
C      1  0.4510540000000  0.5945670000000  0.5156220000000 1.0
C      1  0.5488910000000  0.5953180000000  0.4837490000000 1.0
C      1  0.4259290000000  0.5564020000000  0.4322750000000 1.0
C      1  0.5739460000000  0.5573040000000  0.5671210000000 1.0
C      1  0.5750800000000  0.4429770000000  0.4327480000000 1.0
C      1  0.4193120000000  0.4430720000000  0.5686740000000 1.0
C      1  0.5777970000000  0.4703970000000  0.4200460000000 1.0
C      1  0.4266870000000  0.4648840000000  0.5840950000000 1.0
C      1  0.4214150000000  0.5290890000000  0.4212350000000 1.0
C      1  0.5815680000000  0.5320190000000  0.5819980000000 1.0
C      1  0.5273130000000  0.5222550000000  0.5648410000000 1.0
C      1  0.4708100000000  0.5161760000000  0.4331830000000 1.0
C      1  0.4719880000000  0.4743670000000  0.5639630000000 1.0
C      1  0.5297650000000  0.4757760000000  0.4406760000000 1.0
C      1  0.5513560000000  0.4188990000000  0.4710430000000 1.0
C      1  0.4503090000000  0.4174760000000  0.5270240000000 1.0
C      1  0.4501340000000  0.5817920000000  0.4702130000000 1.0
C      1  0.5495790000000  0.5814450000000  0.5287280000000 1.0
C      1  0.5349180000000  0.4665320000000  0.5297490000000 1.0
C      1  0.4623050000000  0.4655410000000  0.4719540000000 1.0
C      1  0.4626250000000  0.5325830000000  0.5276070000000 1.0
C      1  0.5374890000000  0.5346540000000  0.4700410000000 1.0
C      1  0.4682690000000  0.5386970000000  0.4125580000000 1.0
C      1  0.5315360000000  0.5376620000000  0.5895230000000 1.0
C      1  0.5296940000000  0.4701700000000  0.4111580000000 1.0
C      1  0.4754880000000  0.4747040000000  0.5935410000000 1.0
C      1  0.6043420000000  0.4699650000000  0.5044220000000 1.0
C      1  0.4006410000000  0.4661780000000  0.4965000000000 1.0
C      1  0.3984020000000  0.5347240000000  0.5041260000000 1.0
C      1  0.6006410000000  0.5338570000000  0.4964040000000 1.0
C      1  0.4904490000000  0.4487330000000  0.5368470000000 1.0
C      1  0.5099490000000  0.4473380000000  0.4626410000000 1.0
C      1  0.5068890000000  0.5503200000000  0.5330600000000 1.0
C      1  0.4925990000000  0.5545720000000  0.4648950000000 1.0
C      1  0.5571620000000  0.5265450000000  0.4887690000000 1.0
C      1  0.4422380000000  0.5251400000000  0.5095300000000 1.0
C      1  0.4427030000000  0.4736120000000  0.4909820000000 1.0
C      1  0.5573000000000  0.4725140000000  0.5128190000000 1.0
C      1  0.4641080000000  0.6002140000000  0.4899920000000 1.0
C      1  0.5356780000000  0.6003340000000  0.5095470000000 1.0
C      1  0.5363110000000  0.3995540000000  0.4897470000000 1.0
C      1  0.4644300000000  0.3981460000000  0.5086070000000 1.0
C      1  0.5111500000000  0.4229700000000  0.4417970000000 1.0
C      1  0.4890430000000  0.4128940000000  0.5630810000000 1.0
C      1  0.4885840000000  0.5878990000000  0.4379080000000 1.0
C      1  0.5117190000000  0.5869250000000  0.5606480000000 1.0
C      1  0.4655670000000  0.5412250000000  0.5908440000000 1.0
C      1  0.5380230000000  0.5371260000000  0.4075620000000 1.0
C      1  0.5370500000000  0.4600390000000  0.5907920000000 1.0
C      1  0.4604880000000  0.4616880000000  0.4061600000000 1.0
C      1  0.4603730000000  0.5833690000000  0.4406510000000 1.0
C      1  0.5400480000000  0.5819260000000  0.5585930000000 1.0
C      1  0.5411300000000  0.4198280000000  0.4407170000000 1.0
C      1  0.4607520000000  0.4144000000000  0.5584480000000 1.0
C      1  0.4773290000000  0.5044210000000  0.4870200000000 1.0
C      1  0.5269640000000  0.5086850000000  0.5126020000000 1.0
C      1  0.5268580000000  0.4907690000000  0.4895840000000 1.0
C      1  0.4792160000000  0.4922510000000  0.5159510000000 1.0
C      1  0.5969250000000  0.4465520000000  0.4912140000000 1.0
C      1  0.4048120000000  0.4467720000000  0.5176970000000 1.0
C      1  0.4030560000000  0.5564900000000  0.4873370000000 1.0
C      1  0.5966530000000  0.5563950000000  0.5122380000000 1.0
C      1  0.4897700000000  0.5280630000000  0.4946830000000 1.0
C      1  0.5133120000000  0.5293940000000  0.4995840000000 1.0
C      1  0.5119450000000  0.4687070000000  0.4974440000000 1.0
C      1  0.4888130000000  0.4691910000000  0.5016820000000 1.0
C      1  0.5731300000000  0.4568710000000  0.5532700000000 1.0
C      1  0.4283930000000  0.4592590000000  0.4503200000000 1.0
C      1  0.4246480000000  0.5403950000000  0.5526750000000 1.0
C      1  0.5739130000000  0.5411950000000  0.4473950000000 1.0
C      1  0.4500910000000  0.5089100000000  0.4544060000000 1.0
C      1  0.5473230000000  0.5093370000000  0.5477870000000 1.0
C      1  0.5492640000000  0.4902360000000  0.4562150000000 1.0
C      1  0.4507330000000  0.4863930000000  0.5489510000000 1.0
C      1  0.4548020000000  0.5794340000000  0.5605120000000 1.0
C      1  0.5450970000000  0.5761320000000  0.4412290000000 1.0
C      1  0.5452270000000  0.4200550000000  0.5603800000000 1.0
C      1  0.4547410000000  0.4239440000000  0.4395440000000 1.0
C      1  0.4282020000000  0.5767830000000  0.5125600000000 1.0
C      1  0.5717680000000  0.5776360000000  0.4873130000000 1.0
C      1  0.5720610000000  0.4224500000000  0.5133530000000 1.0
C      1  0.4279110000000  0.4217090000000  0.4867550000000 1.0
C      1  0.4744320000000  0.5030900000000  0.6023670000000 1.0
C      1  0.5274760000000  0.4982590000000  0.3986080000000 1.0
C      1  0.5251620000000  0.4982180000000  0.5969550000000 1.0
C      1  0.4749360000000  0.4997380000000  0.4014050000000 1.0
C      1  0.5151320000000  0.5255120000000  0.3954380000000 1.0
C      1  0.4847670000000  0.5311920000000  0.6106520000000 1.0
C      1  0.4839020000000  0.4730600000000  0.3937290000000 1.0
C      1  0.5185360000000  0.4724460000000  0.6108730000000 1.0
END
