TITL C-2441160-1326-1437 0.051816940091985 125000 -11523.3508945006 0 0 91 (C1) n - 1
REM
REM in /home/bkarasulu/work/CARBON/AIRSS/Generating-Clusters/ReaxFF-fromJPCA2015/Units_Real/with-SteepDescent/Higher-Symm
REM
REM
REM
REM
REM
REM ./C.cell (1df0a924f5614ab8850e4351716899ee)
REM
REM compiler GCC version 9.2.1 20190827 (Red Hat 9.2.1-1)
REM options -cpp -mtune=generic -march=x86-64 -g -O0 -fpre-include=/usr/include/finclude/math-vector-fortran.h
REM seed -1646957294 1759410259 -691128663 -44322271 501748538 -463705950 810556735 505351395 214856565 450070662 939058594 1736093055 790836449 -671134961 754241261 530648911 -443089591 -567558088 391337686 1849444992 326500493 1521611592 718053588 328492597 -199894649 -380393300 988781074 147124212 -1093929507 -2024038311 -1332723260 -1358857896 290153063
REM
CELL 1.54180   50.00000   50.00000   50.00000   90.00000   90.00000   90.00000
LATT -1
SFAC C  
C      1  0.4695970000000  0.4816400000000  0.5715490000000 1.0
C      1  0.5288770000000  0.4808940000000  0.4276740000000 1.0
C      1  0.5300460000000  0.5153340000000  0.5712820000000 1.0
C      1  0.4707410000000  0.5157220000000  0.4269490000000 1.0
C      1  0.4293930000000  0.5164160000000  0.4473770000000 1.0
C      1  0.5653940000000  0.5196190000000  0.5507790000000 1.0
C      1  0.5678480000000  0.4813270000000  0.4472420000000 1.0
C      1  0.4329890000000  0.4795770000000  0.5517520000000 1.0
C      1  0.5615450000000  0.5086700000000  0.4412830000000 1.0
C      1  0.4351440000000  0.5077250000000  0.5518300000000 1.0
C      1  0.4352740000000  0.4893990000000  0.4407980000000 1.0
C      1  0.5634530000000  0.4912930000000  0.5507450000000 1.0
C      1  0.5057090000000  0.4643050000000  0.4251410000000 1.0
C      1  0.4925060000000  0.4655170000000  0.5747730000000 1.0
C      1  0.4938650000000  0.5330550000000  0.4260640000000 1.0
C      1  0.5052920000000  0.5295930000000  0.5752780000000 1.0
C      1  0.4967680000000  0.4727630000000  0.5248470000000 1.0
C      1  0.4980360000000  0.4695260000000  0.4846620000000 1.0
C      1  0.5026100000000  0.5291920000000  0.5209660000000 1.0
C      1  0.4913480000000  0.5176950000000  0.4766890000000 1.0
C      1  0.4438420000000  0.4364460000000  0.4863890000000 1.0
C      1  0.5552630000000  0.4332080000000  0.5138650000000 1.0
C      1  0.5579740000000  0.5597470000000  0.4892270000000 1.0
C      1  0.4440250000000  0.5645000000000  0.5128490000000 1.0
C      1  0.5206890000000  0.5773110000000  0.5163660000000 1.0
C      1  0.4854290000000  0.5750820000000  0.4748280000000 1.0
C      1  0.4833210000000  0.4228500000000  0.5184170000000 1.0
C      1  0.5151250000000  0.4223320000000  0.4740930000000 1.0
C      1  0.5382130000000  0.4883150000000  0.5653900000000 1.0
C      1  0.4623800000000  0.4878500000000  0.4309310000000 1.0
C      1  0.4614260000000  0.5094580000000  0.5664460000000 1.0
C      1  0.5350570000000  0.5090000000000  0.4310700000000 1.0
C      1  0.4712430000000  0.5742400000000  0.5188380000000 1.0
C      1  0.5308350000000  0.5726530000000  0.4890180000000 1.0
C      1  0.5279640000000  0.4214480000000  0.5188780000000 1.0
C      1  0.4701970000000  0.4262100000000  0.4875600000000 1.0
C      1  0.5395530000000  0.4744630000000  0.4543390000000 1.0
C      1  0.4616000000000  0.4765270000000  0.5436450000000 1.0
C      1  0.4581580000000  0.5241130000000  0.4528100000000 1.0
C      1  0.5374220000000  0.5238820000000  0.5436050000000 1.0
C      1  0.4379400000000  0.5498470000000  0.4884710000000 1.0
C      1  0.5732280000000  0.5472280000000  0.5108980000000 1.0
C      1  0.5615330000000  0.4477790000000  0.4894600000000 1.0
C      1  0.4363210000000  0.4460460000000  0.5137620000000 1.0
C      1  0.4625740000000  0.5534870000000  0.4715130000000 1.0
C      1  0.5337370000000  0.5536660000000  0.5275930000000 1.0
C      1  0.5370870000000  0.4448950000000  0.4719020000000 1.0
C      1  0.4640220000000  0.4451750000000  0.5260320000000 1.0
C      1  0.4769660000000  0.4670360000000  0.5067880000000 1.0
C      1  0.5225420000000  0.4591310000000  0.4949030000000 1.0
C      1  0.5266020000000  0.5350560000000  0.5061550000000 1.0
C      1  0.4772720000000  0.5379170000000  0.4931390000000 1.0
C      1  0.4172480000000  0.5085590000000  0.4729950000000 1.0
C      1  0.5819980000000  0.5222960000000  0.5279570000000 1.0
C      1  0.5802550000000  0.4886910000000  0.4725350000000 1.0
C      1  0.4211760000000  0.4754700000000  0.5264490000000 1.0
C      1  0.4914650000000  0.5496350000000  0.5598780000000 1.0
C      1  0.5102750000000  0.5511710000000  0.4419190000000 1.0
C      1  0.5077250000000  0.4472960000000  0.5596240000000 1.0
C      1  0.4897930000000  0.4466830000000  0.4407950000000 1.0
C      1  0.5745780000000  0.4814600000000  0.5240440000000 1.0
C      1  0.4211150000000  0.4797730000000  0.4785370000000 1.0
C      1  0.4249800000000  0.5168700000000  0.5247590000000 1.0
C      1  0.5800110000000  0.5178210000000  0.4746730000000 1.0
C      1  0.4372040000000  0.4580020000000  0.4656340000000 1.0
C      1  0.5624110000000  0.4557090000000  0.5308860000000 1.0
C      1  0.5596150000000  0.5384330000000  0.4682530000000 1.0
C      1  0.4376020000000  0.5425080000000  0.5305780000000 1.0
C      1  0.5660090000000  0.4770250000000  0.4953030000000 1.0
C      1  0.4375040000000  0.4758820000000  0.5031670000000 1.0
C      1  0.4327310000000  0.5211460000000  0.4951250000000 1.0
C      1  0.5706700000000  0.5195500000000  0.5023980000000 1.0
C      1  0.4889100000000  0.4296000000000  0.4649940000000 1.0
C      1  0.5067840000000  0.4332980000000  0.5349540000000 1.0
C      1  0.5113600000000  0.5679450000000  0.4659930000000 1.0
C      1  0.4924660000000  0.5556050000000  0.5315600000000 1.0
C      1  0.4668490000000  0.5022710000000  0.5257670000000 1.0
C      1  0.5345350000000  0.4967980000000  0.4781190000000 1.0
C      1  0.5302030000000  0.4966090000000  0.5261420000000 1.0
C      1  0.4639930000000  0.5025100000000  0.4750680000000 1.0
C      1  0.4886220000000  0.4738290000000  0.4458950000000 1.0
C      1  0.5101030000000  0.4747800000000  0.5530740000000 1.0
C      1  0.5111910000000  0.5240650000000  0.4459550000000 1.0
C      1  0.4871150000000  0.5220620000000  0.5559200000000 1.0
C      1  0.4608460000000  0.4748710000000  0.4693590000000 1.0
C      1  0.5358470000000  0.4687860000000  0.5217030000000 1.0
C      1  0.5371610000000  0.5252510000000  0.4801570000000 1.0
C      1  0.4628100000000  0.5295440000000  0.5204200000000 1.0
C      1  0.5080370000000  0.4115140000000  0.4997800000000 1.0
C      1  0.4920980000000  0.5837860000000  0.5016020000000 1.0
C      1  0.5072230000000  0.4962610000000  0.4870200000000 1.0
END
