TITL C-2441169-1362-1376 0.0204028806953285 125000 -15120.3577744433 0 0 104 (C1) n - 1
REM
REM in /home/bkarasulu/work/CARBON/AIRSS/Generating-Clusters/ReaxFF-fromJPCA2015/Units_Real/with-SteepDescent/Higher-Symm
REM
REM
REM
REM
REM
REM ./C.cell (1df0a924f5614ab8850e4351716899ee)
REM
REM compiler GCC version 9.2.1 20190827 (Red Hat 9.2.1-1)
REM options -cpp -mtune=generic -march=x86-64 -g -O0 -fpre-include=/usr/include/finclude/math-vector-fortran.h
REM seed 1871094519 919508065 1092136122 -2047676711 993490957 -551334349 -1315502753 357559738 1671742067 151029376 -960671796 -406801357 365954407 1152797172 118568646 1580197165 251653932 -48085240 852883445 838930057 1524139311 -1820298224 -1194985959 1247302057 1035846343 -503959675 -1096870791 2036331555 2012619697 -1372116375 110562683 573490143 1581885102
REM
CELL 1.54180   50.00000   50.00000   50.00000   90.00000   90.00000   90.00000
LATT -1
SFAC C  
C      1  0.5741470000000  0.4445890000000  0.5001990000000 1.0
C      1  0.4989930000000  0.4152600000000  0.4609200000000 1.0
C      1  0.4790800000000  0.4695440000000  0.4779300000000 1.0
C      1  0.4427120000000  0.5609330000000  0.5382210000000 1.0
C      1  0.4893970000000  0.5358550000000  0.5123520000000 1.0
C      1  0.5551770000000  0.5448840000000  0.4441700000000 1.0
C      1  0.4775580000000  0.4840610000000  0.5299500000000 1.0
C      1  0.4849020000000  0.4371230000000  0.4446270000000 1.0
C      1  0.4881010000000  0.5178940000000  0.4174650000000 1.0
C      1  0.4111380000000  0.4761310000000  0.4896020000000 1.0
C      1  0.5342720000000  0.4962210000000  0.4200560000000 1.0
C      1  0.5146660000000  0.4745890000000  0.4159060000000 1.0
C      1  0.5171990000000  0.5818450000000  0.5392720000000 1.0
C      1  0.5296520000000  0.4724470000000  0.5076110000000 1.0
C      1  0.5207100000000  0.5836970000000  0.4681180000000 1.0
C      1  0.5705900000000  0.5069320000000  0.5559630000000 1.0
C      1  0.4614040000000  0.4919520000000  0.4817710000000 1.0
C      1  0.5089820000000  0.4494980000000  0.4314990000000 1.0
C      1  0.4178550000000  0.4806030000000  0.4396900000000 1.0
C      1  0.4380220000000  0.5396260000000  0.5580760000000 1.0
C      1  0.5224030000000  0.5272960000000  0.4796310000000 1.0
C      1  0.4711530000000  0.4993620000000  0.5072610000000 1.0
C      1  0.4419480000000  0.5205390000000  0.5360130000000 1.0
C      1  0.5119650000000  0.4344760000000  0.5501310000000 1.0
C      1  0.4445290000000  0.5391850000000  0.4654480000000 1.0
C      1  0.4952760000000  0.5389180000000  0.4830080000000 1.0
C      1  0.5357110000000  0.5797110000000  0.5173580000000 1.0
C      1  0.5756340000000  0.4905290000000  0.5127680000000 1.0
C      1  0.4667250000000  0.4566900000000  0.5633320000000 1.0
C      1  0.5792710000000  0.5128990000000  0.5300790000000 1.0
C      1  0.5110530000000  0.5681620000000  0.4471970000000 1.0
C      1  0.4816730000000  0.5453290000000  0.5667860000000 1.0
C      1  0.4239530000000  0.5219410000000  0.4779550000000 1.0
C      1  0.5323920000000  0.5186560000000  0.5069580000000 1.0
C      1  0.5178920000000  0.5019540000000  0.4621030000000 1.0
C      1  0.4630590000000  0.5249950000000  0.5165750000000 1.0
C      1  0.4697300000000  0.5224730000000  0.4659830000000 1.0
C      1  0.5400850000000  0.4769430000000  0.5793140000000 1.0
C      1  0.5837130000000  0.4899030000000  0.4700560000000 1.0
C      1  0.4077600000000  0.4651700000000  0.4624200000000 1.0
C      1  0.5707000000000  0.5396970000000  0.4880580000000 1.0
C      1  0.4877650000000  0.5611070000000  0.4645690000000 1.0
C      1  0.5094490000000  0.5209880000000  0.5249640000000 1.0
C      1  0.4885280000000  0.5825910000000  0.5319820000000 1.0
C      1  0.5281450000000  0.4589290000000  0.5563640000000 1.0
C      1  0.4711460000000  0.5766150000000  0.4830230000000 1.0
C      1  0.5443110000000  0.4903420000000  0.4631490000000 1.0
C      1  0.5171500000000  0.5185360000000  0.4306550000000 1.0
C      1  0.4704540000000  0.5651850000000  0.5473910000000 1.0
C      1  0.5539530000000  0.4412130000000  0.5225310000000 1.0
C      1  0.4704960000000  0.5255510000000  0.4378610000000 1.0
C      1  0.5055700000000  0.4769650000000  0.4719430000000 1.0
C      1  0.5262260000000  0.4309030000000  0.5259140000000 1.0
C      1  0.4985690000000  0.4941820000000  0.5742560000000 1.0
C      1  0.5102330000000  0.5448210000000  0.5733670000000 1.0
C      1  0.5549210000000  0.5289930000000  0.5654070000000 1.0
C      1  0.4283380000000  0.4352020000000  0.5049890000000 1.0
C      1  0.5562750000000  0.4562330000000  0.5472290000000 1.0
C      1  0.5573020000000  0.5603800000000  0.5229270000000 1.0
C      1  0.5231090000000  0.4978620000000  0.5859430000000 1.0
C      1  0.5251530000000  0.4569890000000  0.4825370000000 1.0
C      1  0.5632670000000  0.4798740000000  0.5626470000000 1.0
C      1  0.4571910000000  0.4971670000000  0.5730010000000 1.0
C      1  0.5736440000000  0.5208800000000  0.4432290000000 1.0
C      1  0.5254850000000  0.4265940000000  0.4668210000000 1.0
C      1  0.5866570000000  0.4651220000000  0.5138090000000 1.0
C      1  0.5481110000000  0.4617850000000  0.4625180000000 1.0
C      1  0.4173980000000  0.5078960000000  0.5252280000000 1.0
C      1  0.5008740000000  0.4963270000000  0.5422170000000 1.0
C      1  0.4764750000000  0.4773780000000  0.5819810000000 1.0
C      1  0.4326780000000  0.5542190000000  0.5105800000000 1.0
C      1  0.4830910000000  0.4354670000000  0.5514210000000 1.0
C      1  0.5280680000000  0.5463980000000  0.4343450000000 1.0
C      1  0.4887170000000  0.5875730000000  0.5035940000000 1.0
C      1  0.4520790000000  0.4579180000000  0.4305750000000 1.0
C      1  0.4169500000000  0.5301340000000  0.5049380000000 1.0
C      1  0.5179140000000  0.5897170000000  0.4954120000000 1.0
C      1  0.4767830000000  0.4258760000000  0.5244850000000 1.0
C      1  0.4263850000000  0.4522580000000  0.4438770000000 1.0
C      1  0.4255870000000  0.4804520000000  0.5292280000000 1.0
C      1  0.4321600000000  0.4946410000000  0.4813700000000 1.0
C      1  0.5847040000000  0.5185330000000  0.4702080000000 1.0
C      1  0.5013860000000  0.4316520000000  0.5099160000000 1.0
C      1  0.4934990000000  0.4154410000000  0.4886220000000 1.0
C      1  0.5473440000000  0.4933070000000  0.4983730000000 1.0
C      1  0.4904630000000  0.4891830000000  0.4096850000000 1.0
C      1  0.4682190000000  0.4453280000000  0.4676180000000 1.0
C      1  0.5301160000000  0.5242190000000  0.5795760000000 1.0
C      1  0.5632220000000  0.5325110000000  0.5150380000000 1.0
C      1  0.5272090000000  0.5647250000000  0.5606100000000 1.0
C      1  0.4419770000000  0.4859940000000  0.4245790000000 1.0
C      1  0.5171820000000  0.4747060000000  0.5330940000000 1.0
C      1  0.5338060000000  0.4409940000000  0.4438700000000 1.0
C      1  0.4477980000000  0.4322800000000  0.4838480000000 1.0
C      1  0.5526910000000  0.5543130000000  0.5513930000000 1.0
C      1  0.4540650000000  0.4361160000000  0.5112230000000 1.0
C      1  0.4600520000000  0.5265390000000  0.5731910000000 1.0
C      1  0.5581480000000  0.4968040000000  0.4368570000000 1.0
C      1  0.4149100000000  0.4593160000000  0.5135660000000 1.0
C      1  0.4704320000000  0.4814550000000  0.4295240000000 1.0
C      1  0.5769740000000  0.4620340000000  0.4745480000000 1.0
C      1  0.4466350000000  0.5607150000000  0.4858410000000 1.0
C      1  0.5475720000000  0.5455390000000  0.4720390000000 1.0
C      1  0.4538080000000  0.4785180000000  0.5466700000000 1.0
END
