TITL C-2441162-9305-892 0.0162326104040122 125000 -8362.59171699804 0 0 60 (C1) n - 1
REM
REM in /home/bkarasulu/work/CARBON/AIRSS/Generating-Clusters/ReaxFF-fromJPCA2015/Units_Real/with-SteepDescent/Higher-Symm
REM
REM
REM
REM
REM
REM ./C.cell (1df0a924f5614ab8850e4351716899ee)
REM
REM compiler GCC version 9.2.1 20190827 (Red Hat 9.2.1-1)
REM options -cpp -mtune=generic -march=x86-64 -g -O0 -fpre-include=/usr/include/finclude/math-vector-fortran.h
REM seed 1076314220 2003597927 -607827353 847389117 58896084 37495012 586281097 1817713111 350890770 -1541657815 -682176674 999567889 -896839009 -782465062 -244436550 -1034169691 1219864859 -1147389060 1843033542 -1420902149 -1371523086 -1432973546 -10747212 -1973130216 1864213171 2044464156 894220344 561370920 -769601462 -1386960569 783643584 -1104688870 -1501654297
REM
CELL 1.54180   50.00000   50.00000   50.00000   90.00000   90.00000   90.00000
LATT -1
SFAC C  
C      1  0.4851620000000  0.4996750000000  0.4322320000000 1.0
C      1  0.5150720000000  0.5002610000000  0.4317070000000 1.0
C      1  0.4847650000000  0.5105280000000  0.5202450000000 1.0
C      1  0.5155100000000  0.5107500000000  0.5199800000000 1.0
C      1  0.5137960000000  0.4891030000000  0.5618270000000 1.0
C      1  0.4862010000000  0.4893240000000  0.5621000000000 1.0
C      1  0.4848680000000  0.4317780000000  0.5083440000000 1.0
C      1  0.5151860000000  0.4321800000000  0.5082320000000 1.0
C      1  0.4302930000000  0.5283440000000  0.4784080000000 1.0
C      1  0.5697710000000  0.5277890000000  0.4790920000000 1.0
C      1  0.5282790000000  0.5525520000000  0.4860870000000 1.0
C      1  0.4718640000000  0.5525940000000  0.4860380000000 1.0
C      1  0.4517280000000  0.4677540000000  0.5308020000000 1.0
C      1  0.5474110000000  0.4701860000000  0.5317720000000 1.0
C      1  0.4858370000000  0.4396400000000  0.5370830000000 1.0
C      1  0.5145100000000  0.4400600000000  0.5369450000000 1.0
C      1  0.4214160000000  0.5151760000000  0.5032720000000 1.0
C      1  0.5779190000000  0.5148320000000  0.5042220000000 1.0
C      1  0.4856270000000  0.5388990000000  0.4645630000000 1.0
C      1  0.5144780000000  0.5388000000000  0.4646710000000 1.0
C      1  0.5388690000000  0.4676760000000  0.4404820000000 1.0
C      1  0.4610770000000  0.4675700000000  0.4404680000000 1.0
C      1  0.4386680000000  0.4754000000000  0.4826970000000 1.0
C      1  0.5611460000000  0.4755020000000  0.4823340000000 1.0
C      1  0.5590710000000  0.4908660000000  0.5307000000000 1.0
C      1  0.4402250000000  0.4915500000000  0.5326930000000 1.0
C      1  0.5606120000000  0.5333010000000  0.5190900000000 1.0
C      1  0.4394140000000  0.5327260000000  0.5185860000000 1.0
C      1  0.5147040000000  0.4984060000000  0.4945140000000 1.0
C      1  0.4852240000000  0.4981050000000  0.4948100000000 1.0
C      1  0.4707870000000  0.5432780000000  0.5579020000000 1.0
C      1  0.5285830000000  0.5433190000000  0.5577670000000 1.0
C      1  0.5529300000000  0.5116490000000  0.4606540000000 1.0
C      1  0.4472780000000  0.5120450000000  0.4605700000000 1.0
C      1  0.5270910000000  0.4660700000000  0.5455380000000 1.0
C      1  0.4733970000000  0.4659220000000  0.5451990000000 1.0
C      1  0.5745280000000  0.4856090000000  0.5074290000000 1.0
C      1  0.4251000000000  0.4858840000000  0.5071790000000 1.0
C      1  0.4613070000000  0.4928280000000  0.4781290000000 1.0
C      1  0.5382410000000  0.4924440000000  0.4777480000000 1.0
C      1  0.5152480000000  0.5187770000000  0.5699340000000 1.0
C      1  0.4852150000000  0.5186050000000  0.5701230000000 1.0
C      1  0.5541880000000  0.5464960000000  0.4940680000000 1.0
C      1  0.4460570000000  0.5463690000000  0.4940670000000 1.0
C      1  0.4851520000000  0.4764840000000  0.4492600000000 1.0
C      1  0.5145100000000  0.4767880000000  0.4485220000000 1.0
C      1  0.5292410000000  0.5213980000000  0.4466020000000 1.0
C      1  0.4709290000000  0.5213320000000  0.4465500000000 1.0
C      1  0.5417900000000  0.5151890000000  0.5331330000000 1.0
C      1  0.4587900000000  0.5163310000000  0.5340020000000 1.0
C      1  0.4689050000000  0.4443520000000  0.4722490000000 1.0
C      1  0.5312740000000  0.4442830000000  0.4721420000000 1.0
C      1  0.4861240000000  0.5656780000000  0.5064960000000 1.0
C      1  0.5139450000000  0.5658260000000  0.5063230000000 1.0
C      1  0.5550460000000  0.4544960000000  0.4601490000000 1.0
C      1  0.4451380000000  0.4544050000000  0.4603260000000 1.0
C      1  0.4856420000000  0.5598560000000  0.5354580000000 1.0
C      1  0.5144800000000  0.5600240000000  0.5355360000000 1.0
C      1  0.4850800000000  0.4563080000000  0.4916080000000 1.0
C      1  0.5152990000000  0.4566260000000  0.4913410000000 1.0
END
