TITL C-2441162-9305-707 0.00577170315293524 125000 -2920.17621335677 0 0 24 (Ci) n - 1
REM
REM in /home/bkarasulu/work/CARBON/AIRSS/Generating-Clusters/ReaxFF-fromJPCA2015/Units_Real/with-SteepDescent/Higher-Symm
REM
REM
REM
REM
REM
REM ./C.cell (1df0a924f5614ab8850e4351716899ee)
REM
REM compiler GCC version 9.2.1 20190827 (Red Hat 9.2.1-1)
REM options -cpp -mtune=generic -march=x86-64 -g -O0 -fpre-include=/usr/include/finclude/math-vector-fortran.h
REM seed -1394997222 124453269 2026242030 -1774254884 954828604 -976380709 -1697739209 -975214254 -399995775 -1570993341 850323582 -2056473353 -2012162712 369225386 -159072312 713837461 844428201 1550306244 1887451693 2142476291 1711067950 -1397736273 -394785626 1909532766 2128894568 339890021 -830003501 31227645 -1079475275 477585013 729951390 583317030 -108878447
REM
CELL 1.54180   50.00000   50.00000   50.00000   90.00000   90.00000   90.00000
LATT -1
SFAC C  
C      1  0.5322030000000  0.5209310000000  0.5349270000000 1.0
C      1  0.4677970000000  0.4790690000000  0.4650730000000 1.0
C      1  0.5456050000000  0.5135640000000  0.4960070000000 1.0
C      1  0.4543950000000  0.4864360000000  0.5039930000000 1.0
C      1  0.4942840000000  0.5177050000000  0.4925220000000 1.0
C      1  0.5057160000000  0.4822950000000  0.5074780000000 1.0
C      1  0.4761480000000  0.4868220000000  0.5227250000000 1.0
C      1  0.5238520000000  0.5131780000000  0.4772750000000 1.0
C      1  0.4994360000000  0.4772520000000  0.4591870000000 1.0
C      1  0.5005640000000  0.5227480000000  0.5408130000000 1.0
C      1  0.5327930000000  0.5364310000000  0.5104960000000 1.0
C      1  0.4672070000000  0.4635690000000  0.4895040000000 1.0
C      1  0.4960910000000  0.4558560000000  0.5006510000000 1.0
C      1  0.5039090000000  0.5441440000000  0.4993490000000 1.0
C      1  0.5143130000000  0.4681450000000  0.4835420000000 1.0
C      1  0.4856870000000  0.5318540000000  0.5164580000000 1.0
C      1  0.5270850000000  0.4747380000000  0.5311710000000 1.0
C      1  0.4729150000000  0.5252620000000  0.4688290000000 1.0
C      1  0.5445080000000  0.4977990000000  0.5230140000000 1.0
C      1  0.4554930000000  0.5022010000000  0.4769860000000 1.0
C      1  0.5129940000000  0.4503660000000  0.5303110000000 1.0
C      1  0.4870060000000  0.5496340000000  0.4696890000000 1.0
C      1  0.5108490000000  0.4580620000000  0.4447310000000 1.0
C      1  0.4891510000000  0.5419380000000  0.5552690000000 1.0
END
