TITL C-2441161-5029-91 0.23258122124974 125000 -22826.4311778031 0 0 195 (C1) n - 1
REM
REM in /home/bkarasulu/work/CARBON/AIRSS/Generating-Clusters/ReaxFF-fromJPCA2015/Units_Real/with-SteepDescent/Higher-Symm
REM
REM
REM
REM
REM
REM ./C.cell (1df0a924f5614ab8850e4351716899ee)
REM
REM compiler GCC version 9.2.1 20190827 (Red Hat 9.2.1-1)
REM options -cpp -mtune=generic -march=x86-64 -g -O0 -fpre-include=/usr/include/finclude/math-vector-fortran.h
REM seed 1827670443 1328959842 1980017878 1015877854 -101012119 1877180325 1411442268 -1348308115 1895247246 102303768 -120585375 2083148803 -586347666 1492288153 -1273176740 -204446652 541524194 -1600871956 -969588111 110309383 1404785461 1368619756 -499365387 -2109354728 2003588361 1936549129 -9146831 115311850 1307777495 1490553849 1488324558 1432517886 -252125340
REM
CELL 1.54180   50.00000   50.00000   50.00000   90.00000   90.00000   90.00000
LATT -1
SFAC C  
C      1  0.5093430000000  0.4679980000000  0.5349330000000 1.0
C      1  0.5027090000000  0.5476470000000  0.4743030000000 1.0
C      1  0.5201940000000  0.6073990000000  0.5000910000000 1.0
C      1  0.4731710000000  0.3938310000000  0.4978580000000 1.0
C      1  0.5542110000000  0.4031820000000  0.4818060000000 1.0
C      1  0.4482330000000  0.5935510000000  0.5171200000000 1.0
C      1  0.5814210000000  0.5745860000000  0.5084130000000 1.0
C      1  0.4198050000000  0.4271390000000  0.4931480000000 1.0
C      1  0.4021150000000  0.5083400000000  0.4633410000000 1.0
C      1  0.6046970000000  0.4861520000000  0.5309570000000 1.0
C      1  0.5074230000000  0.5978050000000  0.4745350000000 1.0
C      1  0.4888450000000  0.4013170000000  0.5241690000000 1.0
C      1  0.4005050000000  0.4482060000000  0.4849140000000 1.0
C      1  0.5999200000000  0.5542610000000  0.5174660000000 1.0
C      1  0.4264600000000  0.4335230000000  0.4462230000000 1.0
C      1  0.5739270000000  0.5680030000000  0.5557460000000 1.0
C      1  0.5052370000000  0.4964940000000  0.4724320000000 1.0
C      1  0.4891730000000  0.5050710000000  0.5201480000000 1.0
C      1  0.4461410000000  0.4358360000000  0.5061290000000 1.0
C      1  0.5548480000000  0.5664580000000  0.4954430000000 1.0
C      1  0.4985610000000  0.4207580000000  0.5754340000000 1.0
C      1  0.5091220000000  0.5772190000000  0.4218210000000 1.0
C      1  0.4787570000000  0.5604840000000  0.5041150000000 1.0
C      1  0.5156380000000  0.4293080000000  0.4932900000000 1.0
C      1  0.5903360000000  0.4926350000000  0.4777400000000 1.0
C      1  0.4015750000000  0.5074860000000  0.5279810000000 1.0
C      1  0.5538770000000  0.4348400000000  0.5686390000000 1.0
C      1  0.4464920000000  0.5630080000000  0.4357700000000 1.0
C      1  0.3895290000000  0.4729130000000  0.4990710000000 1.0
C      1  0.6089790000000  0.5282990000000  0.5067810000000 1.0
C      1  0.5675080000000  0.5405720000000  0.4865770000000 1.0
C      1  0.4335480000000  0.4617380000000  0.5161520000000 1.0
C      1  0.4763420000000  0.5267650000000  0.5348530000000 1.0
C      1  0.5227670000000  0.4728270000000  0.4664660000000 1.0
C      1  0.5437480000000  0.4817580000000  0.5562980000000 1.0
C      1  0.4618810000000  0.5208210000000  0.4437760000000 1.0
C      1  0.4196270000000  0.4498510000000  0.5594500000000 1.0
C      1  0.5804170000000  0.5504690000000  0.4416450000000 1.0
C      1  0.5104170000000  0.4053800000000  0.5510830000000 1.0
C      1  0.4877400000000  0.5884540000000  0.4402760000000 1.0
C      1  0.4765760000000  0.4232090000000  0.4461080000000 1.0
C      1  0.5263690000000  0.5792140000000  0.5559930000000 1.0
C      1  0.5397280000000  0.5433210000000  0.5981730000000 1.0
C      1  0.4609830000000  0.4563270000000  0.4034060000000 1.0
C      1  0.6001560000000  0.5146100000000  0.4607210000000 1.0
C      1  0.3969260000000  0.4841650000000  0.5442310000000 1.0
C      1  0.3905900000000  0.4628610000000  0.5264790000000 1.0
C      1  0.6083580000000  0.5355110000000  0.4782140000000 1.0
C      1  0.4875230000000  0.5314310000000  0.4909910000000 1.0
C      1  0.5063300000000  0.4664350000000  0.5057460000000 1.0
C      1  0.4670330000000  0.5940330000000  0.4676300000000 1.0
C      1  0.5352600000000  0.4076690000000  0.5318570000000 1.0
C      1  0.4880070000000  0.5587580000000  0.5836780000000 1.0
C      1  0.5140930000000  0.4442230000000  0.4139500000000 1.0
C      1  0.5041500000000  0.5104250000000  0.4419340000000 1.0
C      1  0.4962030000000  0.4877310000000  0.5516050000000 1.0
C      1  0.4658880000000  0.4760080000000  0.4885000000000 1.0
C      1  0.5366280000000  0.5215920000000  0.5122460000000 1.0
C      1  0.4018920000000  0.5334300000000  0.5412510000000 1.0
C      1  0.5971870000000  0.4676070000000  0.4613330000000 1.0
C      1  0.5596330000000  0.4630470000000  0.4488630000000 1.0
C      1  0.4398390000000  0.5360260000000  0.5529750000000 1.0
C      1  0.5246300000000  0.5290620000000  0.5502650000000 1.0
C      1  0.4743930000000  0.4745030000000  0.4461150000000 1.0
C      1  0.5002100000000  0.5798880000000  0.5658530000000 1.0
C      1  0.5009500000000  0.4206480000000  0.4338560000000 1.0
C      1  0.4756560000000  0.4461070000000  0.5389470000000 1.0
C      1  0.5287950000000  0.5400780000000  0.4653950000000 1.0
C      1  0.4942560000000  0.6027980000000  0.5149220000000 1.0
C      1  0.5114410000000  0.4006920000000  0.4857370000000 1.0
C      1  0.5867090000000  0.5461020000000  0.5415850000000 1.0
C      1  0.4085190000000  0.4544560000000  0.4582900000000 1.0
C      1  0.4903140000000  0.5441060000000  0.4307840000000 1.0
C      1  0.5066200000000  0.4494620000000  0.5746290000000 1.0
C      1  0.4500260000000  0.4915420000000  0.5889570000000 1.0
C      1  0.5518400000000  0.5091180000000  0.4071430000000 1.0
C      1  0.5605130000000  0.4168900000000  0.5455770000000 1.0
C      1  0.4408850000000  0.5852940000000  0.4585520000000 1.0
C      1  0.5718910000000  0.4566460000000  0.5733510000000 1.0
C      1  0.4292390000000  0.5406080000000  0.4265190000000 1.0
C      1  0.5842840000000  0.4673420000000  0.5498370000000 1.0
C      1  0.4152010000000  0.5307030000000  0.4482320000000 1.0
C      1  0.4869610000000  0.4559790000000  0.5936880000000 1.0
C      1  0.5132590000000  0.5502910000000  0.4061210000000 1.0
C      1  0.5429740000000  0.5671220000000  0.4524670000000 1.0
C      1  0.4574140000000  0.4277270000000  0.5509900000000 1.0
C      1  0.4149970000000  0.4818130000000  0.4668900000000 1.0
C      1  0.5785800000000  0.5213650000000  0.5317670000000 1.0
C      1  0.4123150000000  0.4768670000000  0.5657610000000 1.0
C      1  0.5834000000000  0.5213510000000  0.4381590000000 1.0
C      1  0.5571000000000  0.5606260000000  0.4286530000000 1.0
C      1  0.4432940000000  0.4413990000000  0.5722500000000 1.0
C      1  0.5689520000000  0.4312670000000  0.5206400000000 1.0
C      1  0.4289150000000  0.5700110000000  0.4811480000000 1.0
C      1  0.5366010000000  0.4324480000000  0.4475870000000 1.0
C      1  0.4643200000000  0.5681510000000  0.5527250000000 1.0
C      1  0.5673090000000  0.5165520000000  0.5080160000000 1.0
C      1  0.4324550000000  0.4813620000000  0.4889850000000 1.0
C      1  0.4901110000000  0.5977700000000  0.5438170000000 1.0
C      1  0.5116310000000  0.4019520000000  0.4538510000000 1.0
C      1  0.5583050000000  0.5041960000000  0.4714230000000 1.0
C      1  0.4485690000000  0.4848010000000  0.5351630000000 1.0
C      1  0.4700930000000  0.4713370000000  0.5526210000000 1.0
C      1  0.5280720000000  0.5250350000000  0.4412250000000 1.0
C      1  0.4999600000000  0.5659350000000  0.4444570000000 1.0
C      1  0.5002730000000  0.4340270000000  0.5510490000000 1.0
C      1  0.4613440000000  0.4018790000000  0.5374680000000 1.0
C      1  0.5347950000000  0.5932340000000  0.4622760000000 1.0
C      1  0.4878700000000  0.5339040000000  0.6019100000000 1.0
C      1  0.5111320000000  0.4673040000000  0.3953770000000 1.0
C      1  0.4352600000000  0.4183710000000  0.4693680000000 1.0
C      1  0.5660570000000  0.5834490000000  0.5324460000000 1.0
C      1  0.5405690000000  0.4047930000000  0.4558450000000 1.0
C      1  0.4613400000000  0.5953860000000  0.5429760000000 1.0
C      1  0.5516680000000  0.4768020000000  0.5888050000000 1.0
C      1  0.4465350000000  0.5242550000000  0.4075100000000 1.0
C      1  0.5755190000000  0.4991420000000  0.4206560000000 1.0
C      1  0.4241540000000  0.4991610000000  0.5786140000000 1.0
C      1  0.5259330000000  0.5158120000000  0.5925360000000 1.0
C      1  0.4753930000000  0.4843510000000  0.4057100000000 1.0
C      1  0.5158090000000  0.4451370000000  0.4654820000000 1.0
C      1  0.4806570000000  0.5548000000000  0.5333930000000 1.0
C      1  0.5352120000000  0.3954640000000  0.5026190000000 1.0
C      1  0.4695910000000  0.5992030000000  0.4973930000000 1.0
C      1  0.4429760000000  0.4503110000000  0.4267270000000 1.0
C      1  0.5618590000000  0.5485020000000  0.5744150000000 1.0
C      1  0.5323770000000  0.4822340000000  0.5073960000000 1.0
C      1  0.4658430000000  0.5159540000000  0.4829910000000 1.0
C      1  0.4240290000000  0.5300350000000  0.5026960000000 1.0
C      1  0.5713460000000  0.4639600000000  0.4978520000000 1.0
C      1  0.6048220000000  0.4991490000000  0.5056170000000 1.0
C      1  0.3970010000000  0.5007660000000  0.5004910000000 1.0
C      1  0.4162120000000  0.5249570000000  0.5654600000000 1.0
C      1  0.5836390000000  0.4727590000000  0.4355150000000 1.0
C      1  0.4304430000000  0.5703230000000  0.5249260000000 1.0
C      1  0.5710490000000  0.4275670000000  0.4748910000000 1.0
C      1  0.4592920000000  0.5462500000000  0.4571270000000 1.0
C      1  0.5348710000000  0.4598470000000  0.5395620000000 1.0
C      1  0.5876670000000  0.5552820000000  0.4715610000000 1.0
C      1  0.4134820000000  0.4450380000000  0.5304460000000 1.0
C      1  0.4705610000000  0.5598880000000  0.4153170000000 1.0
C      1  0.5312870000000  0.4409310000000  0.5871000000000 1.0
C      1  0.5284420000000  0.4645240000000  0.6029770000000 1.0
C      1  0.4719410000000  0.5374290000000  0.3965780000000 1.0
C      1  0.5535590000000  0.5092190000000  0.5508870000000 1.0
C      1  0.4527000000000  0.4936410000000  0.4447660000000 1.0
C      1  0.5419770000000  0.4410820000000  0.4193970000000 1.0
C      1  0.4589800000000  0.5573210000000  0.5796420000000 1.0
C      1  0.4303020000000  0.4864650000000  0.4271470000000 1.0
C      1  0.5729990000000  0.5153630000000  0.5732840000000 1.0
C      1  0.5370560000000  0.5526290000000  0.5596200000000 1.0
C      1  0.4635570000000  0.4487200000000  0.4451150000000 1.0
C      1  0.5495200000000  0.4674650000000  0.4109600000000 1.0
C      1  0.4601360000000  0.5306470000000  0.5944850000000 1.0
C      1  0.5458400000000  0.5955600000000  0.4887400000000 1.0
C      1  0.4492660000000  0.4039540000000  0.5113490000000 1.0
C      1  0.4571390000000  0.5144820000000  0.5524720000000 1.0
C      1  0.5432210000000  0.4867380000000  0.4505390000000 1.0
C      1  0.5554610000000  0.5054960000000  0.5943110000000 1.0
C      1  0.4471520000000  0.4953390000000  0.4046140000000 1.0
C      1  0.4550520000000  0.5566540000000  0.4843540000000 1.0
C      1  0.5405070000000  0.4387090000000  0.5172390000000 1.0
C      1  0.4987750000000  0.5263210000000  0.3945590000000 1.0
C      1  0.5026320000000  0.4773350000000  0.6063080000000 1.0
C      1  0.5918060000000  0.4446260000000  0.5067930000000 1.0
C      1  0.4077760000000  0.5533350000000  0.4941450000000 1.0
C      1  0.5931040000000  0.4928440000000  0.5564220000000 1.0
C      1  0.4087950000000  0.5062810000000  0.4352690000000 1.0
C      1  0.4602720000000  0.4639760000000  0.5822670000000 1.0
C      1  0.5402040000000  0.5370190000000  0.4168650000000 1.0
C      1  0.5971170000000  0.4424370000000  0.4772450000000 1.0
C      1  0.4032070000000  0.5578870000000  0.5234700000000 1.0
C      1  0.5014410000000  0.5081620000000  0.6082440000000 1.0
C      1  0.5005960000000  0.4951090000000  0.3898810000000 1.0
C      1  0.5268010000000  0.5004290000000  0.5251220000000 1.0
C      1  0.4772880000000  0.4942980000000  0.4731840000000 1.0
C      1  0.5369730000000  0.5876500000000  0.5300550000000 1.0
C      1  0.4644480000000  0.4111460000000  0.4723670000000 1.0
C      1  0.5223210000000  0.5400090000000  0.5250220000000 1.0
C      1  0.4859010000000  0.4582410000000  0.4862710000000 1.0
C      1  0.5563960000000  0.4534360000000  0.4757130000000 1.0
C      1  0.4406550000000  0.5424470000000  0.5242800000000 1.0
C      1  0.4678850000000  0.4877120000000  0.5146880000000 1.0
C      1  0.5362550000000  0.5175650000000  0.4842500000000 1.0
C      1  0.5260260000000  0.5649660000000  0.5126580000000 1.0
C      1  0.4736470000000  0.4353470000000  0.4929420000000 1.0
C      1  0.4959020000000  0.4856680000000  0.4294450000000 1.0
C      1  0.5042730000000  0.5119170000000  0.5662680000000 1.0
C      1  0.5609060000000  0.4858000000000  0.5102430000000 1.0
C      1  0.4394380000000  0.5107020000000  0.4889650000000 1.0
C      1  0.5343010000000  0.4901680000000  0.4199510000000 1.0
C      1  0.4682230000000  0.5097800000000  0.5773020000000 1.0
C      1  0.5033390000000  0.5701010000000  0.4906320000000 1.0
C      1  0.4932400000000  0.4273160000000  0.5110830000000 1.0
C      1  0.5037320000000  0.5115750000000  0.4968760000000 1.0
END
