TITL C-2441160-1326-2 0.0230507381361449 125000 -9146.41841231807 0 0 68 (C1) n - 1
REM
REM in /home/bkarasulu/work/CARBON/AIRSS/Generating-Clusters/ReaxFF-fromJPCA2015/Units_Real/with-SteepDescent/Higher-Symm
REM
REM
REM
REM
REM
REM ./C.cell (1df0a924f5614ab8850e4351716899ee)
REM
REM compiler GCC version 9.2.1 20190827 (Red Hat 9.2.1-1)
REM options -cpp -mtune=generic -march=x86-64 -g -O0 -fpre-include=/usr/include/finclude/math-vector-fortran.h
REM seed 1204271476 -201298581 -173576258 697608523 -1611048058 -1060343668 1897647434 502834370 -146470150 -916054955 -415546270 609452955 145080472 -1967877470 1604997939 -1341666580 -998996053 961084860 -2119286085 -1133870683 1286297212 -1274778550 -481224448 -1216768859 -512175641 -115707163 -852756363 766163039 -1047203362 -1700151718 -1855066869 1198463325 -2073398094
REM
CELL 1.54180   50.00000   50.00000   50.00000   90.00000   90.00000   90.00000
LATT -1
SFAC C  
C      1  0.5537310000000  0.4641050000000  0.5320350000000 1.0
C      1  0.4461430000000  0.4652010000000  0.5356640000000 1.0
C      1  0.4410120000000  0.5370240000000  0.5412210000000 1.0
C      1  0.5612030000000  0.5367200000000  0.5411750000000 1.0
C      1  0.4276280000000  0.5495300000000  0.4929940000000 1.0
C      1  0.5710740000000  0.5488470000000  0.4928900000000 1.0
C      1  0.4664130000000  0.4440060000000  0.5377010000000 1.0
C      1  0.5306880000000  0.4436730000000  0.5340870000000 1.0
C      1  0.4332120000000  0.4846090000000  0.5169360000000 1.0
C      1  0.5689520000000  0.4844670000000  0.5169290000000 1.0
C      1  0.5301960000000  0.4995090000000  0.4292150000000 1.0
C      1  0.4707800000000  0.4989570000000  0.4287690000000 1.0
C      1  0.5629000000000  0.4522370000000  0.4928200000000 1.0
C      1  0.4412870000000  0.4562010000000  0.4882800000000 1.0
C      1  0.4853380000000  0.5230620000000  0.4633360000000 1.0
C      1  0.5154850000000  0.5225390000000  0.4635020000000 1.0
C      1  0.5550630000000  0.5494720000000  0.4693910000000 1.0
C      1  0.4444070000000  0.5513590000000  0.4686510000000 1.0
C      1  0.5273860000000  0.4549800000000  0.4532340000000 1.0
C      1  0.4769690000000  0.4547040000000  0.4516930000000 1.0
C      1  0.5149010000000  0.5043190000000  0.5321640000000 1.0
C      1  0.4866540000000  0.5031820000000  0.5326190000000 1.0
C      1  0.5290270000000  0.4981310000000  0.4817270000000 1.0
C      1  0.4721400000000  0.4832200000000  0.4930630000000 1.0
C      1  0.4828650000000  0.5094300000000  0.5041510000000 1.0
C      1  0.5169060000000  0.5131110000000  0.5043770000000 1.0
C      1  0.4735260000000  0.5486250000000  0.4682380000000 1.0
C      1  0.5268220000000  0.5482680000000  0.4688380000000 1.0
C      1  0.5157600000000  0.5068660000000  0.5614630000000 1.0
C      1  0.4866440000000  0.5066380000000  0.5619020000000 1.0
C      1  0.4851050000000  0.5252550000000  0.4347040000000 1.0
C      1  0.5152060000000  0.5260310000000  0.4358220000000 1.0
C      1  0.5612200000000  0.5123500000000  0.5254980000000 1.0
C      1  0.4371420000000  0.5129770000000  0.5250450000000 1.0
C      1  0.4849170000000  0.4555450000000  0.5572740000000 1.0
C      1  0.5140900000000  0.4557050000000  0.5554450000000 1.0
C      1  0.4373440000000  0.5569060000000  0.5197240000000 1.0
C      1  0.5613110000000  0.5562860000000  0.5194180000000 1.0
C      1  0.5579120000000  0.4997160000000  0.4713060000000 1.0
C      1  0.4289270000000  0.4990650000000  0.4658200000000 1.0
C      1  0.5157860000000  0.4731810000000  0.4331660000000 1.0
C      1  0.4867230000000  0.4732720000000  0.4299150000000 1.0
C      1  0.5485140000000  0.4500700000000  0.4705510000000 1.0
C      1  0.4565810000000  0.4494900000000  0.4695380000000 1.0
C      1  0.5565980000000  0.4959850000000  0.4388890000000 1.0
C      1  0.4440700000000  0.4957220000000  0.4405930000000 1.0
C      1  0.5133910000000  0.5553500000000  0.5248860000000 1.0
C      1  0.4868340000000  0.5545850000000  0.5252420000000 1.0
C      1  0.5687550000000  0.5266780000000  0.4750110000000 1.0
C      1  0.4339980000000  0.5254810000000  0.4773440000000 1.0
C      1  0.4262570000000  0.4798920000000  0.4889560000000 1.0
C      1  0.5730520000000  0.4779180000000  0.4887060000000 1.0
C      1  0.5151690000000  0.4710940000000  0.4767610000000 1.0
C      1  0.4875970000000  0.4753800000000  0.4698450000000 1.0
C      1  0.4827870000000  0.4339110000000  0.5152520000000 1.0
C      1  0.5121340000000  0.4318880000000  0.5140360000000 1.0
C      1  0.5514040000000  0.4819010000000  0.5552060000000 1.0
C      1  0.4489160000000  0.4835300000000  0.5579410000000 1.0
C      1  0.5607230000000  0.5102190000000  0.5538800000000 1.0
C      1  0.4377660000000  0.5109270000000  0.5537100000000 1.0
C      1  0.5115410000000  0.4584740000000  0.5022980000000 1.0
C      1  0.4853200000000  0.4616030000000  0.5072810000000 1.0
C      1  0.5212330000000  0.5448790000000  0.4988280000000 1.0
C      1  0.4768530000000  0.5429080000000  0.4984070000000 1.0
C      1  0.5347490000000  0.5664150000000  0.5142800000000 1.0
C      1  0.4640640000000  0.5661010000000  0.5131770000000 1.0
C      1  0.4752090000000  0.4805890000000  0.5693710000000 1.0
C      1  0.5256900000000  0.4797290000000  0.5678050000000 1.0
END
