TITL C-2441162-9305-209 0.0445231615616676 125000 -15375.3197840761 0 0 114 (C1) n - 1
REM
REM in /home/bkarasulu/work/CARBON/AIRSS/Generating-Clusters/ReaxFF-fromJPCA2015/Units_Real/with-SteepDescent/Higher-Symm
REM
REM
REM
REM
REM
REM ./C.cell (1df0a924f5614ab8850e4351716899ee)
REM
REM compiler GCC version 9.2.1 20190827 (Red Hat 9.2.1-1)
REM options -cpp -mtune=generic -march=x86-64 -g -O0 -fpre-include=/usr/include/finclude/math-vector-fortran.h
REM seed 1881935568 -1722377641 1797708520 26326392 1693089810 -1813374266 -820801072 468704103 760029462 1040260721 -1793423217 407670220 -706070142 1668853830 946823560 -852459627 -332287141 -1012389048 -574359556 -195054724 555220835 -1804964246 -1684060303 -1952544255 2014014247 554447183 -302151858 -624199236 1747050141 1751349084 -328635783 -896840422 -1955250737
REM
CELL 1.54180   50.00000   50.00000   50.00000   90.00000   90.00000   90.00000
LATT -1
SFAC C  
C      1  0.4415250000000  0.5491120000000  0.4289170000000 1.0
C      1  0.5289360000000  0.5638130000000  0.4251680000000 1.0
C      1  0.5761440000000  0.4909860000000  0.4226610000000 1.0
C      1  0.5112420000000  0.4299230000000  0.4230580000000 1.0
C      1  0.4323210000000  0.4599360000000  0.4239040000000 1.0
C      1  0.5553890000000  0.5512760000000  0.4532100000000 1.0
C      1  0.5612040000000  0.4647180000000  0.4501760000000 1.0
C      1  0.4836520000000  0.4162970000000  0.4488560000000 1.0
C      1  0.4237950000000  0.4911860000000  0.4484880000000 1.0
C      1  0.4651710000000  0.5765700000000  0.4489950000000 1.0
C      1  0.5626700000000  0.5432680000000  0.5162700000000 1.0
C      1  0.5626630000000  0.4518670000000  0.5176030000000 1.0
C      1  0.4722960000000  0.4209140000000  0.5146920000000 1.0
C      1  0.4187900000000  0.5003940000000  0.5170800000000 1.0
C      1  0.4749370000000  0.5706310000000  0.5217930000000 1.0
C      1  0.5410580000000  0.5069080000000  0.5562380000000 1.0
C      1  0.5133570000000  0.4690790000000  0.5598000000000 1.0
C      1  0.4725050000000  0.4722990000000  0.5654470000000 1.0
C      1  0.4583200000000  0.5177200000000  0.5570160000000 1.0
C      1  0.5034710000000  0.5372740000000  0.5689080000000 1.0
C      1  0.4435440000000  0.4350890000000  0.5101950000000 1.0
C      1  0.4209310000000  0.5304410000000  0.5123470000000 1.0
C      1  0.5170360000000  0.5850130000000  0.5115050000000 1.0
C      1  0.5811950000000  0.5163230000000  0.5101600000000 1.0
C      1  0.5395490000000  0.4278030000000  0.5150210000000 1.0
C      1  0.4364270000000  0.5449790000000  0.5325880000000 1.0
C      1  0.5283890000000  0.5751450000000  0.5359470000000 1.0
C      1  0.5758590000000  0.4978400000000  0.5318390000000 1.0
C      1  0.5172600000000  0.4228420000000  0.5375870000000 1.0
C      1  0.4401540000000  0.4556520000000  0.5299060000000 1.0
C      1  0.5264600000000  0.4429500000000  0.4429520000000 1.0
C      1  0.4546280000000  0.4524040000000  0.4395970000000 1.0
C      1  0.4544030000000  0.5278510000000  0.4421070000000 1.0
C      1  0.5090290000000  0.5561600000000  0.4450370000000 1.0
C      1  0.5613660000000  0.5075890000000  0.4408900000000 1.0
C      1  0.4156650000000  0.5077730000000  0.4705920000000 1.0
C      1  0.4789910000000  0.5804300000000  0.4727250000000 1.0
C      1  0.5731690000000  0.5433830000000  0.4753860000000 1.0
C      1  0.5628240000000  0.4452350000000  0.4721540000000 1.0
C      1  0.4694630000000  0.4187890000000  0.4726480000000 1.0
C      1  0.5030190000000  0.5593670000000  0.5272340000000 1.0
C      1  0.5463100000000  0.5075690000000  0.5274910000000 1.0
C      1  0.5214950000000  0.4482770000000  0.5260070000000 1.0
C      1  0.4698820000000  0.4619970000000  0.5223850000000 1.0
C      1  0.4562290000000  0.5234770000000  0.5289750000000 1.0
C      1  0.4234740000000  0.4860010000000  0.4915150000000 1.0
C      1  0.4626620000000  0.5646680000000  0.4947010000000 1.0
C      1  0.5553580000000  0.5572570000000  0.4938560000000 1.0
C      1  0.5719030000000  0.4633650000000  0.4932650000000 1.0
C      1  0.4912000000000  0.4164780000000  0.4933430000000 1.0
C      1  0.4860360000000  0.4537200000000  0.5466120000000 1.0
C      1  0.4502200000000  0.4899050000000  0.5581030000000 1.0
C      1  0.4759380000000  0.5405930000000  0.5607500000000 1.0
C      1  0.5293540000000  0.5330200000000  0.5560240000000 1.0
C      1  0.5403050000000  0.4782670000000  0.5555110000000 1.0
C      1  0.4535050000000  0.4981880000000  0.4446820000000 1.0
C      1  0.4893260000000  0.5307860000000  0.4413600000000 1.0
C      1  0.5320930000000  0.5121570000000  0.4405460000000 1.0
C      1  0.5328990000000  0.4713980000000  0.4441990000000 1.0
C      1  0.4763940000000  0.4730270000000  0.4388880000000 1.0
C      1  0.4301730000000  0.4826830000000  0.5374100000000 1.0
C      1  0.4606920000000  0.5598280000000  0.5437530000000 1.0
C      1  0.5455480000000  0.5518700000000  0.5396250000000 1.0
C      1  0.5642350000000  0.4713820000000  0.5385980000000 1.0
C      1  0.4884490000000  0.4243900000000  0.5389790000000 1.0
C      1  0.5314410000000  0.5353210000000  0.4587130000000 1.0
C      1  0.5164800000000  0.4798870000000  0.4663150000000 1.0
C      1  0.4894450000000  0.4676010000000  0.4653630000000 1.0
C      1  0.4651430000000  0.5015290000000  0.4705220000000 1.0
C      1  0.4855080000000  0.5207580000000  0.4707530000000 1.0
C      1  0.5300810000000  0.5766060000000  0.4878260000000 1.0
C      1  0.5785150000000  0.4959540000000  0.4896020000000 1.0
C      1  0.5211520000000  0.4219510000000  0.4909740000000 1.0
C      1  0.4350660000000  0.4520930000000  0.4887450000000 1.0
C      1  0.4341400000000  0.5446370000000  0.4906400000000 1.0
C      1  0.4529560000000  0.4928350000000  0.4928530000000 1.0
C      1  0.4787710000000  0.5404010000000  0.4909900000000 1.0
C      1  0.5286040000000  0.5250070000000  0.4876880000000 1.0
C      1  0.5322760000000  0.4722860000000  0.4913030000000 1.0
C      1  0.4837260000000  0.4589590000000  0.4911560000000 1.0
C      1  0.5073910000000  0.4638060000000  0.5065970000000 1.0
C      1  0.4701460000000  0.4876680000000  0.5150670000000 1.0
C      1  0.4795450000000  0.5259790000000  0.5144740000000 1.0
C      1  0.5175720000000  0.5385060000000  0.5089100000000 1.0
C      1  0.5391620000000  0.4896140000000  0.5090620000000 1.0
C      1  0.4302940000000  0.5324590000000  0.4652000000000 1.0
C      1  0.5076220000000  0.5753870000000  0.4698500000000 1.0
C      1  0.5742990000000  0.5140150000000  0.4680400000000 1.0
C      1  0.5368200000000  0.4308840000000  0.4690390000000 1.0
C      1  0.4493060000000  0.4412670000000  0.4669590000000 1.0
C      1  0.5788220000000  0.4683970000000  0.4273570000000 1.0
C      1  0.4915010000000  0.4169870000000  0.4238720000000 1.0
C      1  0.4140380000000  0.4767660000000  0.4256240000000 1.0
C      1  0.4521290000000  0.5721470000000  0.4279180000000 1.0
C      1  0.5538050000000  0.5634400000000  0.4281750000000 1.0
C      1  0.4944040000000  0.4895050000000  0.4174660000000 1.0
C      1  0.4988070000000  0.4978960000000  0.6579760000000 1.0
C      1  0.4978680000000  0.4976210000000  0.3661840000000 1.0
C      1  0.5061400000000  0.5111230000000  0.4298810000000 1.0
C      1  0.4989380000000  0.4992080000000  0.2895460000000 1.0
C      1  0.4990180000000  0.5001070000000  0.6322180000000 1.0
C      1  0.5003530000000  0.5116960000000  0.5836690000000 1.0
C      1  0.4988100000000  0.4981930000000  0.6828810000000 1.0
C      1  0.4988420000000  0.4989960000000  0.2651290000000 1.0
C      1  0.4990570000000  0.4995960000000  0.3153130000000 1.0
C      1  0.4996530000000  0.5056110000000  0.6094010000000 1.0
C      1  0.4957330000000  0.4931030000000  0.3914540000000 1.0
C      1  0.4952170000000  0.5016220000000  0.5120820000000 1.0
C      1  0.5073090000000  0.5050930000000  0.4843680000000 1.0
C      1  0.4988420000000  0.4991290000000  0.7336800000000 1.0
C      1  0.4956990000000  0.4878690000000  0.5683630000000 1.0
C      1  0.4989410000000  0.4995910000000  0.3406500000000 1.0
C      1  0.4988610000000  0.4991480000000  0.7580780000000 1.0
C      1  0.4988300000000  0.4988510000000  0.7080030000000 1.0
END
