TITL C-2441164-471-789 0.00727496715680588 125000 -3934.74067627131 0 0 31 (C1) n - 1
REM
REM in /home/bkarasulu/work/CARBON/AIRSS/Generating-Clusters/ReaxFF-fromJPCA2015/Units_Real/with-SteepDescent/Higher-Symm
REM
REM
REM
REM
REM
REM ./C.cell (1df0a924f5614ab8850e4351716899ee)
REM
REM compiler GCC version 9.2.1 20190827 (Red Hat 9.2.1-1)
REM options -cpp -mtune=generic -march=x86-64 -g -O0 -fpre-include=/usr/include/finclude/math-vector-fortran.h
REM seed 307154495 1921564168 376915181 -1807361577 1602228520 -543905629 147196397 -621643290 -1332815441 1475207926 -916555429 1929215107 442243423 720934333 876973138 -1315510684 -1240078123 1413208648 1619772991 -1905008244 -1680652406 -455346821 -1769377330 -1178639838 671272484 1011056172 -1957937290 220845606 1837948892 -2140479942 238875814 1377728797 217681975
REM
CELL 1.54180   50.00000   50.00000   50.00000   90.00000   90.00000   90.00000
LATT -1
SFAC C  
C      1  0.5436200000000  0.4683330000000  0.4821790000000 1.0
C      1  0.4746490000000  0.4786950000000  0.4824100000000 1.0
C      1  0.4494400000000  0.5192500000000  0.5054550000000 1.0
C      1  0.4460410000000  0.4624650000000  0.5122680000000 1.0
C      1  0.4483410000000  0.4745780000000  0.5382210000000 1.0
C      1  0.5258220000000  0.5209340000000  0.5535880000000 1.0
C      1  0.4485120000000  0.4924410000000  0.4920590000000 1.0
C      1  0.4979200000000  0.5255120000000  0.4490070000000 1.0
C      1  0.4594360000000  0.5144230000000  0.5331980000000 1.0
C      1  0.4714510000000  0.4885700000000  0.5348440000000 1.0
C      1  0.5404810000000  0.5202910000000  0.5323520000000 1.0
C      1  0.5057390000000  0.5006830000000  0.4366330000000 1.0
C      1  0.5018290000000  0.5053580000000  0.5124190000000 1.0
C      1  0.5099300000000  0.5462330000000  0.4944550000000 1.0
C      1  0.5206940000000  0.4802480000000  0.4691820000000 1.0
C      1  0.4631210000000  0.4995060000000  0.4661910000000 1.0
C      1  0.5568910000000  0.4951680000000  0.5275440000000 1.0
C      1  0.4725040000000  0.5268900000000  0.4648300000000 1.0
C      1  0.5240540000000  0.5307740000000  0.4588630000000 1.0
C      1  0.5440520000000  0.5400120000000  0.4755580000000 1.0
C      1  0.4997740000000  0.4796270000000  0.4973090000000 1.0
C      1  0.4640020000000  0.5391020000000  0.4901780000000 1.0
C      1  0.5284620000000  0.4623730000000  0.5062900000000 1.0
C      1  0.4866980000000  0.5252590000000  0.5277980000000 1.0
C      1  0.5306100000000  0.4524600000000  0.5399220000000 1.0
C      1  0.4857710000000  0.5486980000000  0.5084950000000 1.0
C      1  0.4633140000000  0.4429340000000  0.5182470000000 1.0
C      1  0.5465200000000  0.4735880000000  0.5422060000000 1.0
C      1  0.5501490000000  0.4840740000000  0.5029240000000 1.0
C      1  0.5155520000000  0.4780870000000  0.4419000000000 1.0
C      1  0.5246190000000  0.5234330000000  0.5034750000000 1.0
END
