TITL C-2441154-10-189 0.017620834107688 125000 -12276.7848614362 0 0 86 (C1) n - 1
REM
REM in /home/bkarasulu/work/CARBON/AIRSS/Generating-Clusters/ReaxFF-fromJPCA2015/Units_Real/with-SteepDescent/Higher-Symm
REM
REM
REM
REM
REM
REM ./C.cell (1df0a924f5614ab8850e4351716899ee)
REM
REM compiler GCC version 9.2.1 20190827 (Red Hat 9.2.1-1)
REM options -cpp -mtune=generic -march=x86-64 -g -O0 -fpre-include=/usr/include/finclude/math-vector-fortran.h
REM seed 2121582584 -1227076560 71026243 108570865 -1074231953 1075582157 -909443209 -1793907335 -563007112 1567720444 1871059025 -951671413 -1795565838 533864435 555216917 1713900164 925450884 1699168252 850741706 -1083343123 -921546925 155375387 902850712 1210049157 -1023046405 482156051 262076239 -1677561510 1428264757 821874744 -1837169549 -797772616 -1451475945
REM
CELL 1.54180   50.00000   50.00000   50.00000   90.00000   90.00000   90.00000
LATT -1
SFAC C  
C      1  0.4593730000000  0.4421290000000  0.5418590000000 1.0
C      1  0.4595920000000  0.5177420000000  0.5649880000000 1.0
C      1  0.4584840000000  0.5627520000000  0.4988530000000 1.0
C      1  0.4599610000000  0.5183700000000  0.4334660000000 1.0
C      1  0.4569680000000  0.4475680000000  0.4658670000000 1.0
C      1  0.5099040000000  0.5345400000000  0.5769590000000 1.0
C      1  0.5046250000000  0.5851420000000  0.5013090000000 1.0
C      1  0.5080180000000  0.5307240000000  0.4191970000000 1.0
C      1  0.5033140000000  0.4261710000000  0.4633920000000 1.0
C      1  0.5139040000000  0.4419230000000  0.5567700000000 1.0
C      1  0.5696490000000  0.5453530000000  0.4984400000000 1.0
C      1  0.5720870000000  0.5116290000000  0.4558120000000 1.0
C      1  0.5715380000000  0.4607460000000  0.4735130000000 1.0
C      1  0.5719460000000  0.4628950000000  0.5257630000000 1.0
C      1  0.5704780000000  0.5148270000000  0.5430920000000 1.0
C      1  0.5149600000000  0.4764370000000  0.4911990000000 1.0
C      1  0.5298910000000  0.4823810000000  0.5151620000000 1.0
C      1  0.5192490000000  0.5114150000000  0.5232400000000 1.0
C      1  0.5196670000000  0.5263270000000  0.4945490000000 1.0
C      1  0.5186120000000  0.5004150000000  0.4761840000000 1.0
C      1  0.5542290000000  0.5240070000000  0.4358640000000 1.0
C      1  0.5519550000000  0.4454170000000  0.4570410000000 1.0
C      1  0.5557930000000  0.4411140000000  0.5368610000000 1.0
C      1  0.5559340000000  0.5179260000000  0.5673740000000 1.0
C      1  0.5513510000000  0.5679970000000  0.5024300000000 1.0
C      1  0.5183180000000  0.4854150000000  0.5721620000000 1.0
C      1  0.5187110000000  0.5629480000000  0.5408660000000 1.0
C      1  0.5271850000000  0.5600710000000  0.4624280000000 1.0
C      1  0.5256140000000  0.4839370000000  0.4265900000000 1.0
C      1  0.5171540000000  0.4255630000000  0.5090530000000 1.0
C      1  0.5669740000000  0.4835180000000  0.4570950000000 1.0
C      1  0.5629260000000  0.4560610000000  0.4996670000000 1.0
C      1  0.5657420000000  0.4863840000000  0.5426750000000 1.0
C      1  0.5642680000000  0.5360160000000  0.5252430000000 1.0
C      1  0.5682550000000  0.5345690000000  0.4727450000000 1.0
C      1  0.4317680000000  0.5492430000000  0.4948700000000 1.0
C      1  0.4281240000000  0.5081920000000  0.4598610000000 1.0
C      1  0.4300630000000  0.4566310000000  0.4753550000000 1.0
C      1  0.4278050000000  0.4748680000000  0.5226620000000 1.0
C      1  0.4305640000000  0.5188660000000  0.5375140000000 1.0
C      1  0.4505530000000  0.4416650000000  0.5137500000000 1.0
C      1  0.4495640000000  0.4921930000000  0.5620480000000 1.0
C      1  0.4562480000000  0.5529770000000  0.5275180000000 1.0
C      1  0.4543900000000  0.5397200000000  0.4524590000000 1.0
C      1  0.4564260000000  0.4703260000000  0.4468620000000 1.0
C      1  0.4776310000000  0.5830570000000  0.5090710000000 1.0
C      1  0.4790970000000  0.5349950000000  0.4193460000000 1.0
C      1  0.4806870000000  0.4367640000000  0.4463880000000 1.0
C      1  0.4796230000000  0.4238050000000  0.5403920000000 1.0
C      1  0.4762960000000  0.5123390000000  0.5827810000000 1.0
C      1  0.5476360000000  0.4704110000000  0.4413930000000 1.0
C      1  0.5453210000000  0.4353830000000  0.5091510000000 1.0
C      1  0.5478210000000  0.4894080000000  0.5661090000000 1.0
C      1  0.5454570000000  0.5583970000000  0.5291350000000 1.0
C      1  0.5509920000000  0.5469000000000  0.4537620000000 1.0
C      1  0.4999330000000  0.5625340000000  0.4567950000000 1.0
C      1  0.4967810000000  0.4792770000000  0.4236100000000 1.0
C      1  0.4954740000000  0.4275020000000  0.4908680000000 1.0
C      1  0.4998980000000  0.4647590000000  0.5657480000000 1.0
C      1  0.4990870000000  0.5502050000000  0.5558820000000 1.0
C      1  0.4904870000000  0.5054170000000  0.4670620000000 1.0
C      1  0.4842630000000  0.4744910000000  0.4991430000000 1.0
C      1  0.4793310000000  0.4840940000000  0.5277740000000 1.0
C      1  0.4872840000000  0.5117150000000  0.5268190000000 1.0
C      1  0.4857640000000  0.5267630000000  0.4871700000000 1.0
C      1  0.5003000000000  0.5801780000000  0.5281740000000 1.0
C      1  0.4973580000000  0.5536200000000  0.4300540000000 1.0
C      1  0.4973170000000  0.4538030000000  0.4329710000000 1.0
C      1  0.5064970000000  0.4199270000000  0.5360590000000 1.0
C      1  0.5027510000000  0.5066720000000  0.5842020000000 1.0
C      1  0.5303460000000  0.4323830000000  0.4703940000000 1.0
C      1  0.5384520000000  0.4528710000000  0.5564790000000 1.0
C      1  0.5357370000000  0.5373050000000  0.5672450000000 1.0
C      1  0.5268550000000  0.5744000000000  0.4859010000000 1.0
C      1  0.5295760000000  0.5125080000000  0.4252150000000 1.0
C      1  0.4321100000000  0.5395890000000  0.5217400000000 1.0
C      1  0.4298760000000  0.5349670000000  0.4686080000000 1.0
C      1  0.4302180000000  0.4800160000000  0.4570870000000 1.0
C      1  0.4280730000000  0.4553440000000  0.5039960000000 1.0
C      1  0.4283290000000  0.4941910000000  0.5422300000000 1.0
C      1  0.4720930000000  0.4689100000000  0.5530100000000 1.0
C      1  0.4747200000000  0.5344330000000  0.5442230000000 1.0
C      1  0.4755000000000  0.5501180000000  0.4720240000000 1.0
C      1  0.4742240000000  0.4925500000000  0.4407600000000 1.0
C      1  0.4720790000000  0.4450740000000  0.4932550000000 1.0
C      1  0.4732150000000  0.5008150000000  0.4905790000000 1.0
END
