TITL C-2441169-1362-484 0.0701475020983243 125000 -21341.5025695494 0 0 159 (C1) n - 1
REM
REM in /home/bkarasulu/work/CARBON/AIRSS/Generating-Clusters/ReaxFF-fromJPCA2015/Units_Real/with-SteepDescent/Higher-Symm
REM
REM
REM
REM
REM
REM ./C.cell (1df0a924f5614ab8850e4351716899ee)
REM
REM compiler GCC version 9.2.1 20190827 (Red Hat 9.2.1-1)
REM options -cpp -mtune=generic -march=x86-64 -g -O0 -fpre-include=/usr/include/finclude/math-vector-fortran.h
REM seed -81610313 1113108763 -1356160659 -830108407 1455448881 1922086146 -1113827892 1994354197 495271992 169096455 2030301487 1864221697 200721122 -1809530618 2040369740 -1962020520 1862333786 687526701 -698822128 800602875 -1955780457 -1598514250 1984462203 1616312926 -309723108 1084740390 2107272939 1867256417 987114231 103053966 -1605548057 -1817341926 -1355548784
REM
CELL 1.54180   50.00000   50.00000   50.00000   90.00000   90.00000   90.00000
LATT -1
SFAC C  
C      1  0.4642680000000  0.5264530000000  0.5976360000000 1.0
C      1  0.5205140000000  0.5460970000000  0.5935220000000 1.0
C      1  0.5404320000000  0.5008470000000  0.5964530000000 1.0
C      1  0.5126590000000  0.4554510000000  0.5955590000000 1.0
C      1  0.4643250000000  0.4740940000000  0.5967590000000 1.0
C      1  0.4657470000000  0.5237020000000  0.4038980000000 1.0
C      1  0.5153600000000  0.5414030000000  0.4039310000000 1.0
C      1  0.5502410000000  0.4972660000000  0.4026970000000 1.0
C      1  0.5134990000000  0.4606780000000  0.4029400000000 1.0
C      1  0.4604090000000  0.4715590000000  0.4041800000000 1.0
C      1  0.4594330000000  0.5583270000000  0.5737080000000 1.0
C      1  0.5415460000000  0.5583960000000  0.5762500000000 1.0
C      1  0.5658180000000  0.4746670000000  0.5740040000000 1.0
C      1  0.4963680000000  0.4270090000000  0.5731570000000 1.0
C      1  0.4306410000000  0.4793450000000  0.5769960000000 1.0
C      1  0.4599620000000  0.5594390000000  0.4258480000000 1.0
C      1  0.5431360000000  0.5579710000000  0.4268260000000 1.0
C      1  0.5683630000000  0.4765080000000  0.4249820000000 1.0
C      1  0.4985160000000  0.4297220000000  0.4268820000000 1.0
C      1  0.4297890000000  0.4782010000000  0.4275100000000 1.0
C      1  0.4984110000000  0.5607510000000  0.5801020000000 1.0
C      1  0.5554680000000  0.5197450000000  0.5790220000000 1.0
C      1  0.5368510000000  0.4517760000000  0.5792620000000 1.0
C      1  0.4665750000000  0.4490430000000  0.5804190000000 1.0
C      1  0.4408680000000  0.5169490000000  0.5823640000000 1.0
C      1  0.4961780000000  0.5586050000000  0.4200370000000 1.0
C      1  0.5565200000000  0.5211600000000  0.4191180000000 1.0
C      1  0.5362600000000  0.4522380000000  0.4202330000000 1.0
C      1  0.4656240000000  0.4476310000000  0.4204060000000 1.0
C      1  0.4415080000000  0.5155710000000  0.4205160000000 1.0
C      1  0.4042800000000  0.5152880000000  0.4595210000000 1.0
C      1  0.4842990000000  0.5949020000000  0.4593990000000 1.0
C      1  0.5849910000000  0.5435620000000  0.4601210000000 1.0
C      1  0.5686520000000  0.4325380000000  0.4593960000000 1.0
C      1  0.4576430000000  0.4148520000000  0.4602360000000 1.0
C      1  0.4048020000000  0.5139010000000  0.5411020000000 1.0
C      1  0.4835540000000  0.5939160000000  0.5400370000000 1.0
C      1  0.5828210000000  0.5411930000000  0.5414680000000 1.0
C      1  0.5679930000000  0.4300450000000  0.5418490000000 1.0
C      1  0.4548290000000  0.4144070000000  0.5409040000000 1.0
C      1  0.5787830000000  0.4291710000000  0.5145910000000 1.0
C      1  0.4566630000000  0.4037780000000  0.5139580000000 1.0
C      1  0.3964570000000  0.5106790000000  0.5134420000000 1.0
C      1  0.4768580000000  0.6020310000000  0.5131250000000 1.0
C      1  0.5897180000000  0.5506880000000  0.5144650000000 1.0
C      1  0.5769250000000  0.4302150000000  0.4871180000000 1.0
C      1  0.4574980000000  0.4058770000000  0.4871520000000 1.0
C      1  0.3947800000000  0.5105890000000  0.4864300000000 1.0
C      1  0.4785050000000  0.6011900000000  0.4865620000000 1.0
C      1  0.5896300000000  0.5498650000000  0.4874060000000 1.0
C      1  0.5935750000000  0.4943550000000  0.5269820000000 1.0
C      1  0.5263150000000  0.4076690000000  0.5265820000000 1.0
C      1  0.4265860000000  0.4517130000000  0.5262840000000 1.0
C      1  0.4246410000000  0.5533620000000  0.5236540000000 1.0
C      1  0.5321400000000  0.5918880000000  0.5269710000000 1.0
C      1  0.5888110000000  0.4974990000000  0.4770950000000 1.0
C      1  0.5294320000000  0.4114610000000  0.4765740000000 1.0
C      1  0.4257460000000  0.4481880000000  0.4774510000000 1.0
C      1  0.4271230000000  0.5561840000000  0.4737970000000 1.0
C      1  0.5288930000000  0.5841780000000  0.4771950000000 1.0
C      1  0.4615220000000  0.5303700000000  0.5200300000000 1.0
C      1  0.5227310000000  0.5486410000000  0.5175560000000 1.0
C      1  0.5515420000000  0.4922590000000  0.5183960000000 1.0
C      1  0.5117700000000  0.4472680000000  0.5194580000000 1.0
C      1  0.4674980000000  0.4724480000000  0.5168820000000 1.0
C      1  0.4596830000000  0.5303120000000  0.4798300000000 1.0
C      1  0.5128960000000  0.5441490000000  0.4805550000000 1.0
C      1  0.5466280000000  0.5013000000000  0.4792640000000 1.0
C      1  0.5144670000000  0.4531140000000  0.4790050000000 1.0
C      1  0.4567960000000  0.4765980000000  0.4809120000000 1.0
C      1  0.5252520000000  0.4249580000000  0.5714980000000 1.0
C      1  0.4375530000000  0.4509800000000  0.5739470000000 1.0
C      1  0.4344350000000  0.5438940000000  0.5720370000000 1.0
C      1  0.5209020000000  0.5801350000000  0.5720540000000 1.0
C      1  0.5781660000000  0.5006850000000  0.5729440000000 1.0
C      1  0.5268130000000  0.4252630000000  0.4288900000000 1.0
C      1  0.4368000000000  0.4502780000000  0.4294090000000 1.0
C      1  0.4354430000000  0.5439420000000  0.4271230000000 1.0
C      1  0.5206110000000  0.5753880000000  0.4291690000000 1.0
C      1  0.5803420000000  0.5029060000000  0.4288680000000 1.0
C      1  0.5402970000000  0.5168830000000  0.5550600000000 1.0
C      1  0.5274100000000  0.4678230000000  0.5566230000000 1.0
C      1  0.4767850000000  0.4623660000000  0.5551500000000 1.0
C      1  0.4566610000000  0.5099470000000  0.5583060000000 1.0
C      1  0.4974300000000  0.5447000000000  0.5570750000000 1.0
C      1  0.5403500000000  0.5197610000000  0.4427430000000 1.0
C      1  0.5291860000000  0.4681010000000  0.4423830000000 1.0
C      1  0.4767160000000  0.4616640000000  0.4436420000000 1.0
C      1  0.4568420000000  0.5082450000000  0.4435410000000 1.0
C      1  0.4954840000000  0.5416210000000  0.4431550000000 1.0
C      1  0.5677380000000  0.4760630000000  0.4749150000000 1.0
C      1  0.5035630000000  0.4255830000000  0.4751040000000 1.0
C      1  0.4259500000000  0.4775770000000  0.4768130000000 1.0
C      1  0.4578600000000  0.5598890000000  0.4751900000000 1.0
C      1  0.5454940000000  0.5594540000000  0.4761010000000 1.0
C      1  0.5729070000000  0.4729920000000  0.5247600000000 1.0
C      1  0.4999230000000  0.4207660000000  0.5246470000000 1.0
C      1  0.4353600000000  0.4813640000000  0.5279080000000 1.0
C      1  0.4531140000000  0.5578140000000  0.5257800000000 1.0
C      1  0.5445150000000  0.5651400000000  0.5277910000000 1.0
C      1  0.5439060000000  0.4181690000000  0.4524780000000 1.0
C      1  0.4361680000000  0.4340750000000  0.4541270000000 1.0
C      1  0.4177330000000  0.5407020000000  0.4517320000000 1.0
C      1  0.5130340000000  0.5900190000000  0.4535990000000 1.0
C      1  0.5894700000000  0.5148860000000  0.4542470000000 1.0
C      1  0.5425470000000  0.4166670000000  0.5490500000000 1.0
C      1  0.4351980000000  0.4353520000000  0.5482590000000 1.0
C      1  0.4167810000000  0.5396560000000  0.5479390000000 1.0
C      1  0.5126220000000  0.5941160000000  0.5485450000000 1.0
C      1  0.5904880000000  0.5131020000000  0.5488920000000 1.0
C      1  0.5501400000000  0.5280340000000  0.4877810000000 1.0
C      1  0.5409380000000  0.4614000000000  0.4874810000000 1.0
C      1  0.4731590000000  0.4522440000000  0.4819080000000 1.0
C      1  0.4370590000000  0.5149360000000  0.4884660000000 1.0
C      1  0.4892730000000  0.5571870000000  0.4880100000000 1.0
C      1  0.5632400000000  0.5193250000000  0.5117330000000 1.0
C      1  0.5413810000000  0.4477010000000  0.5124170000000 1.0
C      1  0.4678560000000  0.4440810000000  0.5087540000000 1.0
C      1  0.4444750000000  0.5072450000000  0.5145090000000 1.0
C      1  0.4997530000000  0.5675250000000  0.5125760000000 1.0
C      1  0.4195090000000  0.4903140000000  0.5529990000000 1.0
C      1  0.4637110000000  0.5728340000000  0.5494330000000 1.0
C      1  0.5582240000000  0.5548380000000  0.5516840000000 1.0
C      1  0.5717850000000  0.4583760000000  0.5510610000000 1.0
C      1  0.4834020000000  0.4172200000000  0.5495010000000 1.0
C      1  0.4168410000000  0.4891130000000  0.4508850000000 1.0
C      1  0.4645850000000  0.5751020000000  0.4489790000000 1.0
C      1  0.5599710000000  0.5576960000000  0.4501870000000 1.0
C      1  0.5718520000000  0.4605180000000  0.4488850000000 1.0
C      1  0.4861530000000  0.4197170000000  0.4509110000000 1.0
C      1  0.4669340000000  0.4868660000000  0.5561170000000 1.0
C      1  0.4783890000000  0.5270860000000  0.5439690000000 1.0
C      1  0.5174410000000  0.5293810000000  0.5425050000000 1.0
C      1  0.5381320000000  0.4910830000000  0.5440140000000 1.0
C      1  0.5035850000000  0.4612410000000  0.5429780000000 1.0
C      1  0.4627300000000  0.4839040000000  0.4534870000000 1.0
C      1  0.4772910000000  0.5231800000000  0.4568940000000 1.0
C      1  0.5198610000000  0.5353390000000  0.4545410000000 1.0
C      1  0.5338860000000  0.4943120000000  0.4539260000000 1.0
C      1  0.5038950000000  0.4671260000000  0.4548070000000 1.0
C      1  0.5186540000000  0.4814680000000  0.5992030000000 1.0
C      1  0.4942550000000  0.4763400000000  0.5882220000000 1.0
C      1  0.4735360000000  0.5005090000000  0.6087800000000 1.0
C      1  0.4909950000000  0.5170260000000  0.5924410000000 1.0
C      1  0.5181240000000  0.5213840000000  0.5973270000000 1.0
C      1  0.5257170000000  0.4875790000000  0.4010860000000 1.0
C      1  0.4879310000000  0.4747640000000  0.4007570000000 1.0
C      1  0.4741820000000  0.4957540000000  0.4101250000000 1.0
C      1  0.4934790000000  0.5256320000000  0.3931750000000 1.0
C      1  0.5136130000000  0.5114310000000  0.4090680000000 1.0
C      1  0.5921930000000  0.5111210000000  0.5028370000000 1.0
C      1  0.5160530000000  0.5924960000000  0.5025610000000 1.0
C      1  0.5413890000000  0.4167480000000  0.5032160000000 1.0
C      1  0.4359850000000  0.4375630000000  0.5030200000000 1.0
C      1  0.4191670000000  0.5408740000000  0.4969470000000 1.0
C      1  0.4968290000000  0.4955970000000  0.4900460000000 1.0
C      1  0.4920290000000  0.4903000000000  0.5157540000000 1.0
C      1  0.4984460000000  0.5097730000000  0.5355160000000 1.0
C      1  0.5011660000000  0.5003890000000  0.4667660000000 1.0
END
