TITL C-2441169-1362-203 0.0237185959240359 125000 -11467.1028902669 0 0 83 (C1) n - 1
REM
REM in /home/bkarasulu/work/CARBON/AIRSS/Generating-Clusters/ReaxFF-fromJPCA2015/Units_Real/with-SteepDescent/Higher-Symm
REM
REM
REM
REM
REM
REM ./C.cell (1df0a924f5614ab8850e4351716899ee)
REM
REM compiler GCC version 9.2.1 20190827 (Red Hat 9.2.1-1)
REM options -cpp -mtune=generic -march=x86-64 -g -O0 -fpre-include=/usr/include/finclude/math-vector-fortran.h
REM seed -152311189 -835193913 -1632194005 -1997914591 741963996 -149130063 461379456 1732026535 1563187002 286973082 -440223679 -876162914 -156392802 -517659684 -2118670053 839711888 -949794563 -833138708 387298261 786381723 443200888 -2040546543 514404882 -31214637 114192046 -2045607610 -1791041502 -969160035 -1389572601 -1009858490 1317513712 1285040390 1427326560
REM
CELL 1.54180   50.00000   50.00000   50.00000   90.00000   90.00000   90.00000
LATT -1
SFAC C  
C      1  0.4462760000000  0.5582750000000  0.4973040000000 1.0
C      1  0.4763790000000  0.5534090000000  0.4433310000000 1.0
C      1  0.5408770000000  0.5551730000000  0.4670650000000 1.0
C      1  0.5489880000000  0.5537200000000  0.5368010000000 1.0
C      1  0.4813070000000  0.5599010000000  0.5487010000000 1.0
C      1  0.5510910000000  0.5062810000000  0.5618290000000 1.0
C      1  0.4559850000000  0.5112720000000  0.5595040000000 1.0
C      1  0.4240550000000  0.5149370000000  0.4759970000000 1.0
C      1  0.5014400000000  0.5128440000000  0.4207100000000 1.0
C      1  0.5707930000000  0.5131700000000  0.4770400000000 1.0
C      1  0.4442740000000  0.5239840000000  0.4569850000000 1.0
C      1  0.5159720000000  0.5337490000000  0.4342190000000 1.0
C      1  0.5684650000000  0.5261730000000  0.5022570000000 1.0
C      1  0.5196290000000  0.5331190000000  0.5640200000000 1.0
C      1  0.4458650000000  0.5297790000000  0.5375180000000 1.0
C      1  0.5256260000000  0.5702790000000  0.5359350000000 1.0
C      1  0.4860540000000  0.5667860000000  0.5211280000000 1.0
C      1  0.4654890000000  0.5694190000000  0.4787560000000 1.0
C      1  0.4904500000000  0.5709310000000  0.4622070000000 1.0
C      1  0.5348440000000  0.5654850000000  0.4937980000000 1.0
C      1  0.5054820000000  0.4293840000000  0.5246410000000 1.0
C      1  0.4782930000000  0.4297290000000  0.5149810000000 1.0
C      1  0.4790750000000  0.4266750000000  0.4855390000000 1.0
C      1  0.5078390000000  0.4252620000000  0.4759090000000 1.0
C      1  0.5246730000000  0.4266460000000  0.5011090000000 1.0
C      1  0.4645320000000  0.4840480000000  0.5538630000000 1.0
C      1  0.4299560000000  0.4831960000000  0.4818430000000 1.0
C      1  0.4967280000000  0.4853460000000  0.4316230000000 1.0
C      1  0.5641850000000  0.4843480000000  0.4772480000000 1.0
C      1  0.5434740000000  0.4823230000000  0.5531390000000 1.0
C      1  0.5190630000000  0.4729330000000  0.4842630000000 1.0
C      1  0.5203450000000  0.4712450000000  0.5133440000000 1.0
C      1  0.4927270000000  0.4737990000000  0.5229230000000 1.0
C      1  0.4738630000000  0.4743280000000  0.5006220000000 1.0
C      1  0.4902960000000  0.4736550000000  0.4771200000000 1.0
C      1  0.4323950000000  0.4469060000000  0.5163830000000 1.0
C      1  0.4509130000000  0.4593220000000  0.4346060000000 1.0
C      1  0.5475020000000  0.4594850000000  0.4362900000000 1.0
C      1  0.5775880000000  0.4578740000000  0.5239250000000 1.0
C      1  0.4967740000000  0.4486740000000  0.5727530000000 1.0
C      1  0.4592110000000  0.5029990000000  0.4488710000000 1.0
C      1  0.5348580000000  0.5104970000000  0.4522090000000 1.0
C      1  0.5625130000000  0.5031630000000  0.5184870000000 1.0
C      1  0.5030200000000  0.5094280000000  0.5559560000000 1.0
C      1  0.4386640000000  0.5060950000000  0.5206660000000 1.0
C      1  0.5088140000000  0.5582570000000  0.5554620000000 1.0
C      1  0.4693450000000  0.5444340000000  0.5117610000000 1.0
C      1  0.4651230000000  0.5411140000000  0.4669140000000 1.0
C      1  0.5136440000000  0.5529820000000  0.4598950000000 1.0
C      1  0.5546350000000  0.5505010000000  0.5093100000000 1.0
C      1  0.4437900000000  0.4630910000000  0.5429360000000 1.0
C      1  0.4424380000000  0.4588710000000  0.4627970000000 1.0
C      1  0.5185960000000  0.4590880000000  0.4345210000000 1.0
C      1  0.5677620000000  0.4600430000000  0.4958900000000 1.0
C      1  0.5227740000000  0.4622590000000  0.5676590000000 1.0
C      1  0.4846750000000  0.4933870000000  0.4575590000000 1.0
C      1  0.5260610000000  0.5008330000000  0.4812280000000 1.0
C      1  0.5362060000000  0.4922270000000  0.5257460000000 1.0
C      1  0.4933700000000  0.5019760000000  0.5295930000000 1.0
C      1  0.4523670000000  0.4931980000000  0.4986230000000 1.0
C      1  0.4276360000000  0.5379610000000  0.4908200000000 1.0
C      1  0.4893860000000  0.5377390000000  0.4244480000000 1.0
C      1  0.5555450000000  0.5303340000000  0.4597430000000 1.0
C      1  0.5476140000000  0.5337030000000  0.5582170000000 1.0
C      1  0.4636240000000  0.5390410000000  0.5596710000000 1.0
C      1  0.4725820000000  0.4728010000000  0.4198070000000 1.0
C      1  0.5652580000000  0.4760120000000  0.4508200000000 1.0
C      1  0.5705050000000  0.4725960000000  0.5493860000000 1.0
C      1  0.4822010000000  0.4732540000000  0.5730420000000 1.0
C      1  0.4184110000000  0.4696000000000  0.5062040000000 1.0
C      1  0.5041550000000  0.4884480000000  0.5756390000000 1.0
C      1  0.4232330000000  0.4839100000000  0.5307780000000 1.0
C      1  0.4506900000000  0.4874280000000  0.4288250000000 1.0
C      1  0.5477540000000  0.4888750000000  0.4343630000000 1.0
C      1  0.5812590000000  0.4851890000000  0.5276530000000 1.0
C      1  0.4605330000000  0.4413820000000  0.4705340000000 1.0
C      1  0.5157940000000  0.4401910000000  0.4538340000000 1.0
C      1  0.5486840000000  0.4408820000000  0.5003870000000 1.0
C      1  0.5132330000000  0.4383160000000  0.5509130000000 1.0
C      1  0.4555630000000  0.4406580000000  0.5281120000000 1.0
C      1  0.5120520000000  0.5748480000000  0.5108320000000 1.0
C      1  0.4856360000000  0.5290950000000  0.4923650000000 1.0
C      1  0.5059260000000  0.5125330000000  0.5007360000000 1.0
END
