TITL C-2441154-10-832 0.00585978085911379 125000 -13269.9027030226 0 0 90 (C1) n - 1
REM
REM in /home/bkarasulu/work/CARBON/AIRSS/Generating-Clusters/ReaxFF-fromJPCA2015/Units_Real/with-SteepDescent/Higher-Symm
REM
REM
REM
REM
REM
REM ./C.cell (1df0a924f5614ab8850e4351716899ee)
REM
REM compiler GCC version 9.2.1 20190827 (Red Hat 9.2.1-1)
REM options -cpp -mtune=generic -march=x86-64 -g -O0 -fpre-include=/usr/include/finclude/math-vector-fortran.h
REM seed 219892322 -1511585532 -597483198 -734986700 -1447447732 1367920921 1178855972 -898732299 -5627999 1086019823 453934684 194572856 -129820316 397287463 344124809 1375073835 -1771874325 118491339 419240494 -109053215 1530881950 -2039077172 1434505260 911934111 643684723 -1730607931 1770533149 -1141041644 -2046793194 945221874 -507162903 1052293045 -1687870377
REM
CELL 1.54180   50.00000   50.00000   50.00000   90.00000   90.00000   90.00000
LATT -1
SFAC C  
C      1  0.5011690000000  0.4377640000000  0.4599820000000 1.0
C      1  0.5239120000000  0.4495020000000  0.4720740000000 1.0
C      1  0.5426000000000  0.4356720000000  0.4956990000000 1.0
C      1  0.5370680000000  0.4314080000000  0.5231930000000 1.0
C      1  0.5121170000000  0.4453690000000  0.5365290000000 1.0
C      1  0.4843290000000  0.4364950000000  0.5380450000000 1.0
C      1  0.4653480000000  0.4469800000000  0.5191820000000 1.0
C      1  0.4591190000000  0.4367540000000  0.4923820000000 1.0
C      1  0.4746240000000  0.4455310000000  0.4698650000000 1.0
C      1  0.5006110000000  0.5233520000000  0.5492790000000 1.0
C      1  0.4734620000000  0.5361090000000  0.5548630000000 1.0
C      1  0.4536490000000  0.5260040000000  0.5019970000000 1.0
C      1  0.4528770000000  0.5318200000000  0.4706980000000 1.0
C      1  0.4822420000000  0.5208850000000  0.4553100000000 1.0
C      1  0.5120600000000  0.5343680000000  0.4479220000000 1.0
C      1  0.5330070000000  0.5249890000000  0.4683330000000 1.0
C      1  0.5422330000000  0.5209020000000  0.5158220000000 1.0
C      1  0.5338320000000  0.5321000000000  0.5423510000000 1.0
C      1  0.5696290000000  0.4426200000000  0.4928230000000 1.0
C      1  0.5594050000000  0.4391920000000  0.5395410000000 1.0
C      1  0.5194790000000  0.4429630000000  0.5659230000000 1.0
C      1  0.4720990000000  0.4409540000000  0.5630760000000 1.0
C      1  0.4375400000000  0.4437620000000  0.5312020000000 1.0
C      1  0.4324420000000  0.4405420000000  0.4843530000000 1.0
C      1  0.4583130000000  0.4423220000000  0.4441210000000 1.0
C      1  0.5041080000000  0.4414600000000  0.4321600000000 1.0
C      1  0.5470430000000  0.4464050000000  0.4513410000000 1.0
C      1  0.5330550000000  0.4939160000000  0.5110320000000 1.0
C      1  0.5153420000000  0.4772980000000  0.5269670000000 1.0
C      1  0.4944850000000  0.4941560000000  0.5357300000000 1.0
C      1  0.4733460000000  0.4803190000000  0.5220670000000 1.0
C      1  0.4663580000000  0.4955330000000  0.4988480000000 1.0
C      1  0.4725080000000  0.4784430000000  0.4768820000000 1.0
C      1  0.4915850000000  0.4919320000000  0.4610540000000 1.0
C      1  0.5146730000000  0.4783990000000  0.4707290000000 1.0
C      1  0.5271490000000  0.4999450000000  0.4835260000000 1.0
C      1  0.4462360000000  0.5609350000000  0.4630570000000 1.0
C      1  0.4613390000000  0.5757770000000  0.4427910000000 1.0
C      1  0.5140960000000  0.5659260000000  0.4425260000000 1.0
C      1  0.5537670000000  0.5847580000000  0.4702030000000 1.0
C      1  0.5531090000000  0.5677570000000  0.5198400000000 1.0
C      1  0.5425600000000  0.5632280000000  0.5446300000000 1.0
C      1  0.5050050000000  0.5929010000000  0.5659060000000 1.0
C      1  0.4644150000000  0.5652770000000  0.5513060000000 1.0
C      1  0.4585620000000  0.5588430000000  0.5057150000000 1.0
C      1  0.5356860000000  0.5026160000000  0.5764250000000 1.0
C      1  0.4794720000000  0.5023960000000  0.5818080000000 1.0
C      1  0.4351530000000  0.5050450000000  0.5448360000000 1.0
C      1  0.4180110000000  0.5031600000000  0.4915690000000 1.0
C      1  0.4405650000000  0.5018290000000  0.4397420000000 1.0
C      1  0.4922330000000  0.5033540000000  0.4152680000000 1.0
C      1  0.5452520000000  0.5056630000000  0.4299650000000 1.0
C      1  0.5756350000000  0.5078390000000  0.4792550000000 1.0
C      1  0.5745340000000  0.5045700000000  0.5361710000000 1.0
C      1  0.4857720000000  0.4755790000000  0.5832860000000 1.0
C      1  0.4372620000000  0.4788420000000  0.5541430000000 1.0
C      1  0.4169630000000  0.4768960000000  0.4999100000000 1.0
C      1  0.4329270000000  0.4755580000000  0.4456760000000 1.0
C      1  0.4849160000000  0.4763590000000  0.4165290000000 1.0
C      1  0.5395520000000  0.4788070000000  0.4254390000000 1.0
C      1  0.5750070000000  0.4820180000000  0.4705930000000 1.0
C      1  0.5771720000000  0.4782590000000  0.5284200000000 1.0
C      1  0.5447360000000  0.4765850000000  0.5720860000000 1.0
C      1  0.4811730000000  0.5869620000000  0.5589930000000 1.0
C      1  0.4635700000000  0.5743970000000  0.5249240000000 1.0
C      1  0.4549630000000  0.5789690000000  0.4844580000000 1.0
C      1  0.4730910000000  0.5924830000000  0.4640560000000 1.0
C      1  0.4901720000000  0.5826370000000  0.4423180000000 1.0
C      1  0.5356480000000  0.5764560000000  0.4551090000000 1.0
C      1  0.5663150000000  0.5906010000000  0.4911720000000 1.0
C      1  0.5603650000000  0.5900330000000  0.5173260000000 1.0
C      1  0.5225410000000  0.5799510000000  0.5567470000000 1.0
C      1  0.4558820000000  0.5154670000000  0.5638370000000 1.0
C      1  0.4301320000000  0.5153790000000  0.5158970000000 1.0
C      1  0.4306950000000  0.5131090000000  0.4647460000000 1.0
C      1  0.4687730000000  0.5127160000000  0.4310080000000 1.0
C      1  0.5186140000000  0.5160450000000  0.4248410000000 1.0
C      1  0.5580260000000  0.5175850000000  0.4569230000000 1.0
C      1  0.5698050000000  0.5158720000000  0.5089360000000 1.0
C      1  0.5533010000000  0.5145980000000  0.5563070000000 1.0
C      1  0.5064080000000  0.5128770000000  0.5761380000000 1.0
C      1  0.5719540000000  0.4546950000000  0.4652010000000 1.0
C      1  0.5788280000000  0.4516320000000  0.5208480000000 1.0
C      1  0.5480200000000  0.4493320000000  0.5663550000000 1.0
C      1  0.4945030000000  0.4490490000000  0.5810670000000 1.0
C      1  0.4435840000000  0.4515760000000  0.5583270000000 1.0
C      1  0.4188580000000  0.4504530000000  0.5090280000000 1.0
C      1  0.4321260000000  0.4488400000000  0.4545600000000 1.0
C      1  0.4771200000000  0.4498500000000  0.4223090000000 1.0
C      1  0.5327750000000  0.4515000000000  0.4265770000000 1.0
END
