TITL C-2441167-4473-1196 0.058935595276392 125000 -24578.8964761927 0 0 174 (C1) n - 1
REM
REM in /home/bkarasulu/work/CARBON/AIRSS/Generating-Clusters/ReaxFF-fromJPCA2015/Units_Real/with-SteepDescent/Higher-Symm
REM
REM
REM
REM
REM
REM ./C.cell (1df0a924f5614ab8850e4351716899ee)
REM
REM compiler GCC version 9.2.1 20190827 (Red Hat 9.2.1-1)
REM options -cpp -mtune=generic -march=x86-64 -g -O0 -fpre-include=/usr/include/finclude/math-vector-fortran.h
REM seed -847028007 -820069354 926158009 862648708 514467079 554559076 -1105483856 -66316094 -2073350980 227101344 -980274838 -1548787061 1915581692 -1689411073 1224178327 692370822 -496496285 -333662272 -2124335322 -708195206 -500522556 -973036036 1184654830 287982706 134977985 -630508584 -1869696342 -1504561712 -1445412381 -163492687 -1740143304 548344131 -291842913
REM
CELL 1.54180   50.00000   50.00000   50.00000   90.00000   90.00000   90.00000
LATT -1
SFAC C  
C      1  0.4286730000000  0.5896550000000  0.5079380000000 1.0
C      1  0.4446340000000  0.4195680000000  0.5501070000000 1.0
C      1  0.4778420000000  0.5756210000000  0.5681040000000 1.0
C      1  0.5263470000000  0.4172090000000  0.5742760000000 1.0
C      1  0.5669190000000  0.5844880000000  0.5351780000000 1.0
C      1  0.5828720000000  0.4170740000000  0.4948600000000 1.0
C      1  0.5665200000000  0.5868560000000  0.4541740000000 1.0
C      1  0.5123920000000  0.4126110000000  0.4335600000000 1.0
C      1  0.4738470000000  0.5836770000000  0.4204950000000 1.0
C      1  0.4397360000000  0.4127660000000  0.4677960000000 1.0
C      1  0.5380340000000  0.4812030000000  0.5088060000000 1.0
C      1  0.5271630000000  0.5250020000000  0.4831490000000 1.0
C      1  0.5025260000000  0.4804580000000  0.4800280000000 1.0
C      1  0.5072380000000  0.5084980000000  0.4702440000000 1.0
C      1  0.4746590000000  0.4760640000000  0.4771190000000 1.0
C      1  0.4665020000000  0.5202950000000  0.4972580000000 1.0
C      1  0.4675090000000  0.4757340000000  0.5091990000000 1.0
C      1  0.4942580000000  0.5238150000000  0.5089650000000 1.0
C      1  0.5013270000000  0.4829720000000  0.5370900000000 1.0
C      1  0.5165680000000  0.5223460000000  0.5279120000000 1.0
C      1  0.4738120000000  0.4259510000000  0.5063760000000 1.0
C      1  0.4724180000000  0.5771850000000  0.5234290000000 1.0
C      1  0.5093350000000  0.4328410000000  0.5350190000000 1.0
C      1  0.5133370000000  0.5630410000000  0.5230700000000 1.0
C      1  0.5287410000000  0.4349100000000  0.4990220000000 1.0
C      1  0.5231400000000  0.5708640000000  0.4721200000000 1.0
C      1  0.5106560000000  0.4372050000000  0.4758910000000 1.0
C      1  0.4967820000000  0.5694630000000  0.4630770000000 1.0
C      1  0.4817730000000  0.4306570000000  0.4777690000000 1.0
C      1  0.4750650000000  0.5655090000000  0.4966390000000 1.0
C      1  0.5419860000000  0.4080460000000  0.5012320000000 1.0
C      1  0.5311950000000  0.5935650000000  0.4881680000000 1.0
C      1  0.5349470000000  0.4031390000000  0.4742620000000 1.0
C      1  0.4865590000000  0.5972410000000  0.4586860000000 1.0
C      1  0.4897000000000  0.4088260000000  0.4516040000000 1.0
C      1  0.4676610000000  0.5911040000000  0.4793920000000 1.0
C      1  0.4483010000000  0.4094690000000  0.4960330000000 1.0
C      1  0.4491590000000  0.5929400000000  0.5292200000000 1.0
C      1  0.5046590000000  0.4046630000000  0.5416480000000 1.0
C      1  0.5234830000000  0.6070120000000  0.5388360000000 1.0
C      1  0.5200050000000  0.5103090000000  0.4196530000000 1.0
C      1  0.4639930000000  0.4864490000000  0.4259770000000 1.0
C      1  0.4298620000000  0.5158630000000  0.4598410000000 1.0
C      1  0.4147880000000  0.4837750000000  0.5092120000000 1.0
C      1  0.4252600000000  0.5150410000000  0.5527550000000 1.0
C      1  0.4767780000000  0.4894170000000  0.5815380000000 1.0
C      1  0.5335880000000  0.5177320000000  0.5762090000000 1.0
C      1  0.5683640000000  0.4824960000000  0.5518080000000 1.0
C      1  0.5801620000000  0.5103110000000  0.4935640000000 1.0
C      1  0.5678690000000  0.4854790000000  0.4418480000000 1.0
C      1  0.6052950000000  0.4814000000000  0.4667160000000 1.0
C      1  0.5683380000000  0.5179280000000  0.4112260000000 1.0
C      1  0.5039760000000  0.4792000000000  0.3899210000000 1.0
C      1  0.4368710000000  0.5172910000000  0.4083630000000 1.0
C      1  0.3980200000000  0.4817240000000  0.4647420000000 1.0
C      1  0.4008510000000  0.5214310000000  0.5342070000000 1.0
C      1  0.4331940000000  0.4850360000000  0.5880410000000 1.0
C      1  0.4962900000000  0.5150760000000  0.6138130000000 1.0
C      1  0.5581520000000  0.4772280000000  0.5798970000000 1.0
C      1  0.6061610000000  0.5039720000000  0.5335160000000 1.0
C      1  0.4570960000000  0.5124850000000  0.4699760000000 1.0
C      1  0.4429270000000  0.4902300000000  0.5167470000000 1.0
C      1  0.4487130000000  0.5012510000000  0.5409640000000 1.0
C      1  0.4755650000000  0.5016670000000  0.5540100000000 1.0
C      1  0.5228980000000  0.5018630000000  0.5460170000000 1.0
C      1  0.5448410000000  0.4876980000000  0.5357880000000 1.0
C      1  0.5502290000000  0.5050560000000  0.4884140000000 1.0
C      1  0.5481870000000  0.4959540000000  0.4596940000000 1.0
C      1  0.5241420000000  0.5031610000000  0.4472320000000 1.0
C      1  0.4726090000000  0.4955400000000  0.4527090000000 1.0
C      1  0.4615610000000  0.4102950000000  0.4467700000000 1.0
C      1  0.4387570000000  0.5901730000000  0.4798680000000 1.0
C      1  0.4354200000000  0.4162670000000  0.5211710000000 1.0
C      1  0.4518360000000  0.5860090000000  0.5581480000000 1.0
C      1  0.4973160000000  0.4126230000000  0.5684880000000 1.0
C      1  0.5412830000000  0.5892190000000  0.5519200000000 1.0
C      1  0.5682140000000  0.4107690000000  0.5175450000000 1.0
C      1  0.5600260000000  0.5912670000000  0.4830540000000 1.0
C      1  0.5388320000000  0.4111840000000  0.4476690000000 1.0
C      1  0.4978080000000  0.5946150000000  0.4300920000000 1.0
C      1  0.5155850000000  0.4935140000000  0.6099490000000 1.0
C      1  0.5868270000000  0.5192570000000  0.5834220000000 1.0
C      1  0.6085020000000  0.4787020000000  0.5219010000000 1.0
C      1  0.6023970000000  0.5068040000000  0.4529440000000 1.0
C      1  0.5547440000000  0.4928020000000  0.4027730000000 1.0
C      1  0.4868590000000  0.5029330000000  0.3899780000000 1.0
C      1  0.4223060000000  0.4938560000000  0.4187950000000 1.0
C      1  0.3931170000000  0.5055680000000  0.4819770000000 1.0
C      1  0.4009450000000  0.4821690000000  0.5519560000000 1.0
C      1  0.4437300000000  0.5111100000000  0.5953330000000 1.0
C      1  0.3943840000000  0.5042960000000  0.5116560000000 1.0
C      1  0.4100970000000  0.4969130000000  0.5738520000000 1.0
C      1  0.4699530000000  0.5041630000000  0.6054720000000 1.0
C      1  0.5406810000000  0.4954370000000  0.5947560000000 1.0
C      1  0.5863030000000  0.5144140000000  0.5508320000000 1.0
C      1  0.6021300000000  0.4906330000000  0.4947130000000 1.0
C      1  0.5871290000000  0.5037470000000  0.4285530000000 1.0
C      1  0.5274010000000  0.4955560000000  0.3962150000000 1.0
C      1  0.4604710000000  0.5013260000000  0.4011540000000 1.0
C      1  0.4113790000000  0.4986850000000  0.4450480000000 1.0
C      1  0.4214640000000  0.4323510000000  0.4547090000000 1.0
C      1  0.4084140000000  0.5688500000000  0.5071430000000 1.0
C      1  0.4279970000000  0.4406970000000  0.5621650000000 1.0
C      1  0.4802280000000  0.5504740000000  0.5840070000000 1.0
C      1  0.5289340000000  0.4386490000000  0.5935730000000 1.0
C      1  0.5800050000000  0.5629780000000  0.5496440000000 1.0
C      1  0.5962880000000  0.4403670000000  0.4875640000000 1.0
C      1  0.5734280000000  0.5614760000000  0.4389860000000 1.0
C      1  0.5183270000000  0.4329170000000  0.4124440000000 1.0
C      1  0.4620690000000  0.5605560000000  0.4091970000000 1.0
C      1  0.5715050000000  0.4309980000000  0.5390710000000 1.0
C      1  0.5684430000000  0.5753380000000  0.5076060000000 1.0
C      1  0.5566370000000  0.4362590000000  0.4450450000000 1.0
C      1  0.5166840000000  0.5725290000000  0.4283860000000 1.0
C      1  0.4651660000000  0.4350890000000  0.4317500000000 1.0
C      1  0.4330120000000  0.5661270000000  0.4649270000000 1.0
C      1  0.4227720000000  0.4392660000000  0.5087490000000 1.0
C      1  0.4395030000000  0.5597250000000  0.5585990000000 1.0
C      1  0.4709030000000  0.4264430000000  0.5636050000000 1.0
C      1  0.5354130000000  0.5685400000000  0.5722080000000 1.0
C      1  0.5364640000000  0.5435270000000  0.5299280000000 1.0
C      1  0.5508820000000  0.4557730000000  0.4956720000000 1.0
C      1  0.5391510000000  0.5461180000000  0.4656990000000 1.0
C      1  0.5098960000000  0.4572010000000  0.4545910000000 1.0
C      1  0.4799570000000  0.5484120000000  0.4503260000000 1.0
C      1  0.4609560000000  0.4512970000000  0.4712720000000 1.0
C      1  0.4503860000000  0.5433730000000  0.5047400000000 1.0
C      1  0.4682380000000  0.4523140000000  0.5251730000000 1.0
C      1  0.4863790000000  0.5614150000000  0.5437230000000 1.0
C      1  0.5088980000000  0.4571100000000  0.5495210000000 1.0
C      1  0.4890390000000  0.4533490000000  0.4333160000000 1.0
C      1  0.4507000000000  0.5504010000000  0.4481450000000 1.0
C      1  0.4355960000000  0.4542600000000  0.4864650000000 1.0
C      1  0.4359860000000  0.5486420000000  0.5312670000000 1.0
C      1  0.4672740000000  0.4546270000000  0.5552300000000 1.0
C      1  0.5212150000000  0.5454500000000  0.5824100000000 1.0
C      1  0.5529890000000  0.4300370000000  0.5600510000000 1.0
C      1  0.5632210000000  0.5471090000000  0.5150130000000 1.0
C      1  0.5622470000000  0.4535810000000  0.4672250000000 1.0
C      1  0.5328700000000  0.5507190000000  0.4321230000000 1.0
C      1  0.5009530000000  0.5419080000000  0.6029420000000 1.0
C      1  0.5552630000000  0.4481760000000  0.5831510000000 1.0
C      1  0.5856560000000  0.5394500000000  0.5330860000000 1.0
C      1  0.5907220000000  0.4554460000000  0.4619470000000 1.0
C      1  0.5582540000000  0.5444710000000  0.4188270000000 1.0
C      1  0.4995640000000  0.4541650000000  0.4055040000000 1.0
C      1  0.4407620000000  0.5434930000000  0.4211140000000 1.0
C      1  0.4110830000000  0.4555850000000  0.4698110000000 1.0
C      1  0.4062790000000  0.5497150000000  0.5291500000000 1.0
C      1  0.4447530000000  0.4606630000000  0.5748610000000 1.0
C      1  0.4416650000000  0.4483730000000  0.4391890000000 1.0
C      1  0.4212620000000  0.5508730000000  0.4859890000000 1.0
C      1  0.4052750000000  0.4556600000000  0.5473500000000 1.0
C      1  0.4737150000000  0.5322120000000  0.5612700000000 1.0
C      1  0.5108230000000  0.4561410000000  0.5779560000000 1.0
C      1  0.5560110000000  0.5523460000000  0.5616520000000 1.0
C      1  0.5785780000000  0.4557270000000  0.5066420000000 1.0
C      1  0.5703330000000  0.5465140000000  0.4641170000000 1.0
C      1  0.5351510000000  0.4516240000000  0.4301940000000 1.0
C      1  0.4840650000000  0.5436830000000  0.4216650000000 1.0
C      1  0.5565130000000  0.4701000000000  0.4204740000000 1.0
C      1  0.4981620000000  0.5229180000000  0.4075920000000 1.0
C      1  0.4398700000000  0.4716030000000  0.4228250000000 1.0
C      1  0.4089150000000  0.5283830000000  0.4732620000000 1.0
C      1  0.4053690000000  0.4586740000000  0.5195760000000 1.0
C      1  0.4442740000000  0.5323810000000  0.5716750000000 1.0
C      1  0.4983080000000  0.4757410000000  0.5940940000000 1.0
C      1  0.5607480000000  0.5300200000000  0.5805720000000 1.0
C      1  0.5846790000000  0.4595950000000  0.5354600000000 1.0
C      1  0.5897990000000  0.5264460000000  0.4720410000000 1.0
C      1  0.5187440000000  0.5928020000000  0.5152050000000 1.0
C      1  0.4978800000000  0.4157280000000  0.5161760000000 1.0
C      1  0.5008480000000  0.5502070000000  0.4996270000000 1.0
C      1  0.5092490000000  0.4789190000000  0.5083890000000 1.0
END
