TITL C-2441160-1326-1312 0.0117605544418175 125000 -9779.93269518037 0 0 71 (C1) n - 1
REM
REM in /home/bkarasulu/work/CARBON/AIRSS/Generating-Clusters/ReaxFF-fromJPCA2015/Units_Real/with-SteepDescent/Higher-Symm
REM
REM
REM
REM
REM
REM ./C.cell (1df0a924f5614ab8850e4351716899ee)
REM
REM compiler GCC version 9.2.1 20190827 (Red Hat 9.2.1-1)
REM options -cpp -mtune=generic -march=x86-64 -g -O0 -fpre-include=/usr/include/finclude/math-vector-fortran.h
REM seed 1087385220 -2123825163 1078137315 616152120 -81849506 -900200292 1447730939 -412387068 -103021109 1436249932 862294828 -1797503815 -1943323730 110248205 -704508859 -991626655 -1099322655 305352194 -2030628911 -1404161715 1353661322 579961195 -1762244989 -1273191149 1439996816 1091624873 475858960 2119839088 1047070267 -2068371206 143652151 1558420450 -2003546388
REM
CELL 1.54180   50.00000   50.00000   50.00000   90.00000   90.00000   90.00000
LATT -1
SFAC C  
C      1  0.5184870000000  0.5170100000000  0.4581700000000 1.0
C      1  0.5396450000000  0.5184390000000  0.5255890000000 1.0
C      1  0.4720050000000  0.5186660000000  0.5405540000000 1.0
C      1  0.4520770000000  0.5157400000000  0.4683280000000 1.0
C      1  0.5229180000000  0.4892960000000  0.4546630000000 1.0
C      1  0.5430820000000  0.4891770000000  0.5265590000000 1.0
C      1  0.4728810000000  0.4885340000000  0.5454990000000 1.0
C      1  0.4546030000000  0.4870240000000  0.4729050000000 1.0
C      1  0.4442960000000  0.4798780000000  0.5026390000000 1.0
C      1  0.4937480000000  0.4809740000000  0.4418670000000 1.0
C      1  0.5547190000000  0.4819340000000  0.4954080000000 1.0
C      1  0.5023930000000  0.4795650000000  0.5588140000000 1.0
C      1  0.4474250000000  0.5204250000000  0.4974480000000 1.0
C      1  0.4949480000000  0.5223100000000  0.4433720000000 1.0
C      1  0.5479360000000  0.5192090000000  0.4964200000000 1.0
C      1  0.4994860000000  0.5188510000000  0.5550450000000 1.0
C      1  0.5533470000000  0.5627630000000  0.5077860000000 1.0
C      1  0.4928240000000  0.5619660000000  0.5530210000000 1.0
C      1  0.4517840000000  0.5640700000000  0.4944490000000 1.0
C      1  0.5123480000000  0.5672520000000  0.4528260000000 1.0
C      1  0.5499870000000  0.4389950000000  0.5111270000000 1.0
C      1  0.4889350000000  0.4363060000000  0.5498250000000 1.0
C      1  0.4515200000000  0.4362420000000  0.4914330000000 1.0
C      1  0.5112820000000  0.4376890000000  0.4504320000000 1.0
C      1  0.4680690000000  0.4448260000000  0.4678080000000 1.0
C      1  0.5347960000000  0.4484630000000  0.4649130000000 1.0
C      1  0.5346250000000  0.4482990000000  0.5354580000000 1.0
C      1  0.4649900000000  0.4482740000000  0.5354410000000 1.0
C      1  0.4706850000000  0.5593060000000  0.4720350000000 1.0
C      1  0.5408370000000  0.5579790000000  0.4565370000000 1.0
C      1  0.5409330000000  0.5569150000000  0.5343080000000 1.0
C      1  0.4644020000000  0.5582620000000  0.5446370000000 1.0
C      1  0.5133900000000  0.5662010000000  0.5315070000000 1.0
C      1  0.4693100000000  0.5696520000000  0.5179120000000 1.0
C      1  0.4963060000000  0.5710090000000  0.4783750000000 1.0
C      1  0.5401490000000  0.5660420000000  0.4832200000000 1.0
C      1  0.5100250000000  0.4323460000000  0.5296950000000 1.0
C      1  0.4712560000000  0.4320090000000  0.5119000000000 1.0
C      1  0.4926170000000  0.4294060000000  0.4713870000000 1.0
C      1  0.5308240000000  0.4319790000000  0.4897990000000 1.0
C      1  0.5715680000000  0.4580150000000  0.5011540000000 1.0
C      1  0.4980140000000  0.4542670000000  0.5731970000000 1.0
C      1  0.4285770000000  0.4551350000000  0.5000120000000 1.0
C      1  0.4995900000000  0.4557260000000  0.4282740000000 1.0
C      1  0.5702740000000  0.5400810000000  0.4950090000000 1.0
C      1  0.5024450000000  0.5422080000000  0.5738120000000 1.0
C      1  0.4296100000000  0.5446460000000  0.5003920000000 1.0
C      1  0.5001690000000  0.5494770000000  0.4317740000000 1.0
C      1  0.5208620000000  0.5220820000000  0.4850490000000 1.0
C      1  0.5123110000000  0.5200710000000  0.5292760000000 1.0
C      1  0.4727430000000  0.5206300000000  0.5111460000000 1.0
C      1  0.4720820000000  0.5333320000000  0.4584020000000 1.0
C      1  0.5313360000000  0.4738430000000  0.4789920000000 1.0
C      1  0.5197050000000  0.4735280000000  0.5351130000000 1.0
C      1  0.4673590000000  0.4736790000000  0.5206790000000 1.0
C      1  0.4778040000000  0.4728780000000  0.4653800000000 1.0
C      1  0.4496450000000  0.5347330000000  0.5539180000000 1.0
C      1  0.4379630000000  0.5233080000000  0.4384010000000 1.0
C      1  0.5524160000000  0.5330030000000  0.4448660000000 1.0
C      1  0.5529940000000  0.5342520000000  0.5497510000000 1.0
C      1  0.4458140000000  0.4806950000000  0.5530870000000 1.0
C      1  0.4415570000000  0.4716010000000  0.4464990000000 1.0
C      1  0.5506260000000  0.4815900000000  0.4452410000000 1.0
C      1  0.5544040000000  0.4816950000000  0.5524090000000 1.0
C      1  0.5564280000000  0.5070130000000  0.4417340000000 1.0
C      1  0.5577870000000  0.5078280000000  0.5585340000000 1.0
C      1  0.4358110000000  0.5077250000000  0.5551650000000 1.0
C      1  0.4372130000000  0.4953640000000  0.4289030000000 1.0
C      1  0.5029880000000  0.4241090000000  0.5003880000000 1.0
C      1  0.4969180000000  0.5728180000000  0.5081070000000 1.0
C      1  0.4999750000000  0.5192520000000  0.5046950000000 1.0
END
