TITL C-2441166-8118-1453 0.0182343123192276 125000 -21623.4252829504 0 0 145 (C1) n - 1
REM
REM in /home/bkarasulu/work/CARBON/AIRSS/Generating-Clusters/ReaxFF-fromJPCA2015/Units_Real/with-SteepDescent/Higher-Symm
REM
REM
REM
REM
REM
REM ./C.cell (1df0a924f5614ab8850e4351716899ee)
REM
REM compiler GCC version 9.2.1 20190827 (Red Hat 9.2.1-1)
REM options -cpp -mtune=generic -march=x86-64 -g -O0 -fpre-include=/usr/include/finclude/math-vector-fortran.h
REM seed 1076889994 -608064454 1827583208 1719875455 -776186356 -722932661 -704853945 -1163021195 881177757 1049687891 -1480583613 -961691844 1395634420 -1392953807 565088862 1721489797 698641880 -331819356 -2078776128 -929668827 1778311686 445445190 -181337056 -1100784174 -793382648 -1477305655 76204913 -1206629408 -812787479 1965845725 -1639016894 968453369 1220871154
REM
CELL 1.54180   50.00000   50.00000   50.00000   90.00000   90.00000   90.00000
LATT -1
SFAC C  
C      1  0.4903250000000  0.5995650000000  0.4943570000000 1.0
C      1  0.5648540000000  0.5759490000000  0.5051690000000 1.0
C      1  0.5990680000000  0.5067820000000  0.4941900000000 1.0
C      1  0.5789890000000  0.4326970000000  0.5077900000000 1.0
C      1  0.5083290000000  0.4022580000000  0.4964590000000 1.0
C      1  0.4336340000000  0.4231840000000  0.5007810000000 1.0
C      1  0.3982590000000  0.4931500000000  0.4995830000000 1.0
C      1  0.4212420000000  0.5660140000000  0.5044210000000 1.0
C      1  0.5448280000000  0.5024320000000  0.5281800000000 1.0
C      1  0.5393630000000  0.4663750000000  0.4651210000000 1.0
C      1  0.5094120000000  0.4594600000000  0.5301560000000 1.0
C      1  0.4778140000000  0.4662320000000  0.4688880000000 1.0
C      1  0.4577740000000  0.4721750000000  0.5295500000000 1.0
C      1  0.4592840000000  0.5185600000000  0.4718410000000 1.0
C      1  0.4856390000000  0.5417900000000  0.5315280000000 1.0
C      1  0.5289570000000  0.5359140000000  0.4647770000000 1.0
C      1  0.5038030000000  0.5228400000000  0.5951910000000 1.0
C      1  0.5159110000000  0.5185550000000  0.4040160000000 1.0
C      1  0.5223190000000  0.4995800000000  0.5978900000000 1.0
C      1  0.5133390000000  0.4902860000000  0.3957610000000 1.0
C      1  0.4980620000000  0.4821080000000  0.5999710000000 1.0
C      1  0.4838990000000  0.4935550000000  0.3974260000000 1.0
C      1  0.4810340000000  0.5051680000000  0.5968220000000 1.0
C      1  0.4870820000000  0.5211110000000  0.4059350000000 1.0
C      1  0.4052650000000  0.5423030000000  0.5022500000000 1.0
C      1  0.4633390000000  0.5940180000000  0.4976330000000 1.0
C      1  0.5411670000000  0.5908680000000  0.5016410000000 1.0
C      1  0.5946390000000  0.5335570000000  0.4991070000000 1.0
C      1  0.5934090000000  0.4552010000000  0.5021450000000 1.0
C      1  0.5355640000000  0.4038320000000  0.5012510000000 1.0
C      1  0.4581440000000  0.4095590000000  0.5012290000000 1.0
C      1  0.4044690000000  0.4657080000000  0.4979390000000 1.0
C      1  0.4116580000000  0.5267770000000  0.5246600000000 1.0
C      1  0.4517250000000  0.5832270000000  0.4751440000000 1.0
C      1  0.5261130000000  0.5957850000000  0.5247000000000 1.0
C      1  0.5914300000000  0.5492990000000  0.4755470000000 1.0
C      1  0.5969930000000  0.4714050000000  0.5248540000000 1.0
C      1  0.5534410000000  0.4052100000000  0.4788450000000 1.0
C      1  0.4706750000000  0.4094170000000  0.5272680000000 1.0
C      1  0.4143740000000  0.4560210000000  0.4721880000000 1.0
C      1  0.4322140000000  0.4360940000000  0.4755070000000 1.0
C      1  0.4063540000000  0.5003360000000  0.5274550000000 1.0
C      1  0.4319660000000  0.5665090000000  0.4769310000000 1.0
C      1  0.4999360000000  0.5949270000000  0.5217040000000 1.0
C      1  0.5706800000000  0.5674900000000  0.4780480000000 1.0
C      1  0.5978090000000  0.4987720000000  0.5221790000000 1.0
C      1  0.5692160000000  0.4277680000000  0.4818410000000 1.0
C      1  0.4977680000000  0.4088480000000  0.5226850000000 1.0
C      1  0.5036270000000  0.5937300000000  0.4692160000000 1.0
C      1  0.5703550000000  0.5633540000000  0.5308950000000 1.0
C      1  0.5949220000000  0.4921700000000  0.4690960000000 1.0
C      1  0.5642570000000  0.4285820000000  0.5324430000000 1.0
C      1  0.4972400000000  0.4072360000000  0.4696460000000 1.0
C      1  0.4228440000000  0.4318720000000  0.5269980000000 1.0
C      1  0.3986200000000  0.5070110000000  0.4742010000000 1.0
C      1  0.4347780000000  0.5696690000000  0.5294990000000 1.0
C      1  0.4931210000000  0.4555100000000  0.5826290000000 1.0
C      1  0.4621650000000  0.4715020000000  0.4194000000000 1.0
C      1  0.4497910000000  0.5043840000000  0.5796610000000 1.0
C      1  0.4654300000000  0.5397850000000  0.4259510000000 1.0
C      1  0.5081460000000  0.5495350000000  0.5753040000000 1.0
C      1  0.5418880000000  0.5306490000000  0.4223230000000 1.0
C      1  0.5446920000000  0.4936930000000  0.5775520000000 1.0
C      1  0.5234110000000  0.4707810000000  0.4163350000000 1.0
C      1  0.4649740000000  0.4921550000000  0.4612380000000 1.0
C      1  0.4625900000000  0.5233190000000  0.5359200000000 1.0
C      1  0.5030040000000  0.5445670000000  0.4539530000000 1.0
C      1  0.5373380000000  0.5280530000000  0.5412170000000 1.0
C      1  0.5470320000000  0.4907030000000  0.4508410000000 1.0
C      1  0.5283730000000  0.4811460000000  0.5390710000000 1.0
C      1  0.5042510000000  0.4601270000000  0.4552770000000 1.0
C      1  0.4835070000000  0.4669230000000  0.5408960000000 1.0
C      1  0.5434190000000  0.5000430000000  0.5000330000000 1.0
C      1  0.5329730000000  0.4747360000000  0.4924060000000 1.0
C      1  0.5084610000000  0.4630420000000  0.5022280000000 1.0
C      1  0.4834460000000  0.4695270000000  0.4935770000000 1.0
C      1  0.4640740000000  0.4853320000000  0.5054430000000 1.0
C      1  0.4636200000000  0.5148580000000  0.5063140000000 1.0
C      1  0.4867360000000  0.5319940000000  0.5052440000000 1.0
C      1  0.5299970000000  0.5219030000000  0.4898150000000 1.0
C      1  0.4379330000000  0.5313710000000  0.4335930000000 1.0
C      1  0.4840070000000  0.5664640000000  0.5688200000000 1.0
C      1  0.5390180000000  0.5583910000000  0.4318920000000 1.0
C      1  0.5673010000000  0.5108390000000  0.5683560000000 1.0
C      1  0.5472350000000  0.4559650000000  0.4240450000000 1.0
C      1  0.5123190000000  0.4353840000000  0.5715860000000 1.0
C      1  0.4660950000000  0.4446790000000  0.4320190000000 1.0
C      1  0.4359970000000  0.4787380000000  0.5708560000000 1.0
C      1  0.5815700000000  0.5145700000000  0.5413340000000 1.0
C      1  0.5662240000000  0.4503010000000  0.4643280000000 1.0
C      1  0.5147350000000  0.4258190000000  0.5398480000000 1.0
C      1  0.4573190000000  0.4361660000000  0.4598110000000 1.0
C      1  0.4294100000000  0.4781350000000  0.5413350000000 1.0
C      1  0.4318840000000  0.5387440000000  0.4624680000000 1.0
C      1  0.4832330000000  0.5753310000000  0.5384740000000 1.0
C      1  0.5466240000000  0.5673690000000  0.4598370000000 1.0
C      1  0.4940460000000  0.5855220000000  0.4412600000000 1.0
C      1  0.5587680000000  0.5642680000000  0.5586960000000 1.0
C      1  0.5864780000000  0.4978210000000  0.4411790000000 1.0
C      1  0.5637110000000  0.4397950000000  0.5605990000000 1.0
C      1  0.5084150000000  0.4161380000000  0.4432990000000 1.0
C      1  0.4347850000000  0.4287090000000  0.5539100000000 1.0
C      1  0.4034780000000  0.4964600000000  0.4481170000000 1.0
C      1  0.4344740000000  0.5559860000000  0.5584590000000 1.0
C      1  0.5081930000000  0.4840790000000  0.4387990000000 1.0
C      1  0.4894910000000  0.4854130000000  0.5600740000000 1.0
C      1  0.4790260000000  0.4910130000000  0.4363710000000 1.0
C      1  0.4683630000000  0.5051010000000  0.5572990000000 1.0
C      1  0.4773340000000  0.5328700000000  0.4529120000000 1.0
C      1  0.5100440000000  0.5302410000000  0.5511450000000 1.0
C      1  0.5311760000000  0.5137310000000  0.4451060000000 1.0
C      1  0.5147730000000  0.4972990000000  0.5580170000000 1.0
C      1  0.5740260000000  0.5229260000000  0.4309680000000 1.0
C      1  0.5680730000000  0.4688070000000  0.5712130000000 1.0
C      1  0.5374240000000  0.4280700000000  0.4342160000000 1.0
C      1  0.4694550000000  0.4392550000000  0.5755920000000 1.0
C      1  0.4339200000000  0.4788720000000  0.4261180000000 1.0
C      1  0.4298890000000  0.5289210000000  0.5689710000000 1.0
C      1  0.4696620000000  0.5722810000000  0.4313700000000 1.0
C      1  0.5317600000000  0.5714720000000  0.5687560000000 1.0
C      1  0.4237190000000  0.5065400000000  0.4284580000000 1.0
C      1  0.4586260000000  0.5569760000000  0.5714080000000 1.0
C      1  0.5105750000000  0.5626280000000  0.4314510000000 1.0
C      1  0.5528100000000  0.5357330000000  0.5651220000000 1.0
C      1  0.5646640000000  0.4801950000000  0.4301210000000 1.0
C      1  0.5386150000000  0.4405310000000  0.5717850000000 1.0
C      1  0.4943700000000  0.4398570000000  0.4345040000000 1.0
C      1  0.4420850000000  0.4506150000000  0.5744110000000 1.0
C      1  0.5460360000000  0.4095390000000  0.4521150000000 1.0
C      1  0.4616460000000  0.4191950000000  0.5535530000000 1.0
C      1  0.4147690000000  0.4702700000000  0.4470810000000 1.0
C      1  0.4086050000000  0.5241090000000  0.5509610000000 1.0
C      1  0.4553370000000  0.5858110000000  0.4503320000000 1.0
C      1  0.5294960000000  0.5898850000000  0.5491730000000 1.0
C      1  0.5825950000000  0.5386180000000  0.4511560000000 1.0
C      1  0.5870770000000  0.4727600000000  0.5513250000000 1.0
C      1  0.4080640000000  0.5315420000000  0.4766500000000 1.0
C      1  0.4580930000000  0.5841910000000  0.5245020000000 1.0
C      1  0.5305670000000  0.5882210000000  0.4747920000000 1.0
C      1  0.5846980000000  0.5392470000000  0.5258920000000 1.0
C      1  0.5893300000000  0.4645330000000  0.4750530000000 1.0
C      1  0.5397650000000  0.4156930000000  0.5271300000000 1.0
C      1  0.4701590000000  0.4134830000000  0.4749340000000 1.0
C      1  0.4129310000000  0.4581090000000  0.5248030000000 1.0
C      1  0.5093750000000  0.5212060000000  0.5014700000000 1.0
END
