TITL C-2441169-1362-143 0.0467480529152443 125000 -11902.108428726 0 0 87 (C1) n - 1
REM
REM in /home/bkarasulu/work/CARBON/AIRSS/Generating-Clusters/ReaxFF-fromJPCA2015/Units_Real/with-SteepDescent/Higher-Symm
REM
REM
REM
REM
REM
REM ./C.cell (1df0a924f5614ab8850e4351716899ee)
REM
REM compiler GCC version 9.2.1 20190827 (Red Hat 9.2.1-1)
REM options -cpp -mtune=generic -march=x86-64 -g -O0 -fpre-include=/usr/include/finclude/math-vector-fortran.h
REM seed 778026953 623702794 794311040 -694013026 802024961 1072012018 669011782 1057991302 -836105804 191665192 49394068 430754786 -876138883 -1612818235 136305652 -1094892689 1496615645 -225280062 533380785 -886476341 -1268815367 1062271547 -19017929 -727663760 -2086756353 161086765 568946458 -1672992411 1535317835 -2051526435 891789042 -1996443202 1618118621
REM
CELL 1.54180   50.00000   50.00000   50.00000   90.00000   90.00000   90.00000
LATT -1
SFAC C  
C      1  0.5588860000000  0.5183180000000  0.5538940000000 1.0
C      1  0.4720590000000  0.5151150000000  0.4263540000000 1.0
C      1  0.5048300000000  0.5013850000000  0.5299100000000 1.0
C      1  0.5421090000000  0.5669760000000  0.5034340000000 1.0
C      1  0.4834580000000  0.5739510000000  0.5277370000000 1.0
C      1  0.5415690000000  0.5377230000000  0.4603070000000 1.0
C      1  0.5246480000000  0.4369100000000  0.4615630000000 1.0
C      1  0.4589730000000  0.4785700000000  0.5397040000000 1.0
C      1  0.4301080000000  0.5276250000000  0.4681000000000 1.0
C      1  0.4570150000000  0.4789640000000  0.4214350000000 1.0
C      1  0.4973800000000  0.4228230000000  0.5208880000000 1.0
C      1  0.4383110000000  0.5203140000000  0.5557040000000 1.0
C      1  0.5325890000000  0.5092440000000  0.4700100000000 1.0
C      1  0.4465720000000  0.5032670000000  0.4296070000000 1.0
C      1  0.5346350000000  0.4724760000000  0.4210730000000 1.0
C      1  0.4277610000000  0.4632550000000  0.5059410000000 1.0
C      1  0.4247100000000  0.5027530000000  0.5368060000000 1.0
C      1  0.4767990000000  0.4655420000000  0.5816360000000 1.0
C      1  0.4805170000000  0.5123910000000  0.4836780000000 1.0
C      1  0.4321870000000  0.4996520000000  0.4589280000000 1.0
C      1  0.5477430000000  0.4981150000000  0.4301850000000 1.0
C      1  0.4225800000000  0.5290750000000  0.4959410000000 1.0
C      1  0.5044770000000  0.5396880000000  0.5076170000000 1.0
C      1  0.4711440000000  0.4263250000000  0.5039330000000 1.0
C      1  0.4993050000000  0.5503760000000  0.4498400000000 1.0
C      1  0.4550000000000  0.4504160000000  0.4600230000000 1.0
C      1  0.4695380000000  0.5565600000000  0.5472700000000 1.0
C      1  0.5462220000000  0.5606740000000  0.5321020000000 1.0
C      1  0.5223800000000  0.5139150000000  0.5741710000000 1.0
C      1  0.4809090000000  0.5376190000000  0.5671820000000 1.0
C      1  0.5671050000000  0.4886050000000  0.5014120000000 1.0
C      1  0.4786390000000  0.5797520000000  0.4731060000000 1.0
C      1  0.4543470000000  0.4799750000000  0.4671680000000 1.0
C      1  0.5659890000000  0.4666280000000  0.4677700000000 1.0
C      1  0.5242550000000  0.4192960000000  0.5099380000000 1.0
C      1  0.4303770000000  0.4750170000000  0.5328690000000 1.0
C      1  0.5635440000000  0.5368040000000  0.5326270000000 1.0
C      1  0.4615280000000  0.5156720000000  0.5725300000000 1.0
C      1  0.5701990000000  0.5314920000000  0.5039410000000 1.0
C      1  0.4631370000000  0.4532730000000  0.4313030000000 1.0
C      1  0.5648620000000  0.4449720000000  0.5135880000000 1.0
C      1  0.4203320000000  0.4846480000000  0.4884480000000 1.0
C      1  0.4312650000000  0.5045690000000  0.5057010000000 1.0
C      1  0.5832730000000  0.5075000000000  0.4987760000000 1.0
C      1  0.5709450000000  0.4717840000000  0.5226480000000 1.0
C      1  0.5369540000000  0.4421350000000  0.5191620000000 1.0
C      1  0.5085830000000  0.4341650000000  0.5452750000000 1.0
C      1  0.4470880000000  0.5517340000000  0.4664740000000 1.0
C      1  0.4966440000000  0.4693910000000  0.4954800000000 1.0
C      1  0.5078710000000  0.5004650000000  0.4849410000000 1.0
C      1  0.4604270000000  0.4856000000000  0.5701160000000 1.0
C      1  0.4531840000000  0.4481420000000  0.5112020000000 1.0
C      1  0.5004980000000  0.5017160000000  0.5586640000000 1.0
C      1  0.4905120000000  0.5821230000000  0.4991560000000 1.0
C      1  0.5099840000000  0.5288960000000  0.4323350000000 1.0
C      1  0.5213600000000  0.5614660000000  0.4642290000000 1.0
C      1  0.5251410000000  0.4827590000000  0.5265570000000 1.0
C      1  0.5560600000000  0.5484580000000  0.4861640000000 1.0
C      1  0.5609980000000  0.4428740000000  0.4846040000000 1.0
C      1  0.5143630000000  0.5157370000000  0.5081340000000 1.0
C      1  0.4599420000000  0.4948130000000  0.4913450000000 1.0
C      1  0.5186080000000  0.5772570000000  0.4885840000000 1.0
C      1  0.4714760000000  0.5613260000000  0.4522300000000 1.0
C      1  0.5384540000000  0.4237770000000  0.4833600000000 1.0
C      1  0.4797200000000  0.5383520000000  0.4946730000000 1.0
C      1  0.4546440000000  0.5549860000000  0.4949750000000 1.0
C      1  0.4962600000000  0.5044270000000  0.4312850000000 1.0
C      1  0.5455900000000  0.4710570000000  0.5645340000000 1.0
C      1  0.5110130000000  0.5404330000000  0.5705850000000 1.0
C      1  0.5060730000000  0.5561470000000  0.5296260000000 1.0
C      1  0.5218610000000  0.4632460000000  0.5086310000000 1.0
C      1  0.5495510000000  0.4812700000000  0.5382790000000 1.0
C      1  0.4722480000000  0.4325100000000  0.4755180000000 1.0
C      1  0.4752540000000  0.4651940000000  0.5194300000000 1.0
C      1  0.5386080000000  0.5253410000000  0.4325080000000 1.0
C      1  0.4450770000000  0.5438620000000  0.5398430000000 1.0
C      1  0.5011640000000  0.4736050000000  0.5727620000000 1.0
C      1  0.4917550000000  0.4549560000000  0.4390070000000 1.0
C      1  0.5217940000000  0.4534830000000  0.5638670000000 1.0
C      1  0.5250280000000  0.5589020000000  0.5519180000000 1.0
C      1  0.5055780000000  0.4759930000000  0.4243130000000 1.0
C      1  0.4963810000000  0.4496090000000  0.4698700000000 1.0
C      1  0.5495490000000  0.5001590000000  0.5730510000000 1.0
C      1  0.5479250000000  0.4883780000000  0.4575230000000 1.0
C      1  0.5343690000000  0.4510660000000  0.4399460000000 1.0
C      1  0.5841520000000  0.4860960000000  0.4794450000000 1.0
C      1  0.4340510000000  0.5480900000000  0.5136020000000 1.0
END
