TITL C-2441164-471-1041 0.202158680243242 125000 -24400.4369858243 0 0 196 (C1) n - 1
REM
REM in /home/bkarasulu/work/CARBON/AIRSS/Generating-Clusters/ReaxFF-fromJPCA2015/Units_Real/with-SteepDescent/Higher-Symm
REM
REM
REM
REM
REM
REM ./C.cell (1df0a924f5614ab8850e4351716899ee)
REM
REM compiler GCC version 9.2.1 20190827 (Red Hat 9.2.1-1)
REM options -cpp -mtune=generic -march=x86-64 -g -O0 -fpre-include=/usr/include/finclude/math-vector-fortran.h
REM seed -731628494 -1256365218 2013356644 1744030276 -967234130 -1001380449 -377073043 -1306286429 -606679125 1675545690 687242062 718689153 340326103 1420261223 2078934407 1466218942 -1624867572 1910712621 1520661186 1060758313 434048810 -1949998957 -1584185209 1608197512 369866927 24335667 648113222 -1214061146 -1178614412 -1712723728 -547747560 -1001369809 1192186447
REM
CELL 1.54180   50.00000   50.00000   50.00000   90.00000   90.00000   90.00000
LATT -1
SFAC C  
C      1  0.5834890000000  0.5518820000000  0.4784860000000 1.0
C      1  0.4194300000000  0.5470940000000  0.5226290000000 1.0
C      1  0.5763390000000  0.4578290000000  0.4695870000000 1.0
C      1  0.4232040000000  0.4565950000000  0.5304840000000 1.0
C      1  0.5795360000000  0.5354040000000  0.5179340000000 1.0
C      1  0.4202510000000  0.5496510000000  0.4769720000000 1.0
C      1  0.5843630000000  0.4496480000000  0.5212750000000 1.0
C      1  0.4150130000000  0.4496920000000  0.4809150000000 1.0
C      1  0.5242720000000  0.4188480000000  0.4804490000000 1.0
C      1  0.4763650000000  0.4188540000000  0.5192510000000 1.0
C      1  0.5233770000000  0.5822930000000  0.4814650000000 1.0
C      1  0.4763760000000  0.5825200000000  0.5178510000000 1.0
C      1  0.5242970000000  0.4179520000000  0.5191370000000 1.0
C      1  0.4759250000000  0.4186270000000  0.4814950000000 1.0
C      1  0.5257820000000  0.5823490000000  0.5181750000000 1.0
C      1  0.4754270000000  0.5828670000000  0.4825820000000 1.0
C      1  0.4342650000000  0.5868240000000  0.4527780000000 1.0
C      1  0.5672400000000  0.5865600000000  0.5472390000000 1.0
C      1  0.4340430000000  0.4159180000000  0.4546100000000 1.0
C      1  0.5665430000000  0.4136200000000  0.5459710000000 1.0
C      1  0.4336870000000  0.5856500000000  0.5464830000000 1.0
C      1  0.5655800000000  0.5853300000000  0.4537060000000 1.0
C      1  0.4328520000000  0.4131190000000  0.5458910000000 1.0
C      1  0.5669300000000  0.4133930000000  0.4531350000000 1.0
C      1  0.5133580000000  0.5257510000000  0.4838960000000 1.0
C      1  0.4803960000000  0.5264910000000  0.5163160000000 1.0
C      1  0.5203700000000  0.4745300000000  0.4847630000000 1.0
C      1  0.4772400000000  0.4731140000000  0.5147640000000 1.0
C      1  0.5221850000000  0.5276490000000  0.5115340000000 1.0
C      1  0.4828420000000  0.5245950000000  0.4875780000000 1.0
C      1  0.5229860000000  0.4719630000000  0.5127610000000 1.0
C      1  0.4793970000000  0.4738280000000  0.4862690000000 1.0
C      1  0.4859860000000  0.5126630000000  0.5544640000000 1.0
C      1  0.5145940000000  0.5135350000000  0.4440580000000 1.0
C      1  0.4875590000000  0.4845840000000  0.5587720000000 1.0
C      1  0.5143330000000  0.4857810000000  0.4411760000000 1.0
C      1  0.4857080000000  0.5141280000000  0.4423800000000 1.0
C      1  0.5146340000000  0.5154020000000  0.5601640000000 1.0
C      1  0.4853610000000  0.4854700000000  0.4415850000000 1.0
C      1  0.5168800000000  0.4866390000000  0.5587200000000 1.0
C      1  0.4869590000000  0.4467110000000  0.4776810000000 1.0
C      1  0.5143190000000  0.4461640000000  0.5228510000000 1.0
C      1  0.4835440000000  0.5531030000000  0.4763560000000 1.0
C      1  0.5155150000000  0.5540500000000  0.5230090000000 1.0
C      1  0.4873860000000  0.4470920000000  0.5233730000000 1.0
C      1  0.5134760000000  0.4469840000000  0.4767880000000 1.0
C      1  0.4879580000000  0.5528680000000  0.5248820000000 1.0
C      1  0.5114510000000  0.5538160000000  0.4746130000000 1.0
C      1  0.6149070000000  0.4755930000000  0.4551330000000 1.0
C      1  0.3834660000000  0.4728980000000  0.5438520000000 1.0
C      1  0.6110690000000  0.5259550000000  0.4579860000000 1.0
C      1  0.3935370000000  0.5221620000000  0.5413830000000 1.0
C      1  0.6113600000000  0.4752070000000  0.5456860000000 1.0
C      1  0.3846370000000  0.4733280000000  0.4577030000000 1.0
C      1  0.6132000000000  0.5255420000000  0.5453570000000 1.0
C      1  0.3920300000000  0.5259090000000  0.4584690000000 1.0
C      1  0.5437000000000  0.4855840000000  0.5246590000000 1.0
C      1  0.4543280000000  0.4827670000000  0.4737210000000 1.0
C      1  0.5425490000000  0.5135590000000  0.5253210000000 1.0
C      1  0.4472700000000  0.5120260000000  0.4709390000000 1.0
C      1  0.5428960000000  0.4881160000000  0.4715800000000 1.0
C      1  0.4542270000000  0.4845080000000  0.5278740000000 1.0
C      1  0.5520020000000  0.5163990000000  0.4734980000000 1.0
C      1  0.4456960000000  0.5145540000000  0.5275550000000 1.0
C      1  0.4743160000000  0.5541080000000  0.5977330000000 1.0
C      1  0.5251210000000  0.5559870000000  0.4011550000000 1.0
C      1  0.4753780000000  0.4458560000000  0.5980990000000 1.0
C      1  0.5245810000000  0.4467170000000  0.4013110000000 1.0
C      1  0.4730000000000  0.5541880000000  0.4032080000000 1.0
C      1  0.5263880000000  0.5545910000000  0.5976910000000 1.0
C      1  0.4748400000000  0.4441080000000  0.4011660000000 1.0
C      1  0.5245340000000  0.4463970000000  0.5983540000000 1.0
C      1  0.5974290000000  0.4608430000000  0.4348540000000 1.0
C      1  0.4009360000000  0.4625550000000  0.5638100000000 1.0
C      1  0.5960730000000  0.5372200000000  0.4367770000000 1.0
C      1  0.4046360000000  0.5383160000000  0.5646900000000 1.0
C      1  0.5964600000000  0.4602770000000  0.5650470000000 1.0
C      1  0.4031740000000  0.4621310000000  0.4373680000000 1.0
C      1  0.5974780000000  0.5407780000000  0.5664800000000 1.0
C      1  0.4046930000000  0.5382590000000  0.4346770000000 1.0
C      1  0.5392060000000  0.4062690000000  0.4434730000000 1.0
C      1  0.4605550000000  0.4055200000000  0.5563430000000 1.0
C      1  0.5388650000000  0.5921010000000  0.4429010000000 1.0
C      1  0.4612250000000  0.5938020000000  0.5564110000000 1.0
C      1  0.5393060000000  0.4064130000000  0.5565120000000 1.0
C      1  0.4605810000000  0.4082110000000  0.4441930000000 1.0
C      1  0.5388100000000  0.5947630000000  0.5557340000000 1.0
C      1  0.4619830000000  0.5937220000000  0.4429890000000 1.0
C      1  0.4492580000000  0.4455490000000  0.4139960000000 1.0
C      1  0.5504920000000  0.4455740000000  0.5853650000000 1.0
C      1  0.4479130000000  0.5549310000000  0.4183560000000 1.0
C      1  0.5512960000000  0.5551580000000  0.5829480000000 1.0
C      1  0.4493770000000  0.4451690000000  0.5851150000000 1.0
C      1  0.5501910000000  0.4454470000000  0.4141510000000 1.0
C      1  0.4493880000000  0.5545610000000  0.5834930000000 1.0
C      1  0.5505790000000  0.5540240000000  0.4142650000000 1.0
C      1  0.5150890000000  0.5997500000000  0.4589240000000 1.0
C      1  0.4853570000000  0.6002770000000  0.5398380000000 1.0
C      1  0.5145850000000  0.4008920000000  0.4591390000000 1.0
C      1  0.4853200000000  0.4002850000000  0.5407350000000 1.0
C      1  0.5149560000000  0.6003810000000  0.5396170000000 1.0
C      1  0.4856830000000  0.5995430000000  0.4597810000000 1.0
C      1  0.5147490000000  0.4003890000000  0.5409710000000 1.0
C      1  0.4848960000000  0.4010010000000  0.4592740000000 1.0
C      1  0.5821280000000  0.5103780000000  0.4749800000000 1.0
C      1  0.4171180000000  0.5074100000000  0.5301480000000 1.0
C      1  0.5894100000000  0.4833260000000  0.4686750000000 1.0
C      1  0.4070010000000  0.4808980000000  0.5217310000000 1.0
C      1  0.5859740000000  0.5154320000000  0.5364100000000 1.0
C      1  0.4194930000000  0.5113860000000  0.4632470000000 1.0
C      1  0.5806620000000  0.4873520000000  0.5379430000000 1.0
C      1  0.4090920000000  0.4884940000000  0.4706560000000 1.0
C      1  0.5140470000000  0.5306610000000  0.3913080000000 1.0
C      1  0.4854970000000  0.5296270000000  0.6090360000000 1.0
C      1  0.5140220000000  0.4712390000000  0.3894860000000 1.0
C      1  0.4855630000000  0.4706560000000  0.6096580000000 1.0
C      1  0.5145990000000  0.5300400000000  0.6091530000000 1.0
C      1  0.4849250000000  0.5300300000000  0.3912230000000 1.0
C      1  0.5146220000000  0.4706270000000  0.6098830000000 1.0
C      1  0.4848840000000  0.4698980000000  0.3911450000000 1.0
C      1  0.4425140000000  0.4475690000000  0.4873790000000 1.0
C      1  0.5600550000000  0.4415090000000  0.5109740000000 1.0
C      1  0.4454690000000  0.5554870000000  0.4869440000000 1.0
C      1  0.5584790000000  0.5531660000000  0.5140700000000 1.0
C      1  0.4450010000000  0.4481950000000  0.5152310000000 1.0
C      1  0.5585180000000  0.4446120000000  0.4862340000000 1.0
C      1  0.4450110000000  0.5520120000000  0.5142770000000 1.0
C      1  0.5563940000000  0.5538290000000  0.4865550000000 1.0
C      1  0.4209490000000  0.5598920000000  0.4492630000000 1.0
C      1  0.5824900000000  0.5642080000000  0.5575480000000 1.0
C      1  0.4156910000000  0.4396240000000  0.4538790000000 1.0
C      1  0.5835720000000  0.4383400000000  0.5476650000000 1.0
C      1  0.4167570000000  0.5603740000000  0.5484980000000 1.0
C      1  0.5843830000000  0.5622980000000  0.4519830000000 1.0
C      1  0.4166110000000  0.4376110000000  0.5493830000000 1.0
C      1  0.5826060000000  0.4387090000000  0.4493920000000 1.0
C      1  0.4445190000000  0.4748830000000  0.5805690000000 1.0
C      1  0.5547650000000  0.4745510000000  0.4194190000000 1.0
C      1  0.4458890000000  0.5244210000000  0.5789430000000 1.0
C      1  0.5554890000000  0.5250820000000  0.4186900000000 1.0
C      1  0.4436970000000  0.4744740000000  0.4169280000000 1.0
C      1  0.5564670000000  0.4751040000000  0.5807490000000 1.0
C      1  0.4453080000000  0.5244670000000  0.4202660000000 1.0
C      1  0.5556270000000  0.5249550000000  0.5780550000000 1.0
C      1  0.4602870000000  0.5248320000000  0.5510840000000 1.0
C      1  0.5393580000000  0.5275550000000  0.4490930000000 1.0
C      1  0.4607740000000  0.4766420000000  0.5544510000000 1.0
C      1  0.5400820000000  0.4757310000000  0.4463840000000 1.0
C      1  0.4594930000000  0.5231900000000  0.4478260000000 1.0
C      1  0.5400790000000  0.5241350000000  0.5514980000000 1.0
C      1  0.4609040000000  0.4717010000000  0.4475960000000 1.0
C      1  0.5437600000000  0.4778190000000  0.5519520000000 1.0
C      1  0.4638350000000  0.4378840000000  0.4391700000000 1.0
C      1  0.5361470000000  0.4346910000000  0.5617300000000 1.0
C      1  0.4647770000000  0.5641680000000  0.4408590000000 1.0
C      1  0.5356590000000  0.5662440000000  0.5607580000000 1.0
C      1  0.4632130000000  0.4341380000000  0.5616880000000 1.0
C      1  0.5365770000000  0.4345090000000  0.4376030000000 1.0
C      1  0.4644990000000  0.5649230000000  0.5607340000000 1.0
C      1  0.5362470000000  0.5622210000000  0.4391350000000 1.0
C      1  0.4636030000000  0.4869820000000  0.6015110000000 1.0
C      1  0.5359110000000  0.4872430000000  0.3987270000000 1.0
C      1  0.4642620000000  0.5131940000000  0.6004090000000 1.0
C      1  0.5357180000000  0.5136300000000  0.3988810000000 1.0
C      1  0.4632840000000  0.4868840000000  0.3978560000000 1.0
C      1  0.5364160000000  0.4869700000000  0.6015010000000 1.0
C      1  0.4635800000000  0.5131340000000  0.3987550000000 1.0
C      1  0.5361860000000  0.5135170000000  0.6006980000000 1.0
C      1  0.4869820000000  0.4413970000000  0.5729010000000 1.0
C      1  0.5123960000000  0.4436320000000  0.4273520000000 1.0
C      1  0.4874750000000  0.5589930000000  0.5733570000000 1.0
C      1  0.5123690000000  0.5648410000000  0.4245620000000 1.0
C      1  0.4876030000000  0.4349440000000  0.4243780000000 1.0
C      1  0.5129310000000  0.4407040000000  0.5738720000000 1.0
C      1  0.4876700000000  0.5573150000000  0.4275580000000 1.0
C      1  0.5131850000000  0.5610900000000  0.5741680000000 1.0
C      1  0.4468540000000  0.5795940000000  0.5213540000000 1.0
C      1  0.5527350000000  0.5815030000000  0.4796310000000 1.0
C      1  0.4470810000000  0.4203320000000  0.5210620000000 1.0
C      1  0.5536370000000  0.4189370000000  0.4785540000000 1.0
C      1  0.4463520000000  0.5830090000000  0.4789990000000 1.0
C      1  0.5550610000000  0.5798970000000  0.5214530000000 1.0
C      1  0.4467100000000  0.4201000000000  0.4802530000000 1.0
C      1  0.5534020000000  0.4168480000000  0.5202690000000 1.0
C      1  0.5834190000000  0.5133200000000  0.4227190000000 1.0
C      1  0.4160600000000  0.5140880000000  0.5780340000000 1.0
C      1  0.5840800000000  0.4848580000000  0.4227780000000 1.0
C      1  0.4155860000000  0.4855930000000  0.5773730000000 1.0
C      1  0.5848490000000  0.5144440000000  0.5777000000000 1.0
C      1  0.4158950000000  0.5137280000000  0.4220550000000 1.0
C      1  0.5854350000000  0.4858000000000  0.5791400000000 1.0
C      1  0.4157720000000  0.4851630000000  0.4224410000000 1.0
C      1  0.5869610000000  0.4783580000000  0.5099360000000 1.0
C      1  0.4058570000000  0.5338400000000  0.4987970000000 1.0
C      1  0.4052840000000  0.4733830000000  0.4929420000000 1.0
C      1  0.5938160000000  0.5299230000000  0.4939720000000 1.0
END
