TITL C-2441154-10-159 -0.000453535043363391 125000 -4243.48079673858 0 0 33 (C1) n - 1
REM
REM in /home/bkarasulu/work/CARBON/AIRSS/Generating-Clusters/ReaxFF-fromJPCA2015/Units_Real/with-SteepDescent/Higher-Symm
REM
REM
REM
REM
REM
REM ./C.cell (1df0a924f5614ab8850e4351716899ee)
REM
REM compiler GCC version 9.2.1 20190827 (Red Hat 9.2.1-1)
REM options -cpp -mtune=generic -march=x86-64 -g -O0 -fpre-include=/usr/include/finclude/math-vector-fortran.h
REM seed 266782248 -2058668524 -98818628 -1514878151 -334951334 -1126702422 1900879288 1278489967 1737554677 97600805 -308338523 -857128243 677575445 -1113632869 -1733110954 2114474568 369954374 1096360710 4357426 -1872075431 -648931136 -2134517149 1903617343 1131024133 -189169685 30324899 -467606537 2014643891 -1766992275 -1725491007 -1845041315 -2020892321 112877392
REM
CELL 1.54180   50.00000   50.00000   50.00000   90.00000   90.00000   90.00000
LATT -1
SFAC C  
C      1  0.4542810000000  0.4769910000000  0.5022480000000 1.0
C      1  0.5400230000000  0.5283840000000  0.5057480000000 1.0
C      1  0.5203960000000  0.4795420000000  0.4515550000000 1.0
C      1  0.4783190000000  0.5247010000000  0.4553550000000 1.0
C      1  0.4869090000000  0.4478700000000  0.4890140000000 1.0
C      1  0.5075760000000  0.5557970000000  0.4914530000000 1.0
C      1  0.4643350000000  0.4973470000000  0.5193970000000 1.0
C      1  0.5331370000000  0.5146370000000  0.5272590000000 1.0
C      1  0.5431000000000  0.4865830000000  0.4625620000000 1.0
C      1  0.4537940000000  0.5188860000000  0.4628000000000 1.0
C      1  0.5064060000000  0.4698950000000  0.4875360000000 1.0
C      1  0.4859110000000  0.5377330000000  0.4934660000000 1.0
C      1  0.5002400000000  0.5594970000000  0.5238750000000 1.0
C      1  0.4970110000000  0.4496480000000  0.5199800000000 1.0
C      1  0.4906180000000  0.5486220000000  0.4692150000000 1.0
C      1  0.5041890000000  0.4560300000000  0.4656790000000 1.0
C      1  0.4909770000000  0.5391430000000  0.5401050000000 1.0
C      1  0.5047520000000  0.4721190000000  0.5364300000000 1.0
C      1  0.5387160000000  0.5445570000000  0.4838870000000 1.0
C      1  0.4551590000000  0.4570470000000  0.4833150000000 1.0
C      1  0.4977870000000  0.5029210000000  0.6676430000000 1.0
C      1  0.4976650000000  0.4939950000000  0.4818680000000 1.0
C      1  0.4981990000000  0.5040120000000  0.5918290000000 1.0
C      1  0.4978070000000  0.5028470000000  0.4166430000000 1.0
C      1  0.4969070000000  0.5039050000000  0.6173030000000 1.0
C      1  0.4982230000000  0.5022960000000  0.4419720000000 1.0
C      1  0.4976550000000  0.5032400000000  0.3658320000000 1.0
C      1  0.4971860000000  0.5033970000000  0.6431400000000 1.0
C      1  0.4877090000000  0.5102820000000  0.5018920000000 1.0
C      1  0.4975250000000  0.5032480000000  0.3914990000000 1.0
C      1  0.5015490000000  0.5031220000000  0.5666470000000 1.0
C      1  0.5048050000000  0.5023910000000  0.5392280000000 1.0
C      1  0.4978440000000  0.5031710000000  0.3414390000000 1.0
END
