TITL C-2441157-2117-287 0.00485668761257436 125000 -6752.3781941976 0 0 48 (C1) n - 1
REM
REM in /home/bkarasulu/work/CARBON/AIRSS/Generating-Clusters/ReaxFF-fromJPCA2015/Units_Real/with-SteepDescent/Higher-Symm
REM
REM
REM
REM
REM
REM ./C.cell (1df0a924f5614ab8850e4351716899ee)
REM
REM compiler GCC version 9.2.1 20190827 (Red Hat 9.2.1-1)
REM options -cpp -mtune=generic -march=x86-64 -g -O0 -fpre-include=/usr/include/finclude/math-vector-fortran.h
REM seed 189811297 -1145961351 1957612345 667350135 75520972 70725233 1980702464 -1202205551 -1463344452 588279581 -1408643584 11411476 300253366 1045027344 947221312 -647587852 459084657 -404624410 532990812 200247956 -1737067767 -1458029137 -3981414 -1818044582 -1560436193 1821043333 -1655858484 1246136871 71164721 -1177104993 810077974 -804503258 1855945946
REM
CELL 1.54180   50.00000   50.00000   50.00000   90.00000   90.00000   90.00000
LATT -1
SFAC C  
C      1  0.4991130000000  0.5704690000000  0.4846380000000 1.0
C      1  0.4987510000000  0.5404060000000  0.5651970000000 1.0
C      1  0.4974970000000  0.4572990000000  0.5544430000000 1.0
C      1  0.4961970000000  0.4312460000000  0.4678480000000 1.0
C      1  0.5019480000000  0.5066760000000  0.4293590000000 1.0
C      1  0.4805770000000  0.5705670000000  0.5061390000000 1.0
C      1  0.4802740000000  0.5218870000000  0.5731980000000 1.0
C      1  0.4821120000000  0.4399230000000  0.5364980000000 1.0
C      1  0.4790470000000  0.4467090000000  0.4531530000000 1.0
C      1  0.4804590000000  0.5268460000000  0.4346170000000 1.0
C      1  0.5254790000000  0.4754430000000  0.4594720000000 1.0
C      1  0.5234450000000  0.5310230000000  0.4590680000000 1.0
C      1  0.5241390000000  0.5436420000000  0.5130610000000 1.0
C      1  0.5215800000000  0.4994460000000  0.5461270000000 1.0
C      1  0.5244300000000  0.4550630000000  0.5167870000000 1.0
C      1  0.4823710000000  0.4796590000000  0.5658670000000 1.0
C      1  0.4851810000000  0.4296380000000  0.4931870000000 1.0
C      1  0.4853430000000  0.4839670000000  0.4353200000000 1.0
C      1  0.4835200000000  0.5595100000000  0.4640650000000 1.0
C      1  0.4865780000000  0.5542870000000  0.5448570000000 1.0
C      1  0.5019260000000  0.5010380000000  0.5695050000000 1.0
C      1  0.5033590000000  0.4346390000000  0.5176920000000 1.0
C      1  0.5036030000000  0.4623460000000  0.4439080000000 1.0
C      1  0.5007040000000  0.5455550000000  0.4449750000000 1.0
C      1  0.5041520000000  0.5643820000000  0.5236310000000 1.0
C      1  0.5242500000000  0.5024070000000  0.4491100000000 1.0
C      1  0.5254740000000  0.5425180000000  0.4848100000000 1.0
C      1  0.5313690000000  0.5172970000000  0.5256240000000 1.0
C      1  0.5211890000000  0.4702810000000  0.5413000000000 1.0
C      1  0.5296470000000  0.4718130000000  0.4920820000000 1.0
C      1  0.4771530000000  0.4972420000000  0.5263130000000 1.0
C      1  0.4803220000000  0.4749410000000  0.5122900000000 1.0
C      1  0.5001480000000  0.4782160000000  0.4915720000000 1.0
C      1  0.4753430000000  0.5187230000000  0.4869640000000 1.0
C      1  0.4880410000000  0.5175710000000  0.5112530000000 1.0
C      1  0.4571590000000  0.5211540000000  0.5531910000000 1.0
C      1  0.4615530000000  0.4533640000000  0.5190860000000 1.0
C      1  0.4577430000000  0.4631040000000  0.4664140000000 1.0
C      1  0.4577790000000  0.5185650000000  0.4510340000000 1.0
C      1  0.4583190000000  0.5510060000000  0.5055880000000 1.0
C      1  0.4613500000000  0.5412460000000  0.4762280000000 1.0
C      1  0.4600330000000  0.5423030000000  0.5330810000000 1.0
C      1  0.4610410000000  0.4927770000000  0.5499530000000 1.0
C      1  0.4600060000000  0.4473070000000  0.4906260000000 1.0
C      1  0.4617000000000  0.4895850000000  0.4523680000000 1.0
C      1  0.5449260000000  0.4985870000000  0.5054570000000 1.0
C      1  0.5008450000000  0.5064360000000  0.4887890000000 1.0
C      1  0.5688670000000  0.5027910000000  0.4992360000000 1.0
END
