TITL C-2441161-5029-952 0.00114425154379465 125000 -1216.23977387624 0 0 10 (C1) n - 1
REM
REM in /home/bkarasulu/work/CARBON/AIRSS/Generating-Clusters/ReaxFF-fromJPCA2015/Units_Real/with-SteepDescent/Higher-Symm
REM
REM
REM
REM
REM
REM ./C.cell (1df0a924f5614ab8850e4351716899ee)
REM
REM compiler GCC version 9.2.1 20190827 (Red Hat 9.2.1-1)
REM options -cpp -mtune=generic -march=x86-64 -g -O0 -fpre-include=/usr/include/finclude/math-vector-fortran.h
REM seed -930676547 -1235887373 1501917776 -1241876723 -1944425638 1056617787 -362477219 -753548468 312521035 2127844235 1538099537 1081041536 1343047532 54241792 -422463912 866091572 -947732633 1581670283 -545139905 1751117300 -1313553261 651865034 -1937342994 -333710881 -1274683243 1952619455 522588535 -1763387185 -1676670552 -184743722 -2135479621 -837558354 1992314173
REM
CELL 1.54180   50.00000   50.00000   50.00000   90.00000   90.00000   90.00000
LATT -1
SFAC C  
C      1  0.4817430000000  0.4838840000000  0.4831560000000 1.0
C      1  0.5372750000000  0.5064500000000  0.4895360000000 1.0
C      1  0.5225100000000  0.4885450000000  0.4736930000000 1.0
C      1  0.4530870000000  0.4937420000000  0.5259660000000 1.0
C      1  0.4712120000000  0.5021380000000  0.5090370000000 1.0
C      1  0.4949360000000  0.4979570000000  0.4607250000000 1.0
C      1  0.5209550000000  0.5203430000000  0.5140420000000 1.0
C      1  0.5227170000000  0.5164920000000  0.5400690000000 1.0
C      1  0.5049530000000  0.4659330000000  0.4875250000000 1.0
C      1  0.4906120000000  0.5245160000000  0.5162500000000 1.0
END
