TITL C-2441169-1362-517 0.0926889925489344 125000 -26061.8475614233 0 0 181 (C1) n - 1
REM
REM in /home/bkarasulu/work/CARBON/AIRSS/Generating-Clusters/ReaxFF-fromJPCA2015/Units_Real/with-SteepDescent/Higher-Symm
REM
REM
REM
REM
REM
REM ./C.cell (1df0a924f5614ab8850e4351716899ee)
REM
REM compiler GCC version 9.2.1 20190827 (Red Hat 9.2.1-1)
REM options -cpp -mtune=generic -march=x86-64 -g -O0 -fpre-include=/usr/include/finclude/math-vector-fortran.h
REM seed -1425612910 -1600984795 2075856274 -369156316 1644975514 -1264890103 -2015317371 -511027939 38079356 -1804376823 -562058659 1134109905 962966846 1017972506 -472379831 -1132475449 -1834044052 1517969394 -2040037275 1101226340 1793752654 927862238 1210488278 359281804 1783986760 -2056182193 -1643324999 1581471648 -2137450683 -1512706829 989742193 315118872 -25942587
REM
CELL 1.54180   50.00000   50.00000   50.00000   90.00000   90.00000   90.00000
LATT -1
SFAC C  
C      1  0.5937080000000  0.5269510000000  0.4739870000000 1.0
C      1  0.5927390000000  0.4720890000000  0.5229320000000 1.0
C      1  0.5705690000000  0.5312890000000  0.5706380000000 1.0
C      1  0.5272840000000  0.4727840000000  0.5952950000000 1.0
C      1  0.4748480000000  0.5274960000000  0.5930160000000 1.0
C      1  0.4305870000000  0.4702330000000  0.5700860000000 1.0
C      1  0.3991510000000  0.5271230000000  0.5282840000000 1.0
C      1  0.4014400000000  0.4685270000000  0.4753560000000 1.0
C      1  0.4284930000000  0.5310030000000  0.4324430000000 1.0
C      1  0.4731500000000  0.4747790000000  0.4106590000000 1.0
C      1  0.5237400000000  0.5288770000000  0.4055990000000 1.0
C      1  0.5697750000000  0.4726160000000  0.4286320000000 1.0
C      1  0.4930820000000  0.4375610000000  0.4204010000000 1.0
C      1  0.5358020000000  0.5696080000000  0.4164710000000 1.0
C      1  0.5720670000000  0.4304070000000  0.4466220000000 1.0
C      1  0.5844180000000  0.5664070000000  0.4930290000000 1.0
C      1  0.5818950000000  0.4306140000000  0.5359010000000 1.0
C      1  0.5524800000000  0.5711130000000  0.5721370000000 1.0
C      1  0.5087420000000  0.4341270000000  0.5848590000000 1.0
C      1  0.4639230000000  0.5652620000000  0.5713540000000 1.0
C      1  0.4317980000000  0.4343940000000  0.5472900000000 1.0
C      1  0.4205870000000  0.5559200000000  0.5112040000000 1.0
C      1  0.4314070000000  0.4367740000000  0.4672760000000 1.0
C      1  0.4461610000000  0.5723360000000  0.4337530000000 1.0
C      1  0.4730290000000  0.3865890000000  0.4933410000000 1.0
C      1  0.4879160000000  0.6257080000000  0.4755970000000 1.0
C      1  0.4937080000000  0.3862080000000  0.4731410000000 1.0
C      1  0.5153950000000  0.6181430000000  0.4693010000000 1.0
C      1  0.5216380000000  0.3867760000000  0.4805090000000 1.0
C      1  0.5319030000000  0.6158050000000  0.4925340000000 1.0
C      1  0.5290450000000  0.3874640000000  0.5089870000000 1.0
C      1  0.5224660000000  0.6142040000000  0.5198730000000 1.0
C      1  0.5079630000000  0.3877360000000  0.5295320000000 1.0
C      1  0.4940450000000  0.6157150000000  0.5266580000000 1.0
C      1  0.4803820000000  0.3877840000000  0.5213680000000 1.0
C      1  0.4779620000000  0.6231650000000  0.5034490000000 1.0
C      1  0.4875110000000  0.4319160000000  0.4689960000000 1.0
C      1  0.5023860000000  0.5650930000000  0.4681790000000 1.0
C      1  0.5160570000000  0.4328410000000  0.4713990000000 1.0
C      1  0.5359910000000  0.5734360000000  0.4870590000000 1.0
C      1  0.5401470000000  0.4366080000000  0.5108870000000 1.0
C      1  0.5379050000000  0.5516340000000  0.5216920000000 1.0
C      1  0.5207250000000  0.4340150000000  0.5316510000000 1.0
C      1  0.4976750000000  0.5643590000000  0.5255090000000 1.0
C      1  0.4737920000000  0.4339410000000  0.5271320000000 1.0
C      1  0.4702150000000  0.5646220000000  0.5158130000000 1.0
C      1  0.4643780000000  0.4482940000000  0.5046480000000 1.0
C      1  0.4519990000000  0.5571180000000  0.4774190000000 1.0
C      1  0.5879290000000  0.4563330000000  0.5473180000000 1.0
C      1  0.5512600000000  0.5461340000000  0.5868810000000 1.0
C      1  0.5019960000000  0.4578780000000  0.5999610000000 1.0
C      1  0.4507640000000  0.5418930000000  0.5847240000000 1.0
C      1  0.4124740000000  0.4556460000000  0.5528890000000 1.0
C      1  0.3966810000000  0.5424930000000  0.5031420000000 1.0
C      1  0.4125420000000  0.4547950000000  0.4514600000000 1.0
C      1  0.4484720000000  0.5475430000000  0.4183990000000 1.0
C      1  0.4976900000000  0.4612500000000  0.4018580000000 1.0
C      1  0.5483870000000  0.5443020000000  0.4102740000000 1.0
C      1  0.5861410000000  0.4558180000000  0.4467440000000 1.0
C      1  0.5990940000000  0.5405540000000  0.4991690000000 1.0
C      1  0.4961710000000  0.4437310000000  0.5413250000000 1.0
C      1  0.4759470000000  0.5487710000000  0.5391030000000 1.0
C      1  0.4523120000000  0.4529310000000  0.5296450000000 1.0
C      1  0.4489320000000  0.5483910000000  0.5041340000000 1.0
C      1  0.4641050000000  0.4484280000000  0.4763320000000 1.0
C      1  0.4782040000000  0.5529330000000  0.4645980000000 1.0
C      1  0.5036000000000  0.4509540000000  0.4537910000000 1.0
C      1  0.5271670000000  0.5526960000000  0.4688890000000 1.0
C      1  0.5389870000000  0.4436530000000  0.4834370000000 1.0
C      1  0.5532380000000  0.5561720000000  0.5013970000000 1.0
C      1  0.5348530000000  0.4583630000000  0.5278070000000 1.0
C      1  0.5173080000000  0.5462040000000  0.5386980000000 1.0
C      1  0.4483650000000  0.4592410000000  0.4147070000000 1.0
C      1  0.4979690000000  0.5430160000000  0.4037010000000 1.0
C      1  0.5479560000000  0.4584540000000  0.4146270000000 1.0
C      1  0.5866020000000  0.5427240000000  0.4493420000000 1.0
C      1  0.5984040000000  0.4571770000000  0.4982530000000 1.0
C      1  0.5844870000000  0.5432660000000  0.5478100000000 1.0
C      1  0.5506850000000  0.4575150000000  0.5863690000000 1.0
C      1  0.4992450000000  0.5437950000000  0.5976630000000 1.0
C      1  0.4508680000000  0.4574750000000  0.5875230000000 1.0
C      1  0.4123330000000  0.5395290000000  0.5518220000000 1.0
C      1  0.3990750000000  0.4543570000000  0.5012500000000 1.0
C      1  0.4100940000000  0.5441110000000  0.4510960000000 1.0
C      1  0.5176140000000  0.4759480000000  0.4633520000000 1.0
C      1  0.5194120000000  0.5246610000000  0.4757240000000 1.0
C      1  0.5430690000000  0.4700550000000  0.4746950000000 1.0
C      1  0.5260090000000  0.5136620000000  0.5027740000000 1.0
C      1  0.5151930000000  0.4783600000000  0.5234160000000 1.0
C      1  0.5105570000000  0.5189730000000  0.5289870000000 1.0
C      1  0.4961420000000  0.4717600000000  0.5430470000000 1.0
C      1  0.4804450000000  0.5203450000000  0.5265850000000 1.0
C      1  0.4795100000000  0.4895210000000  0.4908400000000 1.0
C      1  0.4733570000000  0.5167140000000  0.4972910000000 1.0
C      1  0.4692850000000  0.4764110000000  0.4665540000000 1.0
C      1  0.4890550000000  0.5258760000000  0.4712850000000 1.0
C      1  0.4348420000000  0.5276680000000  0.5655550000000 1.0
C      1  0.4038060000000  0.4670280000000  0.5277910000000 1.0
C      1  0.4024030000000  0.5315540000000  0.4765220000000 1.0
C      1  0.4279720000000  0.4692690000000  0.4326660000000 1.0
C      1  0.4734780000000  0.5332240000000  0.4153020000000 1.0
C      1  0.5227960000000  0.4719600000000  0.4101250000000 1.0
C      1  0.5655360000000  0.5334460000000  0.4312550000000 1.0
C      1  0.5929950000000  0.4675180000000  0.4720340000000 1.0
C      1  0.5845750000000  0.5303400000000  0.5215750000000 1.0
C      1  0.5710050000000  0.4678950000000  0.5680280000000 1.0
C      1  0.5252730000000  0.5334630000000  0.5901200000000 1.0
C      1  0.4766510000000  0.4689320000000  0.5932000000000 1.0
C      1  0.5237090000000  0.5139690000000  0.4296930000000 1.0
C      1  0.5627760000000  0.4940050000000  0.4458140000000 1.0
C      1  0.5730890000000  0.5101280000000  0.4841500000000 1.0
C      1  0.5700300000000  0.4894810000000  0.5238330000000 1.0
C      1  0.5519070000000  0.5125860000000  0.5606430000000 1.0
C      1  0.5163900000000  0.4910080000000  0.5765790000000 1.0
C      1  0.4754280000000  0.5095170000000  0.5709480000000 1.0
C      1  0.4450070000000  0.4841260000000  0.5472740000000 1.0
C      1  0.4196120000000  0.5111180000000  0.5147760000000 1.0
C      1  0.4217650000000  0.4892520000000  0.4759960000000 1.0
C      1  0.4469880000000  0.5129340000000  0.4443670000000 1.0
C      1  0.4820350000000  0.4883070000000  0.4362600000000 1.0
C      1  0.5549300000000  0.5980790000000  0.4853720000000 1.0
C      1  0.5553150000000  0.3981290000000  0.5154810000000 1.0
C      1  0.5401950000000  0.6019300000000  0.5394300000000 1.0
C      1  0.5146930000000  0.3982690000000  0.5561980000000 1.0
C      1  0.4835500000000  0.6012190000000  0.5500100000000 1.0
C      1  0.4610130000000  0.4017710000000  0.5393150000000 1.0
C      1  0.4561250000000  0.6061430000000  0.4929870000000 1.0
C      1  0.4464170000000  0.3967850000000  0.4849630000000 1.0
C      1  0.4669840000000  0.6078810000000  0.4652530000000 1.0
C      1  0.4860570000000  0.4022630000000  0.4483120000000 1.0
C      1  0.5175470000000  0.6019320000000  0.4449070000000 1.0
C      1  0.5405260000000  0.3976980000000  0.4605630000000 1.0
C      1  0.5753450000000  0.5913840000000  0.5056310000000 1.0
C      1  0.5613480000000  0.4105090000000  0.5410360000000 1.0
C      1  0.5311250000000  0.5894630000000  0.5637740000000 1.0
C      1  0.4948730000000  0.4112810000000  0.5733480000000 1.0
C      1  0.4578880000000  0.5878950000000  0.5519650000000 1.0
C      1  0.4344930000000  0.4096680000000  0.5319950000000 1.0
C      1  0.4338500000000  0.5929610000000  0.5032070000000 1.0
C      1  0.4404330000000  0.4088740000000  0.4592270000000 1.0
C      1  0.4684520000000  0.5893320000000  0.4424100000000 1.0
C      1  0.5055130000000  0.4115590000000  0.4276590000000 1.0
C      1  0.5427130000000  0.5893380000000  0.4372240000000 1.0
C      1  0.5650860000000  0.4107980000000  0.4676400000000 1.0
C      1  0.4953540000000  0.5889120000000  0.4311540000000 1.0
C      1  0.5329990000000  0.4100790000000  0.4348310000000 1.0
C      1  0.5640900000000  0.5887930000000  0.4563770000000 1.0
C      1  0.5724520000000  0.4109960000000  0.4955750000000 1.0
C      1  0.5665660000000  0.5909450000000  0.5325390000000 1.0
C      1  0.5406540000000  0.4104350000000  0.5613580000000 1.0
C      1  0.5025890000000  0.5888990000000  0.5692930000000 1.0
C      1  0.4668660000000  0.4116050000000  0.5670040000000 1.0
C      1  0.4361690000000  0.5863790000000  0.5325780000000 1.0
C      1  0.4280440000000  0.4089710000000  0.5043340000000 1.0
C      1  0.4313510000000  0.5767380000000  0.4786020000000 1.0
C      1  0.4587800000000  0.4109700000000  0.4374150000000 1.0
C      1  0.5458500000000  0.5171200000000  0.4461580000000 1.0
C      1  0.5683640000000  0.4855440000000  0.4720090000000 1.0
C      1  0.5621790000000  0.5128350000000  0.5094930000000 1.0
C      1  0.5605900000000  0.4878930000000  0.5496970000000 1.0
C      1  0.5241820000000  0.5159390000000  0.5658740000000 1.0
C      1  0.4897490000000  0.4854030000000  0.5697190000000 1.0
C      1  0.4561320000000  0.5105460000000  0.5518040000000 1.0
C      1  0.4251630000000  0.4862890000000  0.5269670000000 1.0
C      1  0.4191470000000  0.5123210000000  0.4875310000000 1.0
C      1  0.4405030000000  0.4878750000000  0.4551230000000 1.0
C      1  0.4741030000000  0.5160450000000  0.4397550000000 1.0
C      1  0.5120950000000  0.4894220000000  0.4341590000000 1.0
C      1  0.4483550000000  0.4322470000000  0.5735320000000 1.0
C      1  0.4163240000000  0.5657060000000  0.5384950000000 1.0
C      1  0.4142830000000  0.4317990000000  0.4921310000000 1.0
C      1  0.4225020000000  0.5705580000000  0.4513800000000 1.0
C      1  0.4629370000000  0.4342250000000  0.4205380000000 1.0
C      1  0.5070100000000  0.5690790000000  0.4131270000000 1.0
C      1  0.5511830000000  0.4317650000000  0.4269810000000 1.0
C      1  0.5827740000000  0.5685950000000  0.4613570000000 1.0
C      1  0.5885330000000  0.4314750000000  0.5078550000000 1.0
C      1  0.5732050000000  0.5699830000000  0.5519210000000 1.0
C      1  0.5369810000000  0.4327020000000  0.5799550000000 1.0
C      1  0.4900980000000  0.5685330000000  0.5853210000000 1.0
C      1  0.5094920000000  0.4878790000000  0.4957790000000 1.0
END
