TITL C-2441160-1326-1261 0.032281613857767 125000 -10283.7030798721 0 0 77 (C1) n - 1
REM
REM in /home/bkarasulu/work/CARBON/AIRSS/Generating-Clusters/ReaxFF-fromJPCA2015/Units_Real/with-SteepDescent/Higher-Symm
REM
REM
REM
REM
REM
REM ./C.cell (1df0a924f5614ab8850e4351716899ee)
REM
REM compiler GCC version 9.2.1 20190827 (Red Hat 9.2.1-1)
REM options -cpp -mtune=generic -march=x86-64 -g -O0 -fpre-include=/usr/include/finclude/math-vector-fortran.h
REM seed -1110616643 478043371 -2031049050 2099817921 -2135096913 1482088153 787951717 1560722053 -1973671368 1900592399 -1499410775 -450288367 1409911982 -1234667415 1045110128 375590782 1480556486 1537277636 -1673246680 -1547255264 291843976 1148123624 -496803929 -67320668 -1379141242 -2115013678 -1912023722 -2011629917 1326659293 638393233 1225079650 1217982380 1989197527
REM
CELL 1.54180   50.00000   50.00000   50.00000   90.00000   90.00000   90.00000
LATT -1
SFAC C  
C      1  0.5063640000000  0.5488820000000  0.5345070000000 1.0
C      1  0.5293650000000  0.5501520000000  0.5167840000000 1.0
C      1  0.5232050000000  0.5509610000000  0.4786910000000 1.0
C      1  0.4826420000000  0.5544490000000  0.4679550000000 1.0
C      1  0.4654930000000  0.5527920000000  0.5065870000000 1.0
C      1  0.4799360000000  0.5232580000000  0.4303520000000 1.0
C      1  0.4267710000000  0.5231300000000  0.4952300000000 1.0
C      1  0.4746870000000  0.5222540000000  0.5667300000000 1.0
C      1  0.5552600000000  0.5216880000000  0.5467080000000 1.0
C      1  0.5600550000000  0.5224960000000  0.4621680000000 1.0
C      1  0.5359630000000  0.4328140000000  0.4590940000000 1.0
C      1  0.4711110000000  0.4320300000000  0.4546140000000 1.0
C      1  0.4463180000000  0.4319650000000  0.5137620000000 1.0
C      1  0.4967470000000  0.4324660000000  0.5558190000000 1.0
C      1  0.5506010000000  0.4329490000000  0.5198970000000 1.0
C      1  0.5533780000000  0.4573030000000  0.4594450000000 1.0
C      1  0.4766170000000  0.4573790000000  0.4384750000000 1.0
C      1  0.4331380000000  0.4571840000000  0.5039860000000 1.0
C      1  0.4826710000000  0.4574130000000  0.5655850000000 1.0
C      1  0.5555010000000  0.4580560000000  0.5366320000000 1.0
C      1  0.4590300000000  0.4754700000000  0.5621550000000 1.0
C      1  0.5450350000000  0.4756990000000  0.5582300000000 1.0
C      1  0.5696580000000  0.4767880000000  0.4763240000000 1.0
C      1  0.4971020000000  0.4748190000000  0.4260590000000 1.0
C      1  0.4293940000000  0.4755740000000  0.4801330000000 1.0
C      1  0.5750260000000  0.5264190000000  0.4993850000000 1.0
C      1  0.5282250000000  0.5189110000000  0.4260440000000 1.0
C      1  0.4361630000000  0.5181170000000  0.4555090000000 1.0
C      1  0.4400680000000  0.5256050000000  0.5461850000000 1.0
C      1  0.5251880000000  0.5243200000000  0.5739200000000 1.0
C      1  0.4500870000000  0.5489020000000  0.5311100000000 1.0
C      1  0.5152500000000  0.5497640000000  0.5617470000000 1.0
C      1  0.5588960000000  0.5491110000000  0.5089450000000 1.0
C      1  0.5232170000000  0.5510930000000  0.4498030000000 1.0
C      1  0.4541880000000  0.5506540000000  0.4633530000000 1.0
C      1  0.5689280000000  0.4938890000000  0.5006270000000 1.0
C      1  0.5225280000000  0.4905780000000  0.4333050000000 1.0
C      1  0.4408560000000  0.4905170000000  0.4583230000000 1.0
C      1  0.4453230000000  0.4927770000000  0.5411770000000 1.0
C      1  0.5213980000000  0.4933180000000  0.5658470000000 1.0
C      1  0.4968840000000  0.4803400000000  0.5772560000000 1.0
C      1  0.5717210000000  0.4804600000000  0.5273300000000 1.0
C      1  0.5497630000000  0.4787990000000  0.4404760000000 1.0
C      1  0.4580680000000  0.4801300000000  0.4376980000000 1.0
C      1  0.4269910000000  0.4801230000000  0.5210180000000 1.0
C      1  0.4984580000000  0.5336860000000  0.5799840000000 1.0
C      1  0.5747390000000  0.5339200000000  0.5276740000000 1.0
C      1  0.5464560000000  0.5358670000000  0.4392380000000 1.0
C      1  0.4537730000000  0.5334370000000  0.4389270000000 1.0
C      1  0.4255530000000  0.5344690000000  0.5230250000000 1.0
C      1  0.4743640000000  0.5063170000000  0.4817160000000 1.0
C      1  0.4687670000000  0.5021820000000  0.5247930000000 1.0
C      1  0.5110790000000  0.5040610000000  0.5387980000000 1.0
C      1  0.5401850000000  0.5052720000000  0.5025890000000 1.0
C      1  0.5145450000000  0.5039080000000  0.4619230000000 1.0
C      1  0.4844430000000  0.4366500000000  0.4805570000000 1.0
C      1  0.4753090000000  0.4391800000000  0.5099040000000 1.0
C      1  0.5013390000000  0.4383240000000  0.5268480000000 1.0
C      1  0.5239750000000  0.4351570000000  0.5076080000000 1.0
C      1  0.5148360000000  0.4424230000000  0.4785920000000 1.0
C      1  0.4534810000000  0.5318660000000  0.4891770000000 1.0
C      1  0.4862610000000  0.5217000000000  0.5391530000000 1.0
C      1  0.5332230000000  0.5203380000000  0.5273700000000 1.0
C      1  0.5349490000000  0.5219580000000  0.4777690000000 1.0
C      1  0.4983130000000  0.5331720000000  0.4508250000000 1.0
C      1  0.5631510000000  0.4954210000000  0.5499990000000 1.0
C      1  0.5662910000000  0.4956430000000  0.4559510000000 1.0
C      1  0.4781200000000  0.4958130000000  0.4252560000000 1.0
C      1  0.4216010000000  0.4955750000000  0.4979140000000 1.0
C      1  0.4730140000000  0.4954910000000  0.5757490000000 1.0
C      1  0.5241020000000  0.4809060000000  0.5010690000000 1.0
C      1  0.5081590000000  0.4787300000000  0.4769370000000 1.0
C      1  0.4801840000000  0.4778050000000  0.4852590000000 1.0
C      1  0.4805610000000  0.4775020000000  0.5145260000000 1.0
C      1  0.5072040000000  0.4787330000000  0.5242150000000 1.0
C      1  0.4934270000000  0.5533070000000  0.4957840000000 1.0
C      1  0.4937650000000  0.5198260000000  0.4971890000000 1.0
END
