TITL C-2441168-9922-545 0.0758959081194453 125000 -23510.9047723999 0 0 170 (C1) n - 1
REM
REM in /home/bkarasulu/work/CARBON/AIRSS/Generating-Clusters/ReaxFF-fromJPCA2015/Units_Real/with-SteepDescent/Higher-Symm
REM
REM
REM
REM
REM
REM ./C.cell (1df0a924f5614ab8850e4351716899ee)
REM
REM compiler GCC version 9.2.1 20190827 (Red Hat 9.2.1-1)
REM options -cpp -mtune=generic -march=x86-64 -g -O0 -fpre-include=/usr/include/finclude/math-vector-fortran.h
REM seed 9803606 1174319444 -1032088146 2107870696 1090988974 769722857 1582306490 1287372385 1066909681 2006437971 1375359042 -1192922242 -739056901 1030605160 -1383646560 -1212194222 -892184433 -302657527 -337471653 449978065 272945905 322396275 -1981424381 1719165784 1653575086 28117426 -1893375411 654480432 1851465370 1860609020 -178858565 1845855085 -371343612
REM
CELL 1.54180   50.00000   50.00000   50.00000   90.00000   90.00000   90.00000
LATT -1
SFAC C  
C      1  0.4245520000000  0.5704010000000  0.5072560000000 1.0
C      1  0.4964560000000  0.5295600000000  0.5509370000000 1.0
C      1  0.5430490000000  0.5387890000000  0.5396910000000 1.0
C      1  0.4779590000000  0.5501930000000  0.4391520000000 1.0
C      1  0.5898730000000  0.5103490000000  0.5503880000000 1.0
C      1  0.5912180000000  0.4507400000000  0.5036630000000 1.0
C      1  0.5230730000000  0.4908830000000  0.5987960000000 1.0
C      1  0.4450770000000  0.5012660000000  0.5162070000000 1.0
C      1  0.4628510000000  0.5325250000000  0.5850370000000 1.0
C      1  0.4206610000000  0.5134960000000  0.5577070000000 1.0
C      1  0.5383780000000  0.5641980000000  0.4194540000000 1.0
C      1  0.4890500000000  0.4136770000000  0.5546670000000 1.0
C      1  0.5576970000000  0.5539300000000  0.5845120000000 1.0
C      1  0.4355000000000  0.5279610000000  0.5008570000000 1.0
C      1  0.5601660000000  0.5190310000000  0.4095220000000 1.0
C      1  0.5330210000000  0.4993640000000  0.4847910000000 1.0
C      1  0.4968160000000  0.5289120000000  0.4815810000000 1.0
C      1  0.5731320000000  0.5595910000000  0.5600270000000 1.0
C      1  0.4468110000000  0.4611170000000  0.4849990000000 1.0
C      1  0.5825730000000  0.5056890000000  0.4241430000000 1.0
C      1  0.4387730000000  0.5769180000000  0.5316710000000 1.0
C      1  0.4599020000000  0.5860430000000  0.4612220000000 1.0
C      1  0.4398280000000  0.4678660000000  0.5975230000000 1.0
C      1  0.5896720000000  0.5494860000000  0.5188500000000 1.0
C      1  0.4297690000000  0.4836310000000  0.4795280000000 1.0
C      1  0.4898690000000  0.5847240000000  0.5596200000000 1.0
C      1  0.5440680000000  0.3983170000000  0.5308100000000 1.0
C      1  0.4698330000000  0.6076020000000  0.5010710000000 1.0
C      1  0.5411880000000  0.5235290000000  0.4472220000000 1.0
C      1  0.4882070000000  0.3958080000000  0.5315280000000 1.0
C      1  0.5375810000000  0.4258720000000  0.5419360000000 1.0
C      1  0.5076650000000  0.5170330000000  0.5259510000000 1.0
C      1  0.5909850000000  0.5393800000000  0.5476660000000 1.0
C      1  0.4577840000000  0.5492760000000  0.4950930000000 1.0
C      1  0.5232150000000  0.5450890000000  0.4533650000000 1.0
C      1  0.4400090000000  0.4371340000000  0.5581170000000 1.0
C      1  0.4077530000000  0.4768010000000  0.5055470000000 1.0
C      1  0.5304120000000  0.4806690000000  0.3935630000000 1.0
C      1  0.4684900000000  0.4926030000000  0.4532510000000 1.0
C      1  0.5249470000000  0.4548570000000  0.5052340000000 1.0
C      1  0.5765590000000  0.4928500000000  0.5709790000000 1.0
C      1  0.5542680000000  0.5168920000000  0.4743360000000 1.0
C      1  0.3933860000000  0.5021440000000  0.5154910000000 1.0
C      1  0.4922730000000  0.4629930000000  0.4166330000000 1.0
C      1  0.5159330000000  0.4215530000000  0.4630720000000 1.0
C      1  0.5260720000000  0.5839820000000  0.4375060000000 1.0
C      1  0.5888510000000  0.5418880000000  0.4655490000000 1.0
C      1  0.4260670000000  0.5390170000000  0.4455710000000 1.0
C      1  0.4650280000000  0.4286960000000  0.4467490000000 1.0
C      1  0.5753470000000  0.4689810000000  0.5222280000000 1.0
C      1  0.4086350000000  0.4548230000000  0.4612100000000 1.0
C      1  0.5613350000000  0.5316320000000  0.5181560000000 1.0
C      1  0.5560300000000  0.5122150000000  0.5778410000000 1.0
C      1  0.4872870000000  0.5188070000000  0.5749860000000 1.0
C      1  0.5620160000000  0.4218700000000  0.4811920000000 1.0
C      1  0.5384740000000  0.4928440000000  0.5108800000000 1.0
C      1  0.5836160000000  0.4370810000000  0.5639580000000 1.0
C      1  0.5589670000000  0.5766130000000  0.5393500000000 1.0
C      1  0.4608680000000  0.5968810000000  0.5255540000000 1.0
C      1  0.5254670000000  0.4970690000000  0.5381870000000 1.0
C      1  0.4165060000000  0.4676470000000  0.5322610000000 1.0
C      1  0.5547090000000  0.4457850000000  0.4289900000000 1.0
C      1  0.4389210000000  0.5353810000000  0.5675180000000 1.0
C      1  0.5295380000000  0.4699190000000  0.5782690000000 1.0
C      1  0.5438370000000  0.4131570000000  0.4600480000000 1.0
C      1  0.5175190000000  0.4548050000000  0.4747130000000 1.0
C      1  0.5718190000000  0.5741360000000  0.4874420000000 1.0
C      1  0.5164620000000  0.3892950000000  0.5240220000000 1.0
C      1  0.4511430000000  0.5025430000000  0.4737850000000 1.0
C      1  0.5684570000000  0.5638980000000  0.4618490000000 1.0
C      1  0.5061490000000  0.4662370000000  0.3958900000000 1.0
C      1  0.5258770000000  0.5770460000000  0.4939360000000 1.0
C      1  0.4966810000000  0.5019540000000  0.4514080000000 1.0
C      1  0.4694240000000  0.4662620000000  0.4659350000000 1.0
C      1  0.4273070000000  0.5206800000000  0.4232450000000 1.0
C      1  0.5593030000000  0.4690900000000  0.5712720000000 1.0
C      1  0.5977140000000  0.5089450000000  0.5004470000000 1.0
C      1  0.3958140000000  0.5127380000000  0.4711310000000 1.0
C      1  0.5141920000000  0.5726840000000  0.5659520000000 1.0
C      1  0.5096010000000  0.5566840000000  0.5890140000000 1.0
C      1  0.4539860000000  0.4739820000000  0.5108250000000 1.0
C      1  0.4971140000000  0.5514180000000  0.4626750000000 1.0
C      1  0.4534940000000  0.5428270000000  0.4505540000000 1.0
C      1  0.4428980000000  0.5717280000000  0.4836670000000 1.0
C      1  0.4548310000000  0.4278260000000  0.4772090000000 1.0
C      1  0.4805250000000  0.5524360000000  0.5133820000000 1.0
C      1  0.4269690000000  0.4756200000000  0.4200020000000 1.0
C      1  0.4927880000000  0.4595100000000  0.4711900000000 1.0
C      1  0.5560990000000  0.5412490000000  0.4287090000000 1.0
C      1  0.4969810000000  0.5033620000000  0.5968180000000 1.0
C      1  0.5814500000000  0.5008000000000  0.5241290000000 1.0
C      1  0.5226330000000  0.4861460000000  0.4615430000000 1.0
C      1  0.4667940000000  0.4613340000000  0.4071960000000 1.0
C      1  0.4724120000000  0.4919200000000  0.6049600000000 1.0
C      1  0.5400490000000  0.5138170000000  0.6022710000000 1.0
C      1  0.5669100000000  0.4621450000000  0.4506310000000 1.0
C      1  0.4901490000000  0.4366680000000  0.4349320000000 1.0
C      1  0.5964280000000  0.5203370000000  0.4459860000000 1.0
C      1  0.5012140000000  0.4704430000000  0.5189240000000 1.0
C      1  0.5169210000000  0.5338120000000  0.5014530000000 1.0
C      1  0.4219270000000  0.5257790000000  0.4722070000000 1.0
C      1  0.5303420000000  0.5668650000000  0.5408700000000 1.0
C      1  0.4783500000000  0.4286240000000  0.4963620000000 1.0
C      1  0.5242490000000  0.6058150000000  0.4959870000000 1.0
C      1  0.5635210000000  0.4493260000000  0.5483860000000 1.0
C      1  0.4910600000000  0.4974840000000  0.5103530000000 1.0
C      1  0.4799890000000  0.5553940000000  0.5912980000000 1.0
C      1  0.5460220000000  0.4835730000000  0.4433950000000 1.0
C      1  0.5506170000000  0.4684670000000  0.5074420000000 1.0
C      1  0.5409180000000  0.4211500000000  0.4326930000000 1.0
C      1  0.5443500000000  0.5393820000000  0.4959670000000 1.0
C      1  0.4877290000000  0.5123410000000  0.4021720000000 1.0
C      1  0.5345050000000  0.5431710000000  0.5986800000000 1.0
C      1  0.5123110000000  0.5540490000000  0.4120130000000 1.0
C      1  0.5181350000000  0.4076290000000  0.5015930000000 1.0
C      1  0.4243270000000  0.4512160000000  0.4364000000000 1.0
C      1  0.5864350000000  0.4245760000000  0.5138610000000 1.0
C      1  0.4744250000000  0.4583280000000  0.5239970000000 1.0
C      1  0.4497750000000  0.4938170000000  0.5866880000000 1.0
C      1  0.5645650000000  0.4076110000000  0.5108940000000 1.0
C      1  0.5754500000000  0.5772610000000  0.5151770000000 1.0
C      1  0.4787490000000  0.4685620000000  0.5517060000000 1.0
C      1  0.4501190000000  0.4419050000000  0.4265200000000 1.0
C      1  0.4054410000000  0.4866250000000  0.4582540000000 1.0
C      1  0.4503370000000  0.4847520000000  0.4062450000000 1.0
C      1  0.4867760000000  0.5840350000000  0.4717420000000 1.0
C      1  0.5401750000000  0.4687150000000  0.4190410000000 1.0
C      1  0.6005630000000  0.4944140000000  0.4601010000000 1.0
C      1  0.5776630000000  0.4446390000000  0.4786330000000 1.0
C      1  0.4716880000000  0.5809480000000  0.4342840000000 1.0
C      1  0.5146890000000  0.4250910000000  0.5623490000000 1.0
C      1  0.3881440000000  0.5231490000000  0.4967090000000 1.0
C      1  0.5078840000000  0.4745080000000  0.5479970000000 1.0
C      1  0.5354650000000  0.5096410000000  0.3967900000000 1.0
C      1  0.5878100000000  0.4801390000000  0.4379410000000 1.0
C      1  0.4437820000000  0.5623830000000  0.5571920000000 1.0
C      1  0.4540880000000  0.5147840000000  0.4081820000000 1.0
C      1  0.4096740000000  0.5412340000000  0.5125100000000 1.0
C      1  0.4982020000000  0.4127150000000  0.4827340000000 1.0
C      1  0.4278110000000  0.4597990000000  0.5723050000000 1.0
C      1  0.4422560000000  0.4090310000000  0.4974390000000 1.0
C      1  0.4617310000000  0.4908310000000  0.5598290000000 1.0
C      1  0.4977170000000  0.4953570000000  0.4235090000000 1.0
C      1  0.4039150000000  0.5212710000000  0.5355440000000 1.0
C      1  0.4264800000000  0.4402490000000  0.5323940000000 1.0
C      1  0.4670940000000  0.5725210000000  0.5721420000000 1.0
C      1  0.5362170000000  0.5690500000000  0.4626390000000 1.0
C      1  0.4940660000000  0.6081760000000  0.4863220000000 1.0
C      1  0.5800890000000  0.4996670000000  0.4797330000000 1.0
C      1  0.5379950000000  0.5164520000000  0.5558840000000 1.0
C      1  0.4998820000000  0.5793910000000  0.4246300000000 1.0
C      1  0.4678980000000  0.4627850000000  0.6064460000000 1.0
C      1  0.4192750000000  0.4832670000000  0.5564660000000 1.0
C      1  0.4079550000000  0.4485410000000  0.4890740000000 1.0
C      1  0.4830000000000  0.4453870000000  0.5882630000000 1.0
C      1  0.4665950000000  0.5260680000000  0.4332680000000 1.0
C      1  0.5117830000000  0.4453700000000  0.5820140000000 1.0
C      1  0.4212960000000  0.4283180000000  0.5059410000000 1.0
C      1  0.5121890000000  0.4191300000000  0.4343820000000 1.0
C      1  0.5046220000000  0.5709390000000  0.5163120000000 1.0
C      1  0.5987250000000  0.5368550000000  0.4926830000000 1.0
C      1  0.4676280000000  0.4062500000000  0.5126950000000 1.0
C      1  0.4142760000000  0.4972140000000  0.4314630000000 1.0
C      1  0.4583230000000  0.5112320000000  0.5389420000000 1.0
C      1  0.5115180000000  0.5278040000000  0.3978950000000 1.0
C      1  0.5258530000000  0.4306250000000  0.5155700000000 1.0
C      1  0.4890490000000  0.5912330000000  0.5329960000000 1.0
C      1  0.4682060000000  0.4316580000000  0.5662670000000 1.0
C      1  0.4739350000000  0.5367220000000  0.5360760000000 1.0
C      1  0.4764190000000  0.5093020000000  0.4897410000000 1.0
END
