TITL C-2441159-1093-296 2.93017077888216e-09 125000 -1832.05933582725 0 0 16 (T23) n - 1
REM
REM in /home/bkarasulu/work/CARBON/AIRSS/Generating-Clusters/ReaxFF-fromJPCA2015/Units_Real/with-SteepDescent/Higher-Symm
REM
REM
REM
REM
REM
REM ./C.cell (1df0a924f5614ab8850e4351716899ee)
REM
REM compiler GCC version 9.2.1 20190827 (Red Hat 9.2.1-1)
REM options -cpp -mtune=generic -march=x86-64 -g -O0 -fpre-include=/usr/include/finclude/math-vector-fortran.h
REM seed -15464279 311801767 1801264860 -1410973675 1753666908 77166531 -1803972079 -1493281165 -664832293 2047999927 483156853 112384831 1344531140 189774091 1610482849 -1644213872 1086979149 553757767 -1216950837 -1966506063 -419249959 1562038522 -205421789 411395943 1365126885 -303745020 -765136040 -3811666 15383313 1548358942 -403101144 1480556026 -523471240
REM
CELL 1.54180   50.00000   50.00000   50.00000   90.00000   90.00000   90.00000
LATT -1
SFAC C  
C      1  0.4890470000000  0.5283510000000  0.4839000000000 1.0
C      1  0.4809170000000  0.4906770000000  0.5297040000000 1.0
C      1  0.5267210000000  0.4825470000000  0.4920300000000 1.0
C      1  0.4890470000000  0.4656830000000  0.5128400000000 1.0
C      1  0.5017270000000  0.4656830000000  0.4839000000000 1.0
C      1  0.5017270000000  0.5283510000000  0.5128400000000 1.0
C      1  0.4809170000000  0.5033570000000  0.4670360000000 1.0
C      1  0.5098570000000  0.5033570000000  0.5297040000000 1.0
C      1  0.5098570000000  0.4906770000000  0.4670360000000 1.0
C      1  0.5267210000000  0.5114870000000  0.5047100000000 1.0
C      1  0.4640530000000  0.5114870000000  0.4920300000000 1.0
C      1  0.4640530000000  0.4825470000000  0.5047100000000 1.0
C      1  0.5196570000000  0.5212870000000  0.4741010000000 1.0
C      1  0.4711170000000  0.5212870000000  0.5226400000000 1.0
C      1  0.4711170000000  0.4727470000000  0.4741010000000 1.0
C      1  0.5196570000000  0.4727470000000  0.5226400000000 1.0
END
