TITL C-2441166-8118-522 0.13666720290478 125000 -24915.5211380063 0 0 185 (C1) n - 1
REM
REM in /home/bkarasulu/work/CARBON/AIRSS/Generating-Clusters/ReaxFF-fromJPCA2015/Units_Real/with-SteepDescent/Higher-Symm
REM
REM
REM
REM
REM
REM ./C.cell (1df0a924f5614ab8850e4351716899ee)
REM
REM compiler GCC version 9.2.1 20190827 (Red Hat 9.2.1-1)
REM options -cpp -mtune=generic -march=x86-64 -g -O0 -fpre-include=/usr/include/finclude/math-vector-fortran.h
REM seed 1312770856 -1460508998 -102285679 1542269931 516923687 -1304355980 -837322366 -87073924 252229489 -1713131437 38665430 -70325633 762305898 -1510540700 -1755711260 1895302694 -1383391007 1781813019 725519728 -2066062183 -1290402416 1507931911 2046560168 -290007414 118865280 294420842 1448857654 746744329 -80368421 -1872044809 -1061745463 1739742330 413075141
REM
CELL 1.54180   50.00000   50.00000   50.00000   90.00000   90.00000   90.00000
LATT -1
SFAC C  
C      1  0.4372180000000  0.5746320000000  0.5466510000000 1.0
C      1  0.4914020000000  0.5747740000000  0.4176860000000 1.0
C      1  0.5754020000000  0.5736250000000  0.5339790000000 1.0
C      1  0.5598670000000  0.4221240000000  0.5453510000000 1.0
C      1  0.5065670000000  0.4254410000000  0.4202540000000 1.0
C      1  0.4273040000000  0.4215720000000  0.5275830000000 1.0
C      1  0.5518610000000  0.4908050000000  0.5227690000000 1.0
C      1  0.4501870000000  0.4869480000000  0.5372600000000 1.0
C      1  0.4892080000000  0.4884470000000  0.4393500000000 1.0
C      1  0.4440580000000  0.5117670000000  0.5226190000000 1.0
C      1  0.5494640000000  0.5153070000000  0.5370290000000 1.0
C      1  0.5069050000000  0.5120240000000  0.4365400000000 1.0
C      1  0.5579980000000  0.5461880000000  0.4768250000000 1.0
C      1  0.4915710000000  0.5455770000000  0.5638320000000 1.0
C      1  0.4519460000000  0.5463130000000  0.4630620000000 1.0
C      1  0.4418750000000  0.4551650000000  0.4757000000000 1.0
C      1  0.5141120000000  0.4553630000000  0.5636420000000 1.0
C      1  0.5480620000000  0.4528910000000  0.4622450000000 1.0
C      1  0.5361760000000  0.4340950000000  0.4184410000000 1.0
C      1  0.5531140000000  0.4350510000000  0.5735810000000 1.0
C      1  0.4096200000000  0.4359270000000  0.5073910000000 1.0
C      1  0.4627150000000  0.5642930000000  0.4180030000000 1.0
C      1  0.4479770000000  0.5645820000000  0.5742160000000 1.0
C      1  0.5887590000000  0.5639720000000  0.5093890000000 1.0
C      1  0.4597490000000  0.4465660000000  0.4969590000000 1.0
C      1  0.5224870000000  0.4413830000000  0.4654970000000 1.0
C      1  0.5185800000000  0.4451250000000  0.5349520000000 1.0
C      1  0.5395250000000  0.5558150000000  0.4971120000000 1.0
C      1  0.4783730000000  0.5565890000000  0.4646480000000 1.0
C      1  0.4812720000000  0.5523090000000  0.5355080000000 1.0
C      1  0.5300200000000  0.5341430000000  0.5227110000000 1.0
C      1  0.4640670000000  0.5331610000000  0.5163060000000 1.0
C      1  0.5043480000000  0.5344570000000  0.4583170000000 1.0
C      1  0.4702710000000  0.4647280000000  0.5225580000000 1.0
C      1  0.5273190000000  0.4602050000000  0.5113710000000 1.0
C      1  0.4934010000000  0.4657020000000  0.4580950000000 1.0
C      1  0.4487500000000  0.4203670000000  0.5055970000000 1.0
C      1  0.5222200000000  0.4146090000000  0.4567930000000 1.0
C      1  0.5318410000000  0.4190830000000  0.5371970000000 1.0
C      1  0.5447470000000  0.5860290000000  0.5016470000000 1.0
C      1  0.4778430000000  0.5854250000000  0.4563350000000 1.0
C      1  0.4664990000000  0.5792750000000  0.5393470000000 1.0
C      1  0.4797600000000  0.4864910000000  0.5042970000000 1.0
C      1  0.5058340000000  0.4853560000000  0.4761370000000 1.0
C      1  0.5227620000000  0.4879110000000  0.5150680000000 1.0
C      1  0.5204260000000  0.5144460000000  0.5000730000000 1.0
C      1  0.4976200000000  0.5135200000000  0.4785880000000 1.0
C      1  0.4831600000000  0.5122370000000  0.5168930000000 1.0
C      1  0.4865140000000  0.5025080000000  0.3932540000000 1.0
C      1  0.5985710000000  0.5026290000000  0.5423700000000 1.0
C      1  0.4144440000000  0.5028550000000  0.5653580000000 1.0
C      1  0.5136210000000  0.4961440000000  0.3921410000000 1.0
C      1  0.4016060000000  0.4967630000000  0.5417920000000 1.0
C      1  0.5856270000000  0.4966810000000  0.5662650000000 1.0
C      1  0.5015230000000  0.4732420000000  0.6088760000000 1.0
C      1  0.4041730000000  0.4728630000000  0.4461830000000 1.0
C      1  0.5936390000000  0.4719970000000  0.4454510000000 1.0
C      1  0.4995860000000  0.5268520000000  0.6111790000000 1.0
C      1  0.5953920000000  0.5271670000000  0.4473410000000 1.0
C      1  0.4058710000000  0.5265270000000  0.4445680000000 1.0
C      1  0.5247760000000  0.5372940000000  0.6039300000000 1.0
C      1  0.4008940000000  0.5343520000000  0.4716520000000 1.0
C      1  0.5738230000000  0.5359900000000  0.4313400000000 1.0
C      1  0.4753040000000  0.4640660000000  0.6021210000000 1.0
C      1  0.5967330000000  0.4647770000000  0.4729400000000 1.0
C      1  0.4257800000000  0.4647400000000  0.4290830000000 1.0
C      1  0.5075200000000  0.6053090000000  0.5323770000000 1.0
C      1  0.4633010000000  0.6031730000000  0.4734590000000 1.0
C      1  0.5314650000000  0.6038400000000  0.4834310000000 1.0
C      1  0.4909280000000  0.3946520000000  0.5363600000000 1.0
C      1  0.5404170000000  0.3980330000000  0.4716160000000 1.0
C      1  0.4627830000000  0.4013060000000  0.4908560000000 1.0
C      1  0.4429070000000  0.5565070000000  0.4369050000000 1.0
C      1  0.5843730000000  0.5593200000000  0.4808490000000 1.0
C      1  0.4746180000000  0.5584070000000  0.5841680000000 1.0
C      1  0.5572710000000  0.4417280000000  0.4360240000000 1.0
C      1  0.4154540000000  0.4419060000000  0.4797890000000 1.0
C      1  0.5271460000000  0.4403440000000  0.5842930000000 1.0
C      1  0.5596150000000  0.5092420000000  0.4351200000000 1.0
C      1  0.5256280000000  0.5050130000000  0.5793340000000 1.0
C      1  0.4137010000000  0.5083320000000  0.4805310000000 1.0
C      1  0.4393500000000  0.4911820000000  0.4362420000000 1.0
C      1  0.4746410000000  0.4906930000000  0.5829160000000 1.0
C      1  0.5847670000000  0.4905790000000  0.4815080000000 1.0
C      1  0.5345440000000  0.4858330000000  0.4672480000000 1.0
C      1  0.5101480000000  0.4934320000000  0.5393030000000 1.0
C      1  0.4569280000000  0.4888460000000  0.4852850000000 1.0
C      1  0.4661990000000  0.5140460000000  0.4712210000000 1.0
C      1  0.4908320000000  0.5129340000000  0.5440300000000 1.0
C      1  0.5438860000000  0.5122800000000  0.4824680000000 1.0
C      1  0.4655060000000  0.4456250000000  0.5824970000000 1.0
C      1  0.4469180000000  0.4450680000000  0.4275410000000 1.0
C      1  0.5891480000000  0.4452180000000  0.4920390000000 1.0
C      1  0.5363220000000  0.5545050000000  0.5844500000000 1.0
C      1  0.5537780000000  0.5555810000000  0.4268120000000 1.0
C      1  0.4105580000000  0.5533120000000  0.4913030000000 1.0
C      1  0.4495380000000  0.5230030000000  0.6015350000000 1.0
C      1  0.4380200000000  0.5235640000000  0.4054490000000 1.0
C      1  0.6108480000000  0.5235150000000  0.4950920000000 1.0
C      1  0.5503560000000  0.4768940000000  0.6018810000000 1.0
C      1  0.5626820000000  0.4743680000000  0.4053080000000 1.0
C      1  0.3862560000000  0.4758720000000  0.4938260000000 1.0
C      1  0.5286280000000  0.4854320000000  0.5587150000000 1.0
C      1  0.4345520000000  0.4999270000000  0.4988140000000 1.0
C      1  0.5322910000000  0.4997850000000  0.4420150000000 1.0
C      1  0.4684530000000  0.4982930000000  0.5557030000000 1.0
C      1  0.5638120000000  0.5004180000000  0.4986960000000 1.0
C      1  0.4651670000000  0.5017380000000  0.4453630000000 1.0
C      1  0.5118960000000  0.4437560000000  0.4928460000000 1.0
C      1  0.4900680000000  0.4432090000000  0.5274130000000 1.0
C      1  0.4848010000000  0.4447880000000  0.4798300000000 1.0
C      1  0.4889270000000  0.5573240000000  0.4933440000000 1.0
C      1  0.5097530000000  0.5553440000000  0.5278870000000 1.0
C      1  0.5159060000000  0.5535870000000  0.4794770000000 1.0
C      1  0.4709400000000  0.4177930000000  0.4647550000000 1.0
C      1  0.5536760000000  0.4142270000000  0.4922170000000 1.0
C      1  0.4809380000000  0.4213940000000  0.5450780000000 1.0
C      1  0.5271710000000  0.5798080000000  0.4606800000000 1.0
C      1  0.4458820000000  0.5870090000000  0.4923520000000 1.0
C      1  0.5204970000000  0.5777060000000  0.5441360000000 1.0
C      1  0.4388550000000  0.4566470000000  0.5714080000000 1.0
C      1  0.4679540000000  0.4572260000000  0.4103360000000 1.0
C      1  0.5919030000000  0.4573730000000  0.5186780000000 1.0
C      1  0.5626590000000  0.5433060000000  0.5745160000000 1.0
C      1  0.5328330000000  0.5425190000000  0.4096460000000 1.0
C      1  0.4068090000000  0.5421550000000  0.5185470000000 1.0
C      1  0.4497670000000  0.4161050000000  0.5468200000000 1.0
C      1  0.4870780000000  0.4125620000000  0.4382100000000 1.0
C      1  0.5666430000000  0.4181870000000  0.5169650000000 1.0
C      1  0.5499330000000  0.5798850000000  0.5422840000000 1.0
C      1  0.5121780000000  0.5810800000000  0.4354030000000 1.0
C      1  0.4344730000000  0.5919200000000  0.5183430000000 1.0
C      1  0.4615610000000  0.5393360000000  0.4039650000000 1.0
C      1  0.5967500000000  0.5374140000000  0.5150680000000 1.0
C      1  0.4359210000000  0.5403090000000  0.5834880000000 1.0
C      1  0.5398120000000  0.4577490000000  0.4024610000000 1.0
C      1  0.3970580000000  0.4600110000000  0.5145470000000 1.0
C      1  0.5642840000000  0.4590180000000  0.5836860000000 1.0
C      1  0.4896870000000  0.4384620000000  0.5689350000000 1.0
C      1  0.4478610000000  0.4349360000000  0.4547530000000 1.0
C      1  0.5638030000000  0.4376470000000  0.4816360000000 1.0
C      1  0.5128830000000  0.5642920000000  0.5696360000000 1.0
C      1  0.5532560000000  0.5650020000000  0.4542640000000 1.0
C      1  0.4361400000000  0.5617200000000  0.4816690000000 1.0
C      1  0.5349080000000  0.5157570000000  0.3982280000000 1.0
C      1  0.5696930000000  0.5163990000000  0.5814470000000 1.0
C      1  0.3945450000000  0.5157830000000  0.5212190000000 1.0
C      1  0.4649210000000  0.4835740000000  0.3984830000000 1.0
C      1  0.4301350000000  0.4832780000000  0.5800710000000 1.0
C      1  0.6048590000000  0.4836550000000  0.5215000000000 1.0
C      1  0.5779330000000  0.5516210000000  0.5521440000000 1.0
C      1  0.4210830000000  0.5490650000000  0.5415570000000 1.0
C      1  0.5055810000000  0.5502180000000  0.4081220000000 1.0
C      1  0.4259090000000  0.4491160000000  0.5480030000000 1.0
C      1  0.5771130000000  0.4504280000000  0.5411610000000 1.0
C      1  0.4953550000000  0.4501350000000  0.4089640000000 1.0
C      1  0.5150020000000  0.4686630000000  0.3988850000000 1.0
C      1  0.5785310000000  0.4691000000000  0.5626040000000 1.0
C      1  0.4129550000000  0.4715520000000  0.5345190000000 1.0
C      1  0.4865160000000  0.5278020000000  0.4056240000000 1.0
C      1  0.4208300000000  0.5304650000000  0.5631330000000 1.0
C      1  0.5809590000000  0.5260650000000  0.5366950000000 1.0
C      1  0.4229180000000  0.5391160000000  0.4251950000000 1.0
C      1  0.6041590000000  0.5397390000000  0.4716380000000 1.0
C      1  0.4734180000000  0.5385860000000  0.6060890000000 1.0
C      1  0.5778510000000  0.4592530000000  0.4250500000000 1.0
C      1  0.3949540000000  0.4607550000000  0.4703810000000 1.0
C      1  0.5269590000000  0.4605770000000  0.6059820000000 1.0
C      1  0.4498950000000  0.4950720000000  0.5965360000000 1.0
C      1  0.4410950000000  0.4956370000000  0.4077440000000 1.0
C      1  0.6087760000000  0.4954780000000  0.4963170000000 1.0
C      1  0.5481220000000  0.5052940000000  0.5962380000000 1.0
C      1  0.5580620000000  0.5020210000000  0.4074950000000 1.0
C      1  0.3898660000000  0.5037750000000  0.4958890000000 1.0
C      1  0.4923350000000  0.6029400000000  0.4751850000000 1.0
C      1  0.5281640000000  0.6088690000000  0.5123830000000 1.0
C      1  0.4807100000000  0.5994430000000  0.5236190000000 1.0
C      1  0.5121610000000  0.3939520000000  0.4727980000000 1.0
C      1  0.4803860000000  0.3876200000000  0.5094780000000 1.0
C      1  0.5173340000000  0.3976520000000  0.5249340000000 1.0
C      1  0.4144170000000  0.4996020000000  0.4509560000000 1.0
C      1  0.5846520000000  0.4993970000000  0.4511890000000 1.0
C      1  0.5013010000000  0.4999250000000  0.5949070000000 1.0
C      1  0.5051030000000  0.3952630000000  0.4987470000000 1.0
C      1  0.4916220000000  0.5859790000000  0.4996340000000 1.0
END
