TITL C-2441156-4686-1124 0.125981135179358 125000 -24171.9978269661 0 0 180 (C1) n - 1
REM
REM in /home/bkarasulu/work/CARBON/AIRSS/Generating-Clusters/ReaxFF-fromJPCA2015/Units_Real/with-SteepDescent/Higher-Symm
REM
REM
REM
REM
REM
REM ./C.cell (1df0a924f5614ab8850e4351716899ee)
REM
REM compiler GCC version 9.2.1 20190827 (Red Hat 9.2.1-1)
REM options -cpp -mtune=generic -march=x86-64 -g -O0 -fpre-include=/usr/include/finclude/math-vector-fortran.h
REM seed -65705726 1432121118 1496481237 1903856627 -595102367 1487760367 -523378069 -854658936 1528890361 1952867705 1320333608 -1853017567 -1976705465 -1869405030 -276590535 638355677 -1056617041 -116630565 166844241 -2025348475 -1772006381 1269870248 1619489974 1175718856 -1839737997 -962932059 -1197062636 -1803851214 1993863152 -2109877998 -674374343 1547772424 -1252862428
REM
CELL 1.54180   50.00000   50.00000   50.00000   90.00000   90.00000   90.00000
LATT -1
SFAC C  
C      1  0.4475630000000  0.4346360000000  0.4227410000000 1.0
C      1  0.5538860000000  0.5699830000000  0.4237980000000 1.0
C      1  0.5521850000000  0.4239000000000  0.4246040000000 1.0
C      1  0.4462320000000  0.5638770000000  0.4227670000000 1.0
C      1  0.5644210000000  0.5746750000000  0.5358170000000 1.0
C      1  0.4402880000000  0.4363000000000  0.5462970000000 1.0
C      1  0.4386620000000  0.5667070000000  0.5442810000000 1.0
C      1  0.5611070000000  0.4334940000000  0.5458580000000 1.0
C      1  0.4377490000000  0.5358930000000  0.5848350000000 1.0
C      1  0.5616820000000  0.4598100000000  0.5868300000000 1.0
C      1  0.5591050000000  0.5382010000000  0.5830130000000 1.0
C      1  0.4392350000000  0.4638640000000  0.5867860000000 1.0
C      1  0.5134570000000  0.5874010000000  0.5535090000000 1.0
C      1  0.4858540000000  0.4101480000000  0.5579380000000 1.0
C      1  0.4852470000000  0.5877290000000  0.5531930000000 1.0
C      1  0.5138160000000  0.4114520000000  0.5552010000000 1.0
C      1  0.4079480000000  0.4453400000000  0.5120710000000 1.0
C      1  0.5933610000000  0.5519920000000  0.5112280000000 1.0
C      1  0.5937350000000  0.4462740000000  0.5114380000000 1.0
C      1  0.4069830000000  0.5519580000000  0.5106810000000 1.0
C      1  0.5616780000000  0.5432240000000  0.4154570000000 1.0
C      1  0.4399900000000  0.4629980000000  0.4210060000000 1.0
C      1  0.4388440000000  0.5361540000000  0.4189390000000 1.0
C      1  0.5565710000000  0.4520720000000  0.4193250000000 1.0
C      1  0.5708600000000  0.4905710000000  0.4842770000000 1.0
C      1  0.4055670000000  0.5148780000000  0.4840300000000 1.0
C      1  0.4192060000000  0.4890240000000  0.4807630000000 1.0
C      1  0.5818530000000  0.5174010000000  0.4810650000000 1.0
C      1  0.4894820000000  0.5198820000000  0.4638230000000 1.0
C      1  0.5200900000000  0.4793420000000  0.4679040000000 1.0
C      1  0.5206460000000  0.5254460000000  0.4602820000000 1.0
C      1  0.4938120000000  0.4938520000000  0.4754030000000 1.0
C      1  0.5149460000000  0.5249920000000  0.5877340000000 1.0
C      1  0.4862140000000  0.4732940000000  0.5891970000000 1.0
C      1  0.4834460000000  0.5259640000000  0.5895570000000 1.0
C      1  0.5153750000000  0.4728320000000  0.5882820000000 1.0
C      1  0.5497790000000  0.5204700000000  0.4004470000000 1.0
C      1  0.4510510000000  0.4844680000000  0.4031530000000 1.0
C      1  0.4514030000000  0.5145090000000  0.4031130000000 1.0
C      1  0.5535330000000  0.4919940000000  0.4053770000000 1.0
C      1  0.4244440000000  0.4864190000000  0.5087450000000 1.0
C      1  0.5740900000000  0.5105530000000  0.5239230000000 1.0
C      1  0.5729660000000  0.4844630000000  0.5131390000000 1.0
C      1  0.4360150000000  0.5127150000000  0.5156630000000 1.0
C      1  0.5291560000000  0.5229190000000  0.5131300000000 1.0
C      1  0.4715020000000  0.4754500000000  0.5174230000000 1.0
C      1  0.4801130000000  0.5258510000000  0.5080290000000 1.0
C      1  0.5217300000000  0.4710080000000  0.5140110000000 1.0
C      1  0.5488540000000  0.6003160000000  0.4623290000000 1.0
C      1  0.4518230000000  0.4048460000000  0.4617120000000 1.0
C      1  0.4447850000000  0.5963730000000  0.4646280000000 1.0
C      1  0.5498590000000  0.4035090000000  0.4638400000000 1.0
C      1  0.5859060000000  0.4450470000000  0.5392350000000 1.0
C      1  0.4123740000000  0.5555510000000  0.5386600000000 1.0
C      1  0.4153690000000  0.4470280000000  0.5400040000000 1.0
C      1  0.5884230000000  0.5571230000000  0.5391610000000 1.0
C      1  0.4787670000000  0.4102050000000  0.4510440000000 1.0
C      1  0.5228060000000  0.5925880000000  0.4524080000000 1.0
C      1  0.5219370000000  0.4041470000000  0.4557640000000 1.0
C      1  0.4715540000000  0.5958580000000  0.4559080000000 1.0
C      1  0.5985020000000  0.5241830000000  0.5181300000000 1.0
C      1  0.3985360000000  0.4731210000000  0.5124810000000 1.0
C      1  0.3957170000000  0.5264150000000  0.5084790000000 1.0
C      1  0.6027620000000  0.4736990000000  0.5147230000000 1.0
C      1  0.5133100000000  0.4105310000000  0.4849720000000 1.0
C      1  0.4810710000000  0.5920200000000  0.4836520000000 1.0
C      1  0.4886240000000  0.4225540000000  0.4755970000000 1.0
C      1  0.5113440000000  0.5888130000000  0.4811250000000 1.0
C      1  0.4384840000000  0.5866830000000  0.4923070000000 1.0
C      1  0.5614860000000  0.4142550000000  0.4899560000000 1.0
C      1  0.5530410000000  0.5945660000000  0.4899870000000 1.0
C      1  0.4414710000000  0.4121440000000  0.4880970000000 1.0
C      1  0.5217810000000  0.4851340000000  0.4362270000000 1.0
C      1  0.4721850000000  0.5115400000000  0.4397040000000 1.0
C      1  0.4788990000000  0.4833820000000  0.4345370000000 1.0
C      1  0.5220810000000  0.5115580000000  0.4338690000000 1.0
C      1  0.5460480000000  0.5550390000000  0.5656280000000 1.0
C      1  0.4470010000000  0.4404180000000  0.5725170000000 1.0
C      1  0.4457600000000  0.5623760000000  0.5722470000000 1.0
C      1  0.5543690000000  0.4359810000000  0.5724890000000 1.0
C      1  0.5803870000000  0.5207460000000  0.5785250000000 1.0
C      1  0.4185700000000  0.4847970000000  0.5776540000000 1.0
C      1  0.4185500000000  0.5186510000000  0.5740880000000 1.0
C      1  0.5800250000000  0.4798770000000  0.5770470000000 1.0
C      1  0.4607740000000  0.5768870000000  0.5071030000000 1.0
C      1  0.5378450000000  0.4232530000000  0.5041410000000 1.0
C      1  0.5559030000000  0.5863740000000  0.5115420000000 1.0
C      1  0.4613660000000  0.4100930000000  0.5085730000000 1.0
C      1  0.4614960000000  0.5567690000000  0.5270100000000 1.0
C      1  0.5372890000000  0.4349150000000  0.5290480000000 1.0
C      1  0.5417910000000  0.5567790000000  0.5367830000000 1.0
C      1  0.4628680000000  0.4322890000000  0.5278290000000 1.0
C      1  0.4035270000000  0.5314760000000  0.5534690000000 1.0
C      1  0.5953060000000  0.4676990000000  0.5553190000000 1.0
C      1  0.5951940000000  0.5343300000000  0.5567770000000 1.0
C      1  0.4057860000000  0.4699730000000  0.5545130000000 1.0
C      1  0.4613340000000  0.4897980000000  0.5406100000000 1.0
C      1  0.5461100000000  0.5094580000000  0.5334790000000 1.0
C      1  0.5461490000000  0.4812040000000  0.5251920000000 1.0
C      1  0.4530750000000  0.5169400000000  0.5380490000000 1.0
C      1  0.4919470000000  0.5619980000000  0.4481290000000 1.0
C      1  0.5090590000000  0.4418580000000  0.4455860000000 1.0
C      1  0.5149470000000  0.5528600000000  0.4616630000000 1.0
C      1  0.4878920000000  0.4596600000000  0.4512930000000 1.0
C      1  0.5136910000000  0.4821820000000  0.5594420000000 1.0
C      1  0.4878540000000  0.5175920000000  0.5580810000000 1.0
C      1  0.4831290000000  0.4864090000000  0.5617000000000 1.0
C      1  0.5174400000000  0.5120620000000  0.5605750000000 1.0
C      1  0.5532400000000  0.5126610000000  0.5905170000000 1.0
C      1  0.4460880000000  0.4897780000000  0.5835560000000 1.0
C      1  0.4554840000000  0.5145850000000  0.5933020000000 1.0
C      1  0.5522920000000  0.4861360000000  0.5801980000000 1.0
C      1  0.6122670000000  0.5153010000000  0.5422480000000 1.0
C      1  0.3888210000000  0.4852640000000  0.5375280000000 1.0
C      1  0.3902020000000  0.5142430000000  0.5340570000000 1.0
C      1  0.6114680000000  0.4858820000000  0.5397020000000 1.0
C      1  0.5965730000000  0.4793050000000  0.4714240000000 1.0
C      1  0.3922060000000  0.5154410000000  0.4587510000000 1.0
C      1  0.3913080000000  0.4831210000000  0.4622750000000 1.0
C      1  0.6003990000000  0.5065310000000  0.4626230000000 1.0
C      1  0.5145870000000  0.4434760000000  0.5943400000000 1.0
C      1  0.4866120000000  0.5550350000000  0.5930280000000 1.0
C      1  0.4853570000000  0.4444660000000  0.5945040000000 1.0
C      1  0.5149460000000  0.5543600000000  0.5916590000000 1.0
C      1  0.5315990000000  0.5160560000000  0.4860940000000 1.0
C      1  0.4702180000000  0.4868820000000  0.4897830000000 1.0
C      1  0.4575180000000  0.5133940000000  0.4959870000000 1.0
C      1  0.5431950000000  0.4921950000000  0.4782100000000 1.0
C      1  0.4867130000000  0.5386240000000  0.5339320000000 1.0
C      1  0.5129120000000  0.4550810000000  0.5373060000000 1.0
C      1  0.5173590000000  0.5485130000000  0.5211960000000 1.0
C      1  0.4850580000000  0.4512020000000  0.5261460000000 1.0
C      1  0.4357910000000  0.4238430000000  0.4468410000000 1.0
C      1  0.5643740000000  0.5790000000000  0.4491700000000 1.0
C      1  0.5644290000000  0.4233300000000  0.4498780000000 1.0
C      1  0.4345400000000  0.5741580000000  0.4472120000000 1.0
C      1  0.5686600000000  0.4648430000000  0.4416830000000 1.0
C      1  0.4383700000000  0.5263710000000  0.4471880000000 1.0
C      1  0.4320500000000  0.4700050000000  0.4473830000000 1.0
C      1  0.5685520000000  0.5353650000000  0.4416730000000 1.0
C      1  0.5137900000000  0.4598770000000  0.4891200000000 1.0
C      1  0.4859820000000  0.5404470000000  0.4859100000000 1.0
C      1  0.4872910000000  0.4504940000000  0.4807040000000 1.0
C      1  0.5095420000000  0.5584700000000  0.4904440000000 1.0
C      1  0.5148710000000  0.4452000000000  0.4057730000000 1.0
C      1  0.4864180000000  0.5509300000000  0.4084070000000 1.0
C      1  0.4866790000000  0.4448580000000  0.4074480000000 1.0
C      1  0.5143360000000  0.5553170000000  0.4108850000000 1.0
C      1  0.5210270000000  0.4202770000000  0.4291600000000 1.0
C      1  0.4747210000000  0.5745360000000  0.4281380000000 1.0
C      1  0.4739120000000  0.4242850000000  0.4247660000000 1.0
C      1  0.5264440000000  0.5772130000000  0.4279780000000 1.0
C      1  0.5152340000000  0.6096610000000  0.5332410000000 1.0
C      1  0.4847770000000  0.3868780000000  0.5393640000000 1.0
C      1  0.4853500000000  0.6112470000000  0.5339260000000 1.0
C      1  0.5135520000000  0.3905920000000  0.5336450000000 1.0
C      1  0.4120370000000  0.4872770000000  0.4373550000000 1.0
C      1  0.5852190000000  0.5126110000000  0.4392890000000 1.0
C      1  0.5717300000000  0.4900340000000  0.4273500000000 1.0
C      1  0.4139730000000  0.5136200000000  0.4418550000000 1.0
C      1  0.5683240000000  0.5546810000000  0.4631920000000 1.0
C      1  0.4265770000000  0.4460310000000  0.4627550000000 1.0
C      1  0.4316150000000  0.5511270000000  0.4638090000000 1.0
C      1  0.5864500000000  0.4536780000000  0.4629370000000 1.0
C      1  0.4779560000000  0.5231240000000  0.4124300000000 1.0
C      1  0.5296250000000  0.4712650000000  0.4110070000000 1.0
C      1  0.5232130000000  0.5273930000000  0.4092450000000 1.0
C      1  0.4778950000000  0.4740090000000  0.4073690000000 1.0
C      1  0.5810600000000  0.4361150000000  0.4871770000000 1.0
C      1  0.4227080000000  0.5621290000000  0.4888530000000 1.0
C      1  0.4237360000000  0.4355670000000  0.4896110000000 1.0
C      1  0.5752770000000  0.5440410000000  0.4890140000000 1.0
C      1  0.5273290000000  0.5735170000000  0.5746560000000 1.0
C      1  0.4707000000000  0.4262710000000  0.5773470000000 1.0
C      1  0.4718310000000  0.5734240000000  0.5754360000000 1.0
C      1  0.5287520000000  0.4255040000000  0.5761270000000 1.0
C      1  0.5139600000000  0.6103520000000  0.5035400000000 1.0
C      1  0.4796750000000  0.3886280000000  0.5113550000000 1.0
C      1  0.4856110000000  0.6147940000000  0.5045560000000 1.0
C      1  0.5065280000000  0.3897670000000  0.5047140000000 1.0
END
