TITL C-2441157-2117-1196 0.0426295748709234 125000 -10577.9121061644 0 0 77 (C1) n - 1
REM
REM in /home/bkarasulu/work/CARBON/AIRSS/Generating-Clusters/ReaxFF-fromJPCA2015/Units_Real/with-SteepDescent/Higher-Symm
REM
REM
REM
REM
REM
REM ./C.cell (1df0a924f5614ab8850e4351716899ee)
REM
REM compiler GCC version 9.2.1 20190827 (Red Hat 9.2.1-1)
REM options -cpp -mtune=generic -march=x86-64 -g -O0 -fpre-include=/usr/include/finclude/math-vector-fortran.h
REM seed -961200425 1500492844 -184733975 -1399850022 1808271469 46663241 1266589262 -282339704 1886365826 -32465283 -1162970196 -1526700420 -156214362 -1281891747 1838950590 543171825 -1211646273 299526338 589673016 2050777298 1597103812 947814600 -640727941 499297017 -1597429864 1746900809 -706123394 1075533065 -1373769089 1598432214 -1636637923 751383356 -1482648223
REM
CELL 1.54180   50.00000   50.00000   50.00000   90.00000   90.00000   90.00000
LATT -1
SFAC C  
C      1  0.4999470000000  0.5690430000000  0.5237770000000 1.0
C      1  0.4770140000000  0.5690550000000  0.5064790000000 1.0
C      1  0.4861130000000  0.5682930000000  0.4789470000000 1.0
C      1  0.5150720000000  0.5679830000000  0.4795020000000 1.0
C      1  0.5233950000000  0.5697580000000  0.5071480000000 1.0
C      1  0.4598240000000  0.5077170000000  0.5746190000000 1.0
C      1  0.4191840000000  0.5048310000000  0.4831660000000 1.0
C      1  0.4891810000000  0.5078340000000  0.4157840000000 1.0
C      1  0.5764060000000  0.5088320000000  0.4617180000000 1.0
C      1  0.5577360000000  0.5069200000000  0.5581340000000 1.0
C      1  0.5708010000000  0.5027010000000  0.5124730000000 1.0
C      1  0.5062140000000  0.5074730000000  0.5820120000000 1.0
C      1  0.4219640000000  0.5105140000000  0.5315470000000 1.0
C      1  0.4444750000000  0.5046920000000  0.4364770000000 1.0
C      1  0.5403210000000  0.4970940000000  0.4353700000000 1.0
C      1  0.4639810000000  0.5367930000000  0.4319740000000 1.0
C      1  0.5490990000000  0.5364810000000  0.4464050000000 1.0
C      1  0.5658590000000  0.5398110000000  0.5342560000000 1.0
C      1  0.4945160000000  0.5341000000000  0.5709440000000 1.0
C      1  0.4310930000000  0.5342690000000  0.5160410000000 1.0
C      1  0.5787220000000  0.5134600000000  0.5384990000000 1.0
C      1  0.4808020000000  0.5021050000000  0.5921820000000 1.0
C      1  0.4105820000000  0.4979690000000  0.5094030000000 1.0
C      1  0.4599760000000  0.5125340000000  0.4145350000000 1.0
C      1  0.5631000000000  0.5128940000000  0.4353970000000 1.0
C      1  0.5434620000000  0.5051740000000  0.5029730000000 1.0
C      1  0.5226880000000  0.5007000000000  0.5220140000000 1.0
C      1  0.4765760000000  0.4999710000000  0.5286670000000 1.0
C      1  0.4746380000000  0.5010710000000  0.4825380000000 1.0
C      1  0.4949480000000  0.5018640000000  0.4622330000000 1.0
C      1  0.5691770000000  0.4837850000000  0.4744070000000 1.0
C      1  0.5379550000000  0.4854350000000  0.5493620000000 1.0
C      1  0.4619260000000  0.4865010000000  0.5498870000000 1.0
C      1  0.4432450000000  0.4865290000000  0.4774280000000 1.0
C      1  0.4971430000000  0.4868510000000  0.4374570000000 1.0
C      1  0.5647730000000  0.4570270000000  0.5155450000000 1.0
C      1  0.5009140000000  0.4605930000000  0.5648030000000 1.0
C      1  0.4332180000000  0.4642440000000  0.5180830000000 1.0
C      1  0.4585650000000  0.4576930000000  0.4431030000000 1.0
C      1  0.5411480000000  0.4534050000000  0.4535850000000 1.0
C      1  0.4343860000000  0.4602000000000  0.4911770000000 1.0
C      1  0.4865510000000  0.4585400000000  0.4354650000000 1.0
C      1  0.5637350000000  0.4631420000000  0.4644410000000 1.0
C      1  0.5505590000000  0.4592770000000  0.5408180000000 1.0
C      1  0.4729440000000  0.4598210000000  0.5579470000000 1.0
C      1  0.5067400000000  0.4425670000000  0.5441980000000 1.0
C      1  0.4764770000000  0.4455380000000  0.5101570000000 1.0
C      1  0.4648330000000  0.4386910000000  0.4643420000000 1.0
C      1  0.5079240000000  0.4511500000000  0.4762830000000 1.0
C      1  0.5429950000000  0.4414610000000  0.5047490000000 1.0
C      1  0.4746970000000  0.5450290000000  0.4636240000000 1.0
C      1  0.5257990000000  0.5433840000000  0.4654070000000 1.0
C      1  0.5430200000000  0.5473800000000  0.5143890000000 1.0
C      1  0.5011710000000  0.5442730000000  0.5422230000000 1.0
C      1  0.4599580000000  0.5446960000000  0.5131470000000 1.0
C      1  0.4622050000000  0.5292900000000  0.4843820000000 1.0
C      1  0.5001930000000  0.5291870000000  0.4565080000000 1.0
C      1  0.5428480000000  0.5309520000000  0.4892190000000 1.0
C      1  0.5247540000000  0.5301940000000  0.5329840000000 1.0
C      1  0.4749010000000  0.5284590000000  0.5332220000000 1.0
C      1  0.4550730000000  0.4394790000000  0.4926610000000 1.0
C      1  0.4923180000000  0.4396440000000  0.4568170000000 1.0
C      1  0.5331160000000  0.4403060000000  0.4767420000000 1.0
C      1  0.5311390000000  0.4402100000000  0.5317030000000 1.0
C      1  0.4793250000000  0.4403150000000  0.5369020000000 1.0
C      1  0.4316700000000  0.5304760000000  0.4875790000000 1.0
C      1  0.4924970000000  0.5333180000000  0.4282960000000 1.0
C      1  0.5652070000000  0.5335550000000  0.4706910000000 1.0
C      1  0.5458470000000  0.5329520000000  0.5537030000000 1.0
C      1  0.4674040000000  0.5323970000000  0.5621040000000 1.0
C      1  0.5271990000000  0.4740270000000  0.4365050000000 1.0
C      1  0.5774700000000  0.4767760000000  0.4999890000000 1.0
C      1  0.5169810000000  0.4834260000000  0.5691310000000 1.0
C      1  0.4320000000000  0.4822140000000  0.5394960000000 1.0
C      1  0.4427190000000  0.4807400000000  0.4497100000000 1.0
C      1  0.4935410000000  0.4910670000000  0.5080050000000 1.0
C      1  0.4959240000000  0.4629310000000  0.5002010000000 1.0
END
