TITL C-2441162-9305-765 0.147409545000762 125000 -24884.9319624813 0 0 186 (C1) n - 1
REM
REM in /home/bkarasulu/work/CARBON/AIRSS/Generating-Clusters/ReaxFF-fromJPCA2015/Units_Real/with-SteepDescent/Higher-Symm
REM
REM
REM
REM
REM
REM ./C.cell (1df0a924f5614ab8850e4351716899ee)
REM
REM compiler GCC version 9.2.1 20190827 (Red Hat 9.2.1-1)
REM options -cpp -mtune=generic -march=x86-64 -g -O0 -fpre-include=/usr/include/finclude/math-vector-fortran.h
REM seed 208395490 -1195326925 -299547366 1726933567 -383895723 -701115322 -796195981 -779411646 -161963656 889248402 -1433897417 694027830 1012633726 -2084244825 -1742860469 -2068637456 1597645552 954021107 71938813 1066137155 -883947632 -873339927 116983240 -1701129317 1818529924 -1168190338 392118405 -1127541052 2021750244 -1258762594 1466733775 -1416041736 -1626693263
REM
CELL 1.54180   50.00000   50.00000   50.00000   90.00000   90.00000   90.00000
LATT -1
SFAC C  
C      1  0.4059270000000  0.4477770000000  0.4876120000000 1.0
C      1  0.4028170000000  0.4733230000000  0.5471190000000 1.0
C      1  0.4076000000000  0.5340230000000  0.5404080000000 1.0
C      1  0.4041160000000  0.5481390000000  0.4796860000000 1.0
C      1  0.4054650000000  0.4964940000000  0.4473570000000 1.0
C      1  0.5723520000000  0.4616550000000  0.4244910000000 1.0
C      1  0.5767920000000  0.4148560000000  0.5135110000000 1.0
C      1  0.5727970000000  0.4871530000000  0.5889880000000 1.0
C      1  0.5758900000000  0.5751450000000  0.5397640000000 1.0
C      1  0.5730070000000  0.5641280000000  0.4361790000000 1.0
C      1  0.4410060000000  0.5162380000000  0.4785410000000 1.0
C      1  0.4411120000000  0.4860730000000  0.4770980000000 1.0
C      1  0.4402580000000  0.4754700000000  0.5060820000000 1.0
C      1  0.4382740000000  0.4996330000000  0.5233480000000 1.0
C      1  0.4404730000000  0.5248240000000  0.5084920000000 1.0
C      1  0.5207010000000  0.5589610000000  0.5782820000000 1.0
C      1  0.5148650000000  0.5949880000000  0.4649800000000 1.0
C      1  0.5229080000000  0.5009170000000  0.4009090000000 1.0
C      1  0.5221110000000  0.4056750000000  0.4719670000000 1.0
C      1  0.5151130000000  0.4443620000000  0.5798020000000 1.0
C      1  0.4668120000000  0.4197850000000  0.5498800000000 1.0
C      1  0.4698120000000  0.5259840000000  0.5933650000000 1.0
C      1  0.4674520000000  0.5992160000000  0.5085440000000 1.0
C      1  0.4690000000000  0.5340800000000  0.4069170000000 1.0
C      1  0.4706630000000  0.4227800000000  0.4385870000000 1.0
C      1  0.3945020000000  0.4850170000000  0.5204500000000 1.0
C      1  0.3989400000000  0.5135820000000  0.5195090000000 1.0
C      1  0.3941450000000  0.5230910000000  0.4915080000000 1.0
C      1  0.3936500000000  0.4990980000000  0.4748160000000 1.0
C      1  0.3940330000000  0.4748420000000  0.4927520000000 1.0
C      1  0.5089540000000  0.5359510000000  0.5633430000000 1.0
C      1  0.5089010000000  0.5719230000000  0.4870210000000 1.0
C      1  0.5133150000000  0.5083620000000  0.4266150000000 1.0
C      1  0.5102160000000  0.4329320000000  0.4700510000000 1.0
C      1  0.5100100000000  0.4470390000000  0.5496340000000 1.0
C      1  0.6040960000000  0.4736350000000  0.5202100000000 1.0
C      1  0.6030610000000  0.5000830000000  0.5320330000000 1.0
C      1  0.6019250000000  0.5315860000000  0.4987620000000 1.0
C      1  0.6004900000000  0.5144860000000  0.4753600000000 1.0
C      1  0.5978350000000  0.4742620000000  0.4747990000000 1.0
C      1  0.4577580000000  0.6015850000000  0.4803990000000 1.0
C      1  0.4559560000000  0.5098610000000  0.3963550000000 1.0
C      1  0.4589580000000  0.4025500000000  0.4561550000000 1.0
C      1  0.4588190000000  0.4317660000000  0.5752410000000 1.0
C      1  0.4583030000000  0.5523550000000  0.5921840000000 1.0
C      1  0.5607140000000  0.5411900000000  0.4234690000000 1.0
C      1  0.5587850000000  0.4421870000000  0.4410870000000 1.0
C      1  0.5625320000000  0.4253750000000  0.5365000000000 1.0
C      1  0.5609160000000  0.5132160000000  0.5831320000000 1.0
C      1  0.5609500000000  0.5796940000000  0.5153250000000 1.0
C      1  0.4451800000000  0.5533960000000  0.5652000000000 1.0
C      1  0.4447850000000  0.5759720000000  0.4718570000000 1.0
C      1  0.4384890000000  0.4915870000000  0.4127970000000 1.0
C      1  0.4403520000000  0.4123360000000  0.4764650000000 1.0
C      1  0.4411160000000  0.4554050000000  0.5750260000000 1.0
C      1  0.4727780000000  0.4590590000000  0.4171210000000 1.0
C      1  0.4535310000000  0.4079510000000  0.5027480000000 1.0
C      1  0.4752040000000  0.4783010000000  0.5954270000000 1.0
C      1  0.4599380000000  0.5814220000000  0.5532290000000 1.0
C      1  0.4746310000000  0.5733230000000  0.4369820000000 1.0
C      1  0.4920370000000  0.4785280000000  0.5061660000000 1.0
C      1  0.4896590000000  0.5010230000000  0.5243230000000 1.0
C      1  0.4911020000000  0.5235000000000  0.5071660000000 1.0
C      1  0.4900860000000  0.5154740000000  0.4793220000000 1.0
C      1  0.4920230000000  0.4862640000000  0.4783930000000 1.0
C      1  0.4464810000000  0.4164820000000  0.5299080000000 1.0
C      1  0.4483270000000  0.4820030000000  0.5838330000000 1.0
C      1  0.4479860000000  0.5877480000000  0.5278410000000 1.0
C      1  0.4481990000000  0.5631510000000  0.4430040000000 1.0
C      1  0.4442270000000  0.4630510000000  0.4211380000000 1.0
C      1  0.5473250000000  0.5260470000000  0.5007340000000 1.0
C      1  0.5398530000000  0.5187250000000  0.4677830000000 1.0
C      1  0.5413710000000  0.4895040000000  0.4733880000000 1.0
C      1  0.5464270000000  0.4766250000000  0.5181600000000 1.0
C      1  0.5382080000000  0.4963060000000  0.5384150000000 1.0
C      1  0.4921060000000  0.4186380000000  0.4190860000000 1.0
C      1  0.4949110000000  0.3911400000000  0.5467150000000 1.0
C      1  0.4919670000000  0.5185480000000  0.6104200000000 1.0
C      1  0.4931650000000  0.6061500000000  0.5214750000000 1.0
C      1  0.4906450000000  0.5509230000000  0.3982550000000 1.0
C      1  0.5862400000000  0.4813280000000  0.5405240000000 1.0
C      1  0.5958570000000  0.5272110000000  0.5261820000000 1.0
C      1  0.5862740000000  0.5382040000000  0.4781590000000 1.0
C      1  0.5829410000000  0.4928220000000  0.4691730000000 1.0
C      1  0.5989540000000  0.4594190000000  0.4960180000000 1.0
C      1  0.4811070000000  0.5247700000000  0.5664820000000 1.0
C      1  0.4829090000000  0.5723290000000  0.4992010000000 1.0
C      1  0.4888840000000  0.5248840000000  0.4295550000000 1.0
C      1  0.4822890000000  0.4374730000000  0.4608760000000 1.0
C      1  0.4897030000000  0.4319830000000  0.5361160000000 1.0
C      1  0.5546070000000  0.5551780000000  0.5010890000000 1.0
C      1  0.5558250000000  0.5230570000000  0.4446220000000 1.0
C      1  0.5515270000000  0.4583360000000  0.4642870000000 1.0
C      1  0.5567350000000  0.4531230000000  0.5337250000000 1.0
C      1  0.5552260000000  0.5127740000000  0.5545850000000 1.0
C      1  0.5431920000000  0.4499280000000  0.5836580000000 1.0
C      1  0.5483820000000  0.5598880000000  0.5728240000000 1.0
C      1  0.5427590000000  0.5891650000000  0.4622950000000 1.0
C      1  0.5506100000000  0.4929570000000  0.4024000000000 1.0
C      1  0.5495440000000  0.4089460000000  0.4769730000000 1.0
C      1  0.4841610000000  0.5708520000000  0.5582150000000 1.0
C      1  0.4889590000000  0.5947200000000  0.4481770000000 1.0
C      1  0.4800090000000  0.4867240000000  0.4207950000000 1.0
C      1  0.4801870000000  0.3995400000000  0.4967660000000 1.0
C      1  0.4899100000000  0.4540040000000  0.5989350000000 1.0
C      1  0.4260810000000  0.4345450000000  0.5327870000000 1.0
C      1  0.4296090000000  0.5064070000000  0.5784980000000 1.0
C      1  0.4270850000000  0.5738690000000  0.5155270000000 1.0
C      1  0.4314780000000  0.5407970000000  0.4357840000000 1.0
C      1  0.4279560000000  0.4501840000000  0.4422090000000 1.0
C      1  0.4229230000000  0.4342170000000  0.4673460000000 1.0
C      1  0.4211190000000  0.4511600000000  0.5544260000000 1.0
C      1  0.4220730000000  0.5335410000000  0.5654700000000 1.0
C      1  0.4194230000000  0.5717080000000  0.4885760000000 1.0
C      1  0.4227650000000  0.5104940000000  0.4278500000000 1.0
C      1  0.4238380000000  0.5470380000000  0.5203580000000 1.0
C      1  0.4217360000000  0.5332310000000  0.4620240000000 1.0
C      1  0.4211780000000  0.4740720000000  0.4571640000000 1.0
C      1  0.4227230000000  0.4514960000000  0.5105590000000 1.0
C      1  0.4127450000000  0.4939200000000  0.5625780000000 1.0
C      1  0.5575890000000  0.5699570000000  0.4764460000000 1.0
C      1  0.5613820000000  0.5007480000000  0.4282080000000 1.0
C      1  0.5584430000000  0.4361920000000  0.4815280000000 1.0
C      1  0.5597040000000  0.4559180000000  0.5618480000000 1.0
C      1  0.5576250000000  0.5402770000000  0.5539200000000 1.0
C      1  0.4664050000000  0.5373340000000  0.5142270000000 1.0
C      1  0.4659890000000  0.5217490000000  0.4661150000000 1.0
C      1  0.4666950000000  0.4760190000000  0.4670900000000 1.0
C      1  0.4677910000000  0.4616320000000  0.5096120000000 1.0
C      1  0.4618850000000  0.4960020000000  0.5393030000000 1.0
C      1  0.4999490000000  0.4089880000000  0.5181900000000 1.0
C      1  0.4987940000000  0.4957390000000  0.5954020000000 1.0
C      1  0.4997980000000  0.5901720000000  0.5442880000000 1.0
C      1  0.4977370000000  0.5597620000000  0.4256010000000 1.0
C      1  0.4967230000000  0.4451030000000  0.4099380000000 1.0
C      1  0.4831090000000  0.3916610000000  0.4688950000000 1.0
C      1  0.4801830000000  0.4291830000000  0.5928860000000 1.0
C      1  0.4806770000000  0.5701780000000  0.5875930000000 1.0
C      1  0.4795700000000  0.6137250000000  0.4668140000000 1.0
C      1  0.4813890000000  0.4976060000000  0.3909950000000 1.0
C      1  0.5143700000000  0.4467730000000  0.4919860000000 1.0
C      1  0.4969350000000  0.4724690000000  0.5514540000000 1.0
C      1  0.5161600000000  0.5364770000000  0.5382030000000 1.0
C      1  0.5115070000000  0.5502980000000  0.4751020000000 1.0
C      1  0.5122440000000  0.4808430000000  0.4364010000000 1.0
C      1  0.5269930000000  0.5650740000000  0.4244980000000 1.0
C      1  0.5237550000000  0.4547390000000  0.4175510000000 1.0
C      1  0.5304880000000  0.4044390000000  0.5193110000000 1.0
C      1  0.5272430000000  0.4926670000000  0.5966410000000 1.0
C      1  0.5301060000000  0.5903920000000  0.5415430000000 1.0
C      1  0.5816180000000  0.4849760000000  0.4398620000000 1.0
C      1  0.5841640000000  0.4353940000000  0.4947770000000 1.0
C      1  0.5819950000000  0.4720960000000  0.5661540000000 1.0
C      1  0.5826250000000  0.5469320000000  0.5430510000000 1.0
C      1  0.5811610000000  0.5610950000000  0.4638820000000 1.0
C      1  0.5534940000000  0.5830170000000  0.5571170000000 1.0
C      1  0.5483050000000  0.5797890000000  0.4367460000000 1.0
C      1  0.5509640000000  0.4648910000000  0.4057900000000 1.0
C      1  0.5542710000000  0.3996940000000  0.5031700000000 1.0
C      1  0.5486260000000  0.4733930000000  0.5976090000000 1.0
C      1  0.5397080000000  0.4082390000000  0.5456160000000 1.0
C      1  0.5378110000000  0.5188090000000  0.6013220000000 1.0
C      1  0.5398890000000  0.6007700000000  0.5170510000000 1.0
C      1  0.5379970000000  0.5474600000000  0.4052240000000 1.0
C      1  0.5340100000000  0.4308300000000  0.4303000000000 1.0
C      1  0.4686840000000  0.5067550000000  0.4408850000000 1.0
C      1  0.4665790000000  0.4507710000000  0.4806670000000 1.0
C      1  0.4700230000000  0.4681420000000  0.5407950000000 1.0
C      1  0.4654890000000  0.5375500000000  0.5462890000000 1.0
C      1  0.4648300000000  0.5544660000000  0.4874750000000 1.0
C      1  0.5129150000000  0.5281790000000  0.4644910000000 1.0
C      1  0.5164070000000  0.4783450000000  0.4653130000000 1.0
C      1  0.5176150000000  0.4605160000000  0.5128720000000 1.0
C      1  0.5105500000000  0.4957390000000  0.5439100000000 1.0
C      1  0.5202790000000  0.5356120000000  0.5144830000000 1.0
C      1  0.5060800000000  0.6185840000000  0.4787720000000 1.0
C      1  0.5048960000000  0.5123730000000  0.3810210000000 1.0
C      1  0.5078860000000  0.3900980000000  0.4526610000000 1.0
C      1  0.5052840000000  0.4176480000000  0.5870330000000 1.0
C      1  0.5053570000000  0.5612010000000  0.6023500000000 1.0
C      1  0.5154920000000  0.6135320000000  0.5055370000000 1.0
C      1  0.5149450000000  0.5391810000000  0.3881350000000 1.0
C      1  0.5166500000000  0.4081450000000  0.4308830000000 1.0
C      1  0.5157350000000  0.4025140000000  0.5636510000000 1.0
C      1  0.5154850000000  0.5351460000000  0.6113780000000 1.0
C      1  0.5572000000000  0.4972330000000  0.4973610000000 1.0
END
