TITL C-2441169-1362-561 0.0179886687014271 125000 -10231.824562862 0 0 73 (C1) n - 1
REM
REM in /home/bkarasulu/work/CARBON/AIRSS/Generating-Clusters/ReaxFF-fromJPCA2015/Units_Real/with-SteepDescent/Higher-Symm
REM
REM
REM
REM
REM
REM ./C.cell (1df0a924f5614ab8850e4351716899ee)
REM
REM compiler GCC version 9.2.1 20190827 (Red Hat 9.2.1-1)
REM options -cpp -mtune=generic -march=x86-64 -g -O0 -fpre-include=/usr/include/finclude/math-vector-fortran.h
REM seed 353814243 2105139856 -1475908789 1350870630 1430557950 1442909470 2028978510 -1543543901 173334021 440207425 1470097454 1976679409 -1856491066 -929624934 37345960 99489237 473471048 -1175600403 1840236262 333110205 1708202964 -78155470 115165203 -578126505 -1013876351 680868420 -22290001 -1215381867 -924203376 -1494515352 -1829775360 328040226 -2138639999
REM
CELL 1.54180   50.00000   50.00000   50.00000   90.00000   90.00000   90.00000
LATT -1
SFAC C  
C      1  0.4737370000000  0.4669030000000  0.4745640000000 1.0
C      1  0.5228970000000  0.4660960000000  0.5230200000000 1.0
C      1  0.5250690000000  0.4686570000000  0.4748610000000 1.0
C      1  0.4733530000000  0.4668330000000  0.5232710000000 1.0
C      1  0.4848900000000  0.4367780000000  0.4397210000000 1.0
C      1  0.5118190000000  0.4367590000000  0.5574910000000 1.0
C      1  0.5147720000000  0.4377110000000  0.4415510000000 1.0
C      1  0.4836750000000  0.4361080000000  0.5574350000000 1.0
C      1  0.5515670000000  0.4630600000000  0.5146020000000 1.0
C      1  0.4455540000000  0.4631400000000  0.4850310000000 1.0
C      1  0.4460820000000  0.4637860000000  0.5138490000000 1.0
C      1  0.5518450000000  0.4656980000000  0.4862050000000 1.0
C      1  0.5155600000000  0.5580450000000  0.5554130000000 1.0
C      1  0.4850150000000  0.5542390000000  0.4439280000000 1.0
C      1  0.4842020000000  0.5550810000000  0.5535200000000 1.0
C      1  0.5144090000000  0.5537190000000  0.4440300000000 1.0
C      1  0.4615440000000  0.5352440000000  0.4348660000000 1.0
C      1  0.5385310000000  0.5413960000000  0.5550270000000 1.0
C      1  0.5381380000000  0.5352070000000  0.4352150000000 1.0
C      1  0.4630400000000  0.5360490000000  0.5636800000000 1.0
C      1  0.4716810000000  0.5818570000000  0.4867800000000 1.0
C      1  0.5276130000000  0.5843890000000  0.5114430000000 1.0
C      1  0.5290650000000  0.5835130000000  0.4887060000000 1.0
C      1  0.4707160000000  0.5820290000000  0.5095680000000 1.0
C      1  0.4713200000000  0.5221580000000  0.4105490000000 1.0
C      1  0.5370790000000  0.5104300000000  0.5827660000000 1.0
C      1  0.5280140000000  0.5210370000000  0.4110850000000 1.0
C      1  0.4753100000000  0.5211290000000  0.5868010000000 1.0
C      1  0.4702770000000  0.4848200000000  0.4452080000000 1.0
C      1  0.5240230000000  0.4793520000000  0.5494470000000 1.0
C      1  0.5285680000000  0.4843240000000  0.4471780000000 1.0
C      1  0.4712200000000  0.4843630000000  0.5526210000000 1.0
C      1  0.4506210000000  0.5105360000000  0.5537190000000 1.0
C      1  0.5496740000000  0.5102760000000  0.4461150000000 1.0
C      1  0.5560770000000  0.5201310000000  0.5598670000000 1.0
C      1  0.4497670000000  0.5093380000000  0.4449470000000 1.0
C      1  0.5703320000000  0.4880590000000  0.4874440000000 1.0
C      1  0.4280870000000  0.4867470000000  0.5145480000000 1.0
C      1  0.4279200000000  0.4868280000000  0.4853350000000 1.0
C      1  0.5682880000000  0.4875090000000  0.5165190000000 1.0
C      1  0.5172130000000  0.5055250000000  0.5599830000000 1.0
C      1  0.4873130000000  0.5041240000000  0.4315260000000 1.0
C      1  0.4896060000000  0.5037000000000  0.5655120000000 1.0
C      1  0.5123700000000  0.5041310000000  0.4325290000000 1.0
C      1  0.5143230000000  0.5406570000000  0.5142780000000 1.0
C      1  0.4865700000000  0.5371700000000  0.4846690000000 1.0
C      1  0.4858660000000  0.5365960000000  0.5140470000000 1.0
C      1  0.5160320000000  0.5418880000000  0.4850130000000 1.0
C      1  0.4673390000000  0.5145170000000  0.5135510000000 1.0
C      1  0.5368090000000  0.5211930000000  0.4863770000000 1.0
C      1  0.5357090000000  0.5209610000000  0.5146650000000 1.0
C      1  0.4677330000000  0.5142900000000  0.4848840000000 1.0
C      1  0.4853730000000  0.4178600000000  0.4840870000000 1.0
C      1  0.5136120000000  0.4189200000000  0.5133980000000 1.0
C      1  0.5150970000000  0.4205250000000  0.4851510000000 1.0
C      1  0.4852320000000  0.4178860000000  0.5134950000000 1.0
C      1  0.5571710000000  0.5109050000000  0.5310880000000 1.0
C      1  0.4414310000000  0.5097390000000  0.4724790000000 1.0
C      1  0.4411570000000  0.5101690000000  0.5267560000000 1.0
C      1  0.5610250000000  0.5117130000000  0.4723610000000 1.0
C      1  0.4850780000000  0.4637510000000  0.4287480000000 1.0
C      1  0.5128420000000  0.4620250000000  0.5701290000000 1.0
C      1  0.5144710000000  0.4638630000000  0.4291550000000 1.0
C      1  0.4830480000000  0.4625580000000  0.5699680000000 1.0
C      1  0.5157010000000  0.5760360000000  0.4634440000000 1.0
C      1  0.4832190000000  0.5781870000000  0.5362370000000 1.0
C      1  0.4847970000000  0.5778930000000  0.4612620000000 1.0
C      1  0.5132340000000  0.5804660000000  0.5363650000000 1.0
C      1  0.4729280000000  0.4382640000000  0.5306340000000 1.0
C      1  0.5251390000000  0.4410040000000  0.4681340000000 1.0
C      1  0.5244930000000  0.4373400000000  0.5316940000000 1.0
C      1  0.4728910000000  0.4377290000000  0.4666490000000 1.0
C      1  0.4950690000000  0.4730610000000  0.4981020000000 1.0
END
