TITL C-2441166-8118-807 0.0949194221437231 125000 -19865.3820531217 0 0 149 (C1) n - 1
REM
REM in /home/bkarasulu/work/CARBON/AIRSS/Generating-Clusters/ReaxFF-fromJPCA2015/Units_Real/with-SteepDescent/Higher-Symm
REM
REM
REM
REM
REM
REM ./C.cell (1df0a924f5614ab8850e4351716899ee)
REM
REM compiler GCC version 9.2.1 20190827 (Red Hat 9.2.1-1)
REM options -cpp -mtune=generic -march=x86-64 -g -O0 -fpre-include=/usr/include/finclude/math-vector-fortran.h
REM seed -1761502595 505454606 1163631631 436700813 -70302316 375744718 -1208491675 -390889849 -1052132104 -1914366436 1107439507 -1768180845 338754129 1294938113 354551883 2089395357 45962442 -544853494 1763056047 1702453549 454480214 1198411912 2055692510 -1388014001 -1133126309 1413358329 1056499083 -2014908619 -599134650 1041949165 1873135358 1057836434 -1922112227
REM
CELL 1.54180   50.00000   50.00000   50.00000   90.00000   90.00000   90.00000
LATT -1
SFAC C  
C      1  0.5636100000000  0.5664290000000  0.5216930000000 1.0
C      1  0.5309750000000  0.5758120000000  0.5677630000000 1.0
C      1  0.5668710000000  0.5300860000000  0.5780390000000 1.0
C      1  0.4271000000000  0.4310810000000  0.5271960000000 1.0
C      1  0.4350380000000  0.5798730000000  0.4913560000000 1.0
C      1  0.5699900000000  0.4313640000000  0.4708220000000 1.0
C      1  0.4911270000000  0.4313770000000  0.5807070000000 1.0
C      1  0.4880880000000  0.5711650000000  0.4306560000000 1.0
C      1  0.5071450000000  0.4294500000000  0.4183910000000 1.0
C      1  0.4334230000000  0.4782200000000  0.5720500000000 1.0
C      1  0.4313280000000  0.5267060000000  0.4291930000000 1.0
C      1  0.5796140000000  0.4859570000000  0.4317710000000 1.0
C      1  0.5300020000000  0.4829880000000  0.4453780000000 1.0
C      1  0.4460230000000  0.5316010000000  0.4715640000000 1.0
C      1  0.4745690000000  0.4444440000000  0.5279170000000 1.0
C      1  0.4846040000000  0.5119570000000  0.4464140000000 1.0
C      1  0.4729040000000  0.4784470000000  0.5552820000000 1.0
C      1  0.5260460000000  0.5325840000000  0.5550470000000 1.0
C      1  0.5578410000000  0.4723730000000  0.4826080000000 1.0
C      1  0.5580310000000  0.5252650000000  0.5229940000000 1.0
C      1  0.4321420000000  0.4738650000000  0.5434820000000 1.0
C      1  0.5351170000000  0.5596250000000  0.5191900000000 1.0
C      1  0.5239680000000  0.4455460000000  0.4692530000000 1.0
C      1  0.4762570000000  0.5589270000000  0.4744240000000 1.0
C      1  0.4615980000000  0.4565280000000  0.4242440000000 1.0
C      1  0.4425390000000  0.4494130000000  0.4446610000000 1.0
C      1  0.4554160000000  0.4289090000000  0.4613680000000 1.0
C      1  0.5387920000000  0.5542390000000  0.4286290000000 1.0
C      1  0.5404760000000  0.4553700000000  0.5697990000000 1.0
C      1  0.4601620000000  0.5509230000000  0.5701670000000 1.0
C      1  0.5680700000000  0.5333070000000  0.4496280000000 1.0
C      1  0.5661620000000  0.4548050000000  0.5477400000000 1.0
C      1  0.4304970000000  0.5463340000000  0.5417180000000 1.0
C      1  0.5464040000000  0.5718470000000  0.4517980000000 1.0
C      1  0.5467860000000  0.4273400000000  0.5405460000000 1.0
C      1  0.4525630000000  0.5647380000000  0.5454960000000 1.0
C      1  0.5708480000000  0.4543160000000  0.5186900000000 1.0
C      1  0.5195560000000  0.5636860000000  0.4620900000000 1.0
C      1  0.4558530000000  0.5229230000000  0.5764640000000 1.0
C      1  0.4281290000000  0.5443500000000  0.5127880000000 1.0
C      1  0.4389000000000  0.4582480000000  0.4928250000000 1.0
C      1  0.5723500000000  0.5438240000000  0.4800330000000 1.0
C      1  0.4840430000000  0.4325420000000  0.4551560000000 1.0
C      1  0.4863520000000  0.5699260000000  0.5420180000000 1.0
C      1  0.5181690000000  0.4301220000000  0.5461100000000 1.0
C      1  0.5449040000000  0.4821340000000  0.5779130000000 1.0
C      1  0.5487080000000  0.5267340000000  0.4291290000000 1.0
C      1  0.4540450000000  0.4833550000000  0.4206300000000 1.0
C      1  0.4057660000000  0.5503960000000  0.4917960000000 1.0
C      1  0.4983230000000  0.4128560000000  0.5609950000000 1.0
C      1  0.5583340000000  0.4913680000000  0.4138540000000 1.0
C      1  0.5686460000000  0.4295050000000  0.5005590000000 1.0
C      1  0.5690140000000  0.5706420000000  0.4931590000000 1.0
C      1  0.4291970000000  0.4306760000000  0.4983260000000 1.0
C      1  0.5009490000000  0.5745020000000  0.5676560000000 1.0
C      1  0.5010950000000  0.4123260000000  0.4415620000000 1.0
C      1  0.4990310000000  0.5904450000000  0.4491750000000 1.0
C      1  0.4306850000000  0.4968690000000  0.4308620000000 1.0
C      1  0.4328070000000  0.5073610000000  0.5711960000000 1.0
C      1  0.5682630000000  0.4996880000000  0.5729260000000 1.0
C      1  0.4134930000000  0.4573070000000  0.5274660000000 1.0
C      1  0.5295120000000  0.4194990000000  0.4353620000000 1.0
C      1  0.4514120000000  0.5276270000000  0.4116100000000 1.0
C      1  0.5792580000000  0.5433780000000  0.5320000000000 1.0
C      1  0.5817040000000  0.4581000000000  0.4711680000000 1.0
C      1  0.4195150000000  0.5664750000000  0.4721630000000 1.0
C      1  0.4646250000000  0.5669200000000  0.4479910000000 1.0
C      1  0.4694920000000  0.4185060000000  0.5632230000000 1.0
C      1  0.5313980000000  0.5918920000000  0.5444440000000 1.0
C      1  0.5550470000000  0.4682690000000  0.4298940000000 1.0
C      1  0.5490890000000  0.5263210000000  0.5987280000000 1.0
C      1  0.4596880000000  0.4693250000000  0.5800330000000 1.0
C      1  0.5103350000000  0.5529760000000  0.4178350000000 1.0
C      1  0.4185170000000  0.5214030000000  0.5513410000000 1.0
C      1  0.5478110000000  0.4151500000000  0.5149590000000 1.0
C      1  0.4898030000000  0.4532600000000  0.4149920000000 1.0
C      1  0.4858710000000  0.5556850000000  0.5835010000000 1.0
C      1  0.5143990000000  0.4499610000000  0.5818970000000 1.0
C      1  0.5788630000000  0.4830780000000  0.5519280000000 1.0
C      1  0.5845810000000  0.5097060000000  0.4494390000000 1.0
C      1  0.4265700000000  0.4738260000000  0.4492670000000 1.0
C      1  0.4504800000000  0.5829760000000  0.5138200000000 1.0
C      1  0.4512810000000  0.4143480000000  0.4861700000000 1.0
C      1  0.5489940000000  0.5854210000000  0.4779960000000 1.0
C      1  0.5994850000000  0.5042990000000  0.4742710000000 1.0
C      1  0.4719320000000  0.5961790000000  0.5022090000000 1.0
C      1  0.5045900000000  0.4732360000000  0.5953840000000 1.0
C      1  0.4005460000000  0.4921500000000  0.4882240000000 1.0
C      1  0.4035830000000  0.5055840000000  0.5316280000000 1.0
C      1  0.5951110000000  0.4961200000000  0.5317720000000 1.0
C      1  0.5189310000000  0.4018250000000  0.5057490000000 1.0
C      1  0.5273380000000  0.6011780000000  0.4912690000000 1.0
C      1  0.4755410000000  0.4001330000000  0.4958810000000 1.0
C      1  0.4958980000000  0.5315040000000  0.5955160000000 1.0
C      1  0.4972820000000  0.4792350000000  0.4048480000000 1.0
C      1  0.5028710000000  0.5301850000000  0.4014220000000 1.0
C      1  0.5147340000000  0.5346460000000  0.4597250000000 1.0
C      1  0.4616190000000  0.4985570000000  0.5080380000000 1.0
C      1  0.5130650000000  0.4641260000000  0.5078400000000 1.0
C      1  0.4870420000000  0.4755840000000  0.4703530000000 1.0
C      1  0.4978340000000  0.5207740000000  0.5238830000000 1.0
C      1  0.5099840000000  0.4819220000000  0.5304880000000 1.0
C      1  0.5365820000000  0.4917040000000  0.5246450000000 1.0
C      1  0.5315210000000  0.5000370000000  0.4945090000000 1.0
C      1  0.4672450000000  0.4917900000000  0.4801980000000 1.0
C      1  0.4705690000000  0.5245110000000  0.5156270000000 1.0
C      1  0.4888600000000  0.4587960000000  0.4934880000000 1.0
C      1  0.5233770000000  0.5276210000000  0.4863080000000 1.0
C      1  0.5201900000000  0.6010060000000  0.5198590000000 1.0
C      1  0.5216150000000  0.5193290000000  0.6008780000000 1.0
C      1  0.5981750000000  0.5239320000000  0.5208540000000 1.0
C      1  0.4912320000000  0.3990690000000  0.5202030000000 1.0
C      1  0.4989360000000  0.5987860000000  0.4784210000000 1.0
C      1  0.5016360000000  0.4031510000000  0.4810480000000 1.0
C      1  0.4779950000000  0.4834810000000  0.5974490000000 1.0
C      1  0.4745470000000  0.5223940000000  0.3980720000000 1.0
C      1  0.5142380000000  0.5025640000000  0.4030700000000 1.0
C      1  0.4003680000000  0.4813110000000  0.5155470000000 1.0
C      1  0.4039800000000  0.5214090000000  0.4861720000000 1.0
C      1  0.5999310000000  0.4768760000000  0.4847490000000 1.0
C      1  0.4191410000000  0.5185870000000  0.5107450000000 1.0
C      1  0.5054870000000  0.4248750000000  0.5208590000000 1.0
C      1  0.5267730000000  0.5062210000000  0.4283170000000 1.0
C      1  0.5908750000000  0.4749560000000  0.5123770000000 1.0
C      1  0.5939400000000  0.5262470000000  0.4922350000000 1.0
C      1  0.4247190000000  0.4789680000000  0.4773660000000 1.0
C      1  0.4905630000000  0.5925450000000  0.5230050000000 1.0
C      1  0.5005590000000  0.4303630000000  0.4768920000000 1.0
C      1  0.5015970000000  0.5701720000000  0.4846360000000 1.0
C      1  0.4774170000000  0.4981220000000  0.4171430000000 1.0
C      1  0.4766700000000  0.5116330000000  0.5912370000000 1.0
C      1  0.5225430000000  0.4929510000000  0.5902980000000 1.0
C      1  0.4935530000000  0.4618700000000  0.5448250000000 1.0
C      1  0.5432270000000  0.4921190000000  0.4698410000000 1.0
C      1  0.4567960000000  0.5420940000000  0.4965520000000 1.0
C      1  0.5104740000000  0.5467870000000  0.5342970000000 1.0
C      1  0.5072530000000  0.4653880000000  0.4536240000000 1.0
C      1  0.4886570000000  0.5366880000000  0.4576320000000 1.0
C      1  0.4598580000000  0.5094820000000  0.4612710000000 1.0
C      1  0.4558380000000  0.4866380000000  0.5336910000000 1.0
C      1  0.5425730000000  0.5121930000000  0.5428940000000 1.0
C      1  0.5371970000000  0.4565800000000  0.4954760000000 1.0
C      1  0.5448740000000  0.5388250000000  0.5005840000000 1.0
C      1  0.4642310000000  0.4583510000000  0.5058450000000 1.0
C      1  0.5480850000000  0.4359090000000  0.4509660000000 1.0
C      1  0.4533700000000  0.4286360000000  0.5413400000000 1.0
C      1  0.5462190000000  0.5496640000000  0.5658660000000 1.0
C      1  0.4377190000000  0.5509220000000  0.4506030000000 1.0
C      1  0.5065710000000  0.5111400000000  0.4987520000000 1.0
END
