TITL C-2441157-2117-1171 0.00673686747100398 125000 -14121.826838679 0 0 96 (C1) n - 1
REM
REM in /home/bkarasulu/work/CARBON/AIRSS/Generating-Clusters/ReaxFF-fromJPCA2015/Units_Real/with-SteepDescent/Higher-Symm
REM
REM
REM
REM
REM
REM ./C.cell (1df0a924f5614ab8850e4351716899ee)
REM
REM compiler GCC version 9.2.1 20190827 (Red Hat 9.2.1-1)
REM options -cpp -mtune=generic -march=x86-64 -g -O0 -fpre-include=/usr/include/finclude/math-vector-fortran.h
REM seed 1682509056 -78676231 1048913783 -744734443 -1897576333 -334375699 270570182 2075397354 -1745737239 -829783058 -1199609502 2130223645 -61393667 110362135 -868299294 1203194584 -951267665 -1933330941 -481476311 1775246552 1376060601 -1611316857 -1129035871 -1613004164 494597885 1037921079 381950197 740004209 -1173417936 -2048381595 -814152508 -789260299 -738303468
REM
CELL 1.54180   50.00000   50.00000   50.00000   90.00000   90.00000   90.00000
LATT -1
SFAC C  
C      1  0.4275580000000  0.5454340000000  0.5016640000000 1.0
C      1  0.4604680000000  0.5386950000000  0.5411700000000 1.0
C      1  0.4715610000000  0.5459250000000  0.5674820000000 1.0
C      1  0.5207640000000  0.5380630000000  0.5537790000000 1.0
C      1  0.5487270000000  0.5466850000000  0.5536690000000 1.0
C      1  0.5608140000000  0.5345730000000  0.5040350000000 1.0
C      1  0.5640780000000  0.5454150000000  0.4634100000000 1.0
C      1  0.5365780000000  0.5390440000000  0.4544680000000 1.0
C      1  0.4932740000000  0.5398460000000  0.4401800000000 1.0
C      1  0.4659170000000  0.5459650000000  0.4318200000000 1.0
C      1  0.4464370000000  0.5385060000000  0.4802260000000 1.0
C      1  0.4253690000000  0.4673520000000  0.4644040000000 1.0
C      1  0.4185530000000  0.4697950000000  0.5112450000000 1.0
C      1  0.4362860000000  0.4666220000000  0.5535170000000 1.0
C      1  0.4759690000000  0.4708350000000  0.5797160000000 1.0
C      1  0.5226610000000  0.4677240000000  0.5808150000000 1.0
C      1  0.5625590000000  0.4687300000000  0.5557370000000 1.0
C      1  0.5835530000000  0.4668560000000  0.5143900000000 1.0
C      1  0.5771640000000  0.4703130000000  0.4667410000000 1.0
C      1  0.5477090000000  0.4679560000000  0.4295800000000 1.0
C      1  0.5021290000000  0.4676830000000  0.4164810000000 1.0
C      1  0.4571940000000  0.4704530000000  0.4307090000000 1.0
C      1  0.4687530000000  0.5292390000000  0.4096850000000 1.0
C      1  0.4427830000000  0.5370370000000  0.4499560000000 1.0
C      1  0.4082890000000  0.5287510000000  0.4907010000000 1.0
C      1  0.4319900000000  0.5369800000000  0.5308910000000 1.0
C      1  0.4560740000000  0.5271520000000  0.5805270000000 1.0
C      1  0.4997350000000  0.5375660000000  0.5759340000000 1.0
C      1  0.5564600000000  0.5289450000000  0.5735690000000 1.0
C      1  0.5689180000000  0.5355900000000  0.5333790000000 1.0
C      1  0.5826220000000  0.5322430000000  0.4839910000000 1.0
C      1  0.5743060000000  0.5302950000000  0.4417870000000 1.0
C      1  0.5214260000000  0.5368200000000  0.4274750000000 1.0
C      1  0.4626340000000  0.4237560000000  0.5342200000000 1.0
C      1  0.4889310000000  0.4201080000000  0.5434350000000 1.0
C      1  0.5162030000000  0.4239940000000  0.5496270000000 1.0
C      1  0.5347680000000  0.4201990000000  0.5287910000000 1.0
C      1  0.5514800000000  0.4236570000000  0.5064940000000 1.0
C      1  0.5406520000000  0.4205500000000  0.4805730000000 1.0
C      1  0.5288040000000  0.4247780000000  0.4556560000000 1.0
C      1  0.4991980000000  0.4253940000000  0.4499660000000 1.0
C      1  0.4806870000000  0.4155250000000  0.4700140000000 1.0
C      1  0.4544680000000  0.4253270000000  0.4792720000000 1.0
C      1  0.4572090000000  0.4189410000000  0.5064020000000 1.0
C      1  0.4715060000000  0.5052630000000  0.4040930000000 1.0
C      1  0.4354260000000  0.5111370000000  0.4436300000000 1.0
C      1  0.4024640000000  0.5049370000000  0.4864490000000 1.0
C      1  0.4221500000000  0.5111710000000  0.5357370000000 1.0
C      1  0.4494320000000  0.5026440000000  0.5844880000000 1.0
C      1  0.5003190000000  0.5116380000000  0.5866430000000 1.0
C      1  0.5554860000000  0.5045680000000  0.5813230000000 1.0
C      1  0.5792600000000  0.5097830000000  0.5385260000000 1.0
C      1  0.5914050000000  0.5051530000000  0.4845270000000 1.0
C      1  0.5763220000000  0.5061740000000  0.4361410000000 1.0
C      1  0.5250220000000  0.5107850000000  0.4176270000000 1.0
C      1  0.5465990000000  0.5101260000000  0.5050640000000 1.0
C      1  0.5401270000000  0.4964040000000  0.4821430000000 1.0
C      1  0.5264100000000  0.5129800000000  0.4623480000000 1.0
C      1  0.4974000000000  0.5147230000000  0.4550630000000 1.0
C      1  0.4759460000000  0.4976830000000  0.4652100000000 1.0
C      1  0.4582020000000  0.5115760000000  0.4843200000000 1.0
C      1  0.4561860000000  0.4973130000000  0.5094440000000 1.0
C      1  0.4678930000000  0.5113150000000  0.5326010000000 1.0
C      1  0.4905770000000  0.4969910000000  0.5440330000000 1.0
C      1  0.5166130000000  0.5109280000000  0.5432290000000 1.0
C      1  0.5370240000000  0.4970920000000  0.5280660000000 1.0
C      1  0.5006130000000  0.4542310000000  0.4429830000000 1.0
C      1  0.4722290000000  0.4688680000000  0.4562160000000 1.0
C      1  0.4496530000000  0.4558240000000  0.4763640000000 1.0
C      1  0.4482120000000  0.4683230000000  0.5083520000000 1.0
C      1  0.4578010000000  0.4553370000000  0.5372820000000 1.0
C      1  0.4859380000000  0.4681910000000  0.5513650000000 1.0
C      1  0.5164670000000  0.4558840000000  0.5548500000000 1.0
C      1  0.5410620000000  0.4682910000000  0.5349720000000 1.0
C      1  0.5573590000000  0.4555330000000  0.5087520000000 1.0
C      1  0.5496050000000  0.4683880000000  0.4786690000000 1.0
C      1  0.5346420000000  0.4550800000000  0.4521070000000 1.0
C      1  0.5274920000000  0.4827700000000  0.4128330000000 1.0
C      1  0.4755470000000  0.4773920000000  0.4086640000000 1.0
C      1  0.4318310000000  0.4830710000000  0.4397520000000 1.0
C      1  0.4067040000000  0.4767870000000  0.4851370000000 1.0
C      1  0.4166830000000  0.4831010000000  0.5376840000000 1.0
C      1  0.4468450000000  0.4752300000000  0.5799160000000 1.0
C      1  0.4998950000000  0.4838470000000  0.5921740000000 1.0
C      1  0.5508940000000  0.4766110000000  0.5815990000000 1.0
C      1  0.5846020000000  0.4818500000000  0.5404810000000 1.0
C      1  0.5956100000000  0.4779270000000  0.4888690000000 1.0
C      1  0.5739220000000  0.4782350000000  0.4382540000000 1.0
C      1  0.5000600000000  0.4977040000000  0.5015090000000 1.0
C      1  0.4973090000000  0.4173520000000  0.4965490000000 1.0
C      1  0.5011330000000  0.5987180000000  0.4999990000000 1.0
C      1  0.5008500000000  0.5743610000000  0.5002090000000 1.0
C      1  0.4992880000000  0.4473120000000  0.4998290000000 1.0
C      1  0.4996980000000  0.4721470000000  0.5006650000000 1.0
C      1  0.5002910000000  0.5236260000000  0.5009170000000 1.0
C      1  0.5005480000000  0.5487700000000  0.5004950000000 1.0
END
