TITL C-2441163-1170-1169 0.00732905252800333 125000 -6504.20209649428 0 0 47 (C1) n - 1
REM
REM in /home/bkarasulu/work/CARBON/AIRSS/Generating-Clusters/ReaxFF-fromJPCA2015/Units_Real/with-SteepDescent/Higher-Symm
REM
REM
REM
REM
REM
REM ./C.cell (1df0a924f5614ab8850e4351716899ee)
REM
REM compiler GCC version 9.2.1 20190827 (Red Hat 9.2.1-1)
REM options -cpp -mtune=generic -march=x86-64 -g -O0 -fpre-include=/usr/include/finclude/math-vector-fortran.h
REM seed 266037029 82369483 1121731410 1373295550 102006849 1831275704 929576885 1142251183 2094138157 1976820991 1767483867 684215247 459839597 -632010453 -1889567772 1096682421 1424387668 -823934374 -792267685 800990789 1634553620 -329214257 -42722599 -410003085 -1965173518 -2145709792 926065383 1424928345 1940230512 -1219034710 839464271 1407424196 -548385960
REM
CELL 1.54180   50.00000   50.00000   50.00000   90.00000   90.00000   90.00000
LATT -1
SFAC C  
C      1  0.5377250000000  0.4573690000000  0.5037440000000 1.0
C      1  0.4659350000000  0.5465950000000  0.4987160000000 1.0
C      1  0.5232580000000  0.5362430000000  0.4720590000000 1.0
C      1  0.4666060000000  0.4811520000000  0.5263650000000 1.0
C      1  0.4468550000000  0.5306040000000  0.5403660000000 1.0
C      1  0.5504740000000  0.4892270000000  0.4638780000000 1.0
C      1  0.4265760000000  0.4842470000000  0.5010130000000 1.0
C      1  0.5722990000000  0.5127280000000  0.4993440000000 1.0
C      1  0.4878650000000  0.5220820000000  0.4464810000000 1.0
C      1  0.5036830000000  0.4791000000000  0.5498450000000 1.0
C      1  0.5576090000000  0.4697400000000  0.4859610000000 1.0
C      1  0.4409990000000  0.5343250000000  0.5119520000000 1.0
C      1  0.4412710000000  0.4631150000000  0.4850220000000 1.0
C      1  0.5629850000000  0.5337470000000  0.5211990000000 1.0
C      1  0.4920850000000  0.5573220000000  0.5071710000000 1.0
C      1  0.5117520000000  0.4425120000000  0.4928670000000 1.0
C      1  0.4366790000000  0.4757530000000  0.5278880000000 1.0
C      1  0.5647570000000  0.5169780000000  0.4722490000000 1.0
C      1  0.5053480000000  0.4449910000000  0.4644330000000 1.0
C      1  0.4948830000000  0.5516490000000  0.5355280000000 1.0
C      1  0.5375310000000  0.4836310000000  0.5426480000000 1.0
C      1  0.4592390000000  0.5119810000000  0.4463940000000 1.0
C      1  0.5192060000000  0.5531200000000  0.4956090000000 1.0
C      1  0.4879340000000  0.4478630000000  0.5073860000000 1.0
C      1  0.4458450000000  0.5209070000000  0.4719120000000 1.0
C      1  0.5586910000000  0.4678790000000  0.5276790000000 1.0
C      1  0.4865610000000  0.4610940000000  0.5346020000000 1.0
C      1  0.4989030000000  0.5419060000000  0.4620810000000 1.0
C      1  0.5144710000000  0.5298800000000  0.5430030000000 1.0
C      1  0.4836930000000  0.4699620000000  0.4587960000000 1.0
C      1  0.5441450000000  0.5125720000000  0.5486570000000 1.0
C      1  0.4609840000000  0.4829270000000  0.4428050000000 1.0
C      1  0.5243760000000  0.4590810000000  0.4501240000000 1.0
C      1  0.4698480000000  0.5460360000000  0.5500250000000 1.0
C      1  0.5045580000000  0.4965560000000  0.4514540000000 1.0
C      1  0.4956090000000  0.5069710000000  0.5500200000000 1.0
C      1  0.4701430000000  0.4577020000000  0.4844100000000 1.0
C      1  0.5334380000000  0.5399700000000  0.5190890000000 1.0
C      1  0.4713100000000  0.5202340000000  0.4875600000000 1.0
C      1  0.5215830000000  0.4783840000000  0.5146050000000 1.0
C      1  0.4689780000000  0.5174720000000  0.5556710000000 1.0
C      1  0.5307940000000  0.4844290000000  0.4410220000000 1.0
C      1  0.4804620000000  0.4996620000000  0.5060760000000 1.0
C      1  0.5204040000000  0.5050330000000  0.4743560000000 1.0
C      1  0.4292280000000  0.5133970000000  0.4947900000000 1.0
C      1  0.5719980000000  0.4827930000000  0.5069460000000 1.0
C      1  0.5074500000000  0.4969480000000  0.4991440000000 1.0
END
