TITL C-2441164-471-1371 0.0512683880364878 125000 -15647.1210948356 0 0 115 (C1) n - 1
REM
REM in /home/bkarasulu/work/CARBON/AIRSS/Generating-Clusters/ReaxFF-fromJPCA2015/Units_Real/with-SteepDescent/Higher-Symm
REM
REM
REM
REM
REM
REM ./C.cell (1df0a924f5614ab8850e4351716899ee)
REM
REM compiler GCC version 9.2.1 20190827 (Red Hat 9.2.1-1)
REM options -cpp -mtune=generic -march=x86-64 -g -O0 -fpre-include=/usr/include/finclude/math-vector-fortran.h
REM seed -305742314 -1508437820 1333812340 -1859511534 1193918966 1131147900 1811837404 375283330 619092101 -1035915644 -1240491609 -1581521856 -1581432452 -116277133 -252261138 812121285 -978850648 1499171623 -289773762 840922382 598915806 -2008660280 1079565039 -1935252005 1162955459 -1184441451 967319348 1503920364 661273076 404475859 -1116200960 1787328846 -1819289479
REM
CELL 1.54180   50.00000   50.00000   50.00000   90.00000   90.00000   90.00000
LATT -1
SFAC C  
C      1  0.5683430000000  0.4662810000000  0.4458930000000 1.0
C      1  0.5123950000000  0.4666310000000  0.5863240000000 1.0
C      1  0.4207290000000  0.4714980000000  0.4648250000000 1.0
C      1  0.4419660000000  0.4607950000000  0.4487280000000 1.0
C      1  0.5745710000000  0.4632020000000  0.4733650000000 1.0
C      1  0.4854220000000  0.4622580000000  0.5778200000000 1.0
C      1  0.4979070000000  0.5213240000000  0.4126840000000 1.0
C      1  0.5759490000000  0.5209420000000  0.5468280000000 1.0
C      1  0.4203660000000  0.5205440000000  0.5382610000000 1.0
C      1  0.4144170000000  0.4861960000000  0.5137290000000 1.0
C      1  0.5279950000000  0.4866460000000  0.4263630000000 1.0
C      1  0.5468590000000  0.4858170000000  0.5584300000000 1.0
C      1  0.5249200000000  0.4480250000000  0.5608770000000 1.0
C      1  0.4393440000000  0.4502290000000  0.4950340000000 1.0
C      1  0.5406540000000  0.4490610000000  0.4482180000000 1.0
C      1  0.4055810000000  0.5119890000000  0.5120610000000 1.0
C      1  0.5359840000000  0.5121170000000  0.4137380000000 1.0
C      1  0.5558250000000  0.5125790000000  0.5711710000000 1.0
C      1  0.4502150000000  0.5746490000000  0.5073680000000 1.0
C      1  0.5197890000000  0.5758550000000  0.4533560000000 1.0
C      1  0.5320400000000  0.5729260000000  0.5394730000000 1.0
C      1  0.4432310000000  0.5386320000000  0.4478610000000 1.0
C      1  0.5734160000000  0.5309470000000  0.4751070000000 1.0
C      1  0.4829290000000  0.5326500000000  0.5760990000000 1.0
C      1  0.4601290000000  0.5085850000000  0.5444790000000 1.0
C      1  0.4782020000000  0.5109830000000  0.4395460000000 1.0
C      1  0.5613940000000  0.5100260000000  0.5069960000000 1.0
C      1  0.5142530000000  0.4948220000000  0.5903780000000 1.0
C      1  0.4232460000000  0.5019610000000  0.4617220000000 1.0
C      1  0.5711120000000  0.4951660000000  0.4421590000000 1.0
C      1  0.5232560000000  0.4123020000000  0.4831800000000 1.0
C      1  0.5031190000000  0.4116030000000  0.5285500000000 1.0
C      1  0.4755320000000  0.4145120000000  0.4887530000000 1.0
C      1  0.5013790000000  0.5107440000000  0.5654770000000 1.0
C      1  0.4487320000000  0.4990170000000  0.4781590000000 1.0
C      1  0.5550080000000  0.5101780000000  0.4649920000000 1.0
C      1  0.5251860000000  0.5414920000000  0.4854380000000 1.0
C      1  0.5004180000000  0.5431290000000  0.5266830000000 1.0
C      1  0.4770250000000  0.5419040000000  0.4829120000000 1.0
C      1  0.5339400000000  0.5152930000000  0.5920630000000 1.0
C      1  0.4099370000000  0.5179360000000  0.4834430000000 1.0
C      1  0.5620960000000  0.5155290000000  0.4246550000000 1.0
C      1  0.5863360000000  0.4949190000000  0.5380650000000 1.0
C      1  0.4232060000000  0.4951130000000  0.5542810000000 1.0
C      1  0.4889700000000  0.4940990000000  0.4043200000000 1.0
C      1  0.5211530000000  0.5035130000000  0.5194560000000 1.0
C      1  0.4816280000000  0.4928020000000  0.5057050000000 1.0
C      1  0.4957540000000  0.4970350000000  0.4818330000000 1.0
C      1  0.4711460000000  0.5161250000000  0.5191970000000 1.0
C      1  0.4945670000000  0.5201690000000  0.4628910000000 1.0
C      1  0.5371790000000  0.5224540000000  0.5055380000000 1.0
C      1  0.4814420000000  0.5733480000000  0.5476690000000 1.0
C      1  0.4685030000000  0.5759250000000  0.4597720000000 1.0
C      1  0.5528630000000  0.5731230000000  0.4922500000000 1.0
C      1  0.5453990000000  0.5636150000000  0.4459970000000 1.0
C      1  0.5244910000000  0.5593940000000  0.5644030000000 1.0
C      1  0.4306460000000  0.5635960000000  0.4891200000000 1.0
C      1  0.5549450000000  0.5656780000000  0.5218150000000 1.0
C      1  0.4545400000000  0.5660170000000  0.5356660000000 1.0
C      1  0.4920740000000  0.5687130000000  0.4424740000000 1.0
C      1  0.5637430000000  0.5584100000000  0.4694650000000 1.0
C      1  0.4945620000000  0.5582740000000  0.5684880000000 1.0
C      1  0.4411670000000  0.5638100000000  0.4609320000000 1.0
C      1  0.4569480000000  0.4298850000000  0.5316030000000 1.0
C      1  0.4959380000000  0.4312320000000  0.4469350000000 1.0
C      1  0.5470980000000  0.4318230000000  0.5216170000000 1.0
C      1  0.4615360000000  0.4781660000000  0.4633120000000 1.0
C      1  0.5509910000000  0.4840870000000  0.4770760000000 1.0
C      1  0.4930430000000  0.4819560000000  0.5558580000000 1.0
C      1  0.4580780000000  0.4684940000000  0.4248800000000 1.0
C      1  0.5854730000000  0.4705160000000  0.4993660000000 1.0
C      1  0.4577180000000  0.4704800000000  0.5730920000000 1.0
C      1  0.5873320000000  0.5196660000000  0.4980050000000 1.0
C      1  0.4572760000000  0.5202120000000  0.5717730000000 1.0
C      1  0.4469030000000  0.5145960000000  0.4371540000000 1.0
C      1  0.5162740000000  0.4719840000000  0.5157310000000 1.0
C      1  0.4864720000000  0.4639050000000  0.5115650000000 1.0
C      1  0.5048080000000  0.4724170000000  0.4713030000000 1.0
C      1  0.5299170000000  0.4756340000000  0.4577520000000 1.0
C      1  0.5202530000000  0.4734800000000  0.5465120000000 1.0
C      1  0.4314710000000  0.4771390000000  0.4932800000000 1.0
C      1  0.5689820000000  0.4712980000000  0.5494770000000 1.0
C      1  0.4212790000000  0.4714270000000  0.5365160000000 1.0
C      1  0.5084730000000  0.4709150000000  0.4136210000000 1.0
C      1  0.4351390000000  0.4476250000000  0.5235510000000 1.0
C      1  0.5141790000000  0.4468980000000  0.4303240000000 1.0
C      1  0.5528540000000  0.4462790000000  0.5463580000000 1.0
C      1  0.5583400000000  0.4816380000000  0.5051870000000 1.0
C      1  0.4657710000000  0.4814130000000  0.5469930000000 1.0
C      1  0.4774310000000  0.4829540000000  0.4426820000000 1.0
C      1  0.4971630000000  0.4115880000000  0.4692570000000 1.0
C      1  0.5274860000000  0.4113780000000  0.5125830000000 1.0
C      1  0.4753150000000  0.4112680000000  0.5174590000000 1.0
C      1  0.5369370000000  0.4365330000000  0.4756780000000 1.0
C      1  0.5035270000000  0.4330790000000  0.5473020000000 1.0
C      1  0.4684450000000  0.4436310000000  0.4890700000000 1.0
C      1  0.5380810000000  0.4516940000000  0.5012760000000 1.0
C      1  0.4802830000000  0.4472330000000  0.5369020000000 1.0
C      1  0.4868180000000  0.4508380000000  0.4672170000000 1.0
C      1  0.5046270000000  0.5728150000000  0.5301380000000 1.0
C      1  0.4720810000000  0.5726550000000  0.4880510000000 1.0
C      1  0.5262100000000  0.5747090000000  0.4814690000000 1.0
C      1  0.5674860000000  0.5431510000000  0.5329320000000 1.0
C      1  0.4374410000000  0.5433050000000  0.5392350000000 1.0
C      1  0.4935600000000  0.5461120000000  0.4254430000000 1.0
C      1  0.5140290000000  0.5210350000000  0.5401130000000 1.0
C      1  0.4546440000000  0.5243330000000  0.4946770000000 1.0
C      1  0.5248370000000  0.5256160000000  0.4590710000000 1.0
C      1  0.5972480000000  0.4946040000000  0.5111860000000 1.0
C      1  0.4418920000000  0.4949900000000  0.5771180000000 1.0
C      1  0.4606860000000  0.4921550000000  0.4085920000000 1.0
C      1  0.5373380000000  0.5375400000000  0.4342760000000 1.0
C      1  0.5380410000000  0.5367310000000  0.5746660000000 1.0
C      1  0.4273160000000  0.5371110000000  0.4939000000000 1.0
C      1  0.5000950000000  0.5397660000000  0.4987760000000 1.0
END
