TITL C-2441167-4473-42 0.0980000190379538 125000 -21381.6161837199 0 0 159 (C1) n - 1
REM
REM in /home/bkarasulu/work/CARBON/AIRSS/Generating-Clusters/ReaxFF-fromJPCA2015/Units_Real/with-SteepDescent/Higher-Symm
REM
REM
REM
REM
REM
REM ./C.cell (1df0a924f5614ab8850e4351716899ee)
REM
REM compiler GCC version 9.2.1 20190827 (Red Hat 9.2.1-1)
REM options -cpp -mtune=generic -march=x86-64 -g -O0 -fpre-include=/usr/include/finclude/math-vector-fortran.h
REM seed 1751265324 2052075431 -1351159685 -1713727201 884231850 1839397262 185544884 -1664318081 1737992140 -1431562946 210620819 937726005 1135470858 981944473 -2032829066 -959035653 -1684702409 -1412351906 -1771983053 25953880 2012020962 609941403 -1680479795 -269754006 -304045607 -837209770 -1366415988 -229948416 -1940836810 1469844738 -1454891797 1631638609 -1081117035
REM
CELL 1.54180   50.00000   50.00000   50.00000   90.00000   90.00000   90.00000
LATT -1
SFAC C  
C      1  0.4794320000000  0.4850030000000  0.5264030000000 1.0
C      1  0.4640230000000  0.4849210000000  0.4851990000000 1.0
C      1  0.5018440000000  0.4854980000000  0.4612910000000 1.0
C      1  0.5379660000000  0.4898540000000  0.4892340000000 1.0
C      1  0.5238720000000  0.4874890000000  0.5342210000000 1.0
C      1  0.5258850000000  0.5141040000000  0.5318830000000 1.0
C      1  0.5350070000000  0.5150110000000  0.4849600000000 1.0
C      1  0.4977830000000  0.5112760000000  0.4608350000000 1.0
C      1  0.4541380000000  0.5109140000000  0.4863280000000 1.0
C      1  0.4809580000000  0.5121860000000  0.5286980000000 1.0
C      1  0.5162580000000  0.5709130000000  0.5579620000000 1.0
C      1  0.4545520000000  0.5684100000000  0.5339260000000 1.0
C      1  0.4568450000000  0.5704500000000  0.4651780000000 1.0
C      1  0.5187690000000  0.5723510000000  0.4500490000000 1.0
C      1  0.5563730000000  0.5687970000000  0.5067450000000 1.0
C      1  0.4786840000000  0.4298090000000  0.5548900000000 1.0
C      1  0.5435270000000  0.4296600000000  0.5267370000000 1.0
C      1  0.5438100000000  0.4305050000000  0.4647010000000 1.0
C      1  0.4821180000000  0.4284780000000  0.4483260000000 1.0
C      1  0.4408000000000  0.4306740000000  0.5098800000000 1.0
C      1  0.5614870000000  0.4550530000000  0.5672860000000 1.0
C      1  0.4487920000000  0.4576860000000  0.5826600000000 1.0
C      1  0.4101050000000  0.4593710000000  0.4816050000000 1.0
C      1  0.4906860000000  0.4526140000000  0.4052080000000 1.0
C      1  0.5833830000000  0.4564370000000  0.4622740000000 1.0
C      1  0.4385180000000  0.5391130000000  0.5677840000000 1.0
C      1  0.5488270000000  0.5492990000000  0.5803780000000 1.0
C      1  0.5941320000000  0.5447370000000  0.4800450000000 1.0
C      1  0.5100930000000  0.5461070000000  0.4088140000000 1.0
C      1  0.4163700000000  0.5437360000000  0.4627450000000 1.0
C      1  0.5429770000000  0.4764110000000  0.5163720000000 1.0
C      1  0.4993980000000  0.4731210000000  0.5422340000000 1.0
C      1  0.4604630000000  0.4722240000000  0.5095320000000 1.0
C      1  0.4768550000000  0.4736190000000  0.4625480000000 1.0
C      1  0.5262260000000  0.4729640000000  0.4691020000000 1.0
C      1  0.4616490000000  0.5257110000000  0.5122800000000 1.0
C      1  0.5024690000000  0.5244530000000  0.5442410000000 1.0
C      1  0.5403770000000  0.5283620000000  0.5086250000000 1.0
C      1  0.5221390000000  0.5261960000000  0.4623580000000 1.0
C      1  0.4720670000000  0.5251780000000  0.4673270000000 1.0
C      1  0.4673740000000  0.4826690000000  0.4331180000000 1.0
C      1  0.5426210000000  0.4713800000000  0.4492300000000 1.0
C      1  0.5683190000000  0.4815760000000  0.5290120000000 1.0
C      1  0.4838560000000  0.4800880000000  0.5656410000000 1.0
C      1  0.4342750000000  0.4756080000000  0.5144510000000 1.0
C      1  0.5330470000000  0.5223140000000  0.4346290000000 1.0
C      1  0.4534820000000  0.5284110000000  0.4484600000000 1.0
C      1  0.4389190000000  0.5274230000000  0.5245670000000 1.0
C      1  0.5169240000000  0.5169320000000  0.5781660000000 1.0
C      1  0.5691470000000  0.5206260000000  0.5060610000000 1.0
C      1  0.4893460000000  0.4609560000000  0.5865440000000 1.0
C      1  0.4103280000000  0.4618660000000  0.5216010000000 1.0
C      1  0.4530950000000  0.4590720000000  0.4230520000000 1.0
C      1  0.5588120000000  0.4590430000000  0.4311120000000 1.0
C      1  0.5850680000000  0.4581970000000  0.5329720000000 1.0
C      1  0.5067840000000  0.5412630000000  0.5928710000000 1.0
C      1  0.5886140000000  0.5372000000000  0.5198980000000 1.0
C      1  0.5492470000000  0.5435130000000  0.4224760000000 1.0
C      1  0.4407950000000  0.5424060000000  0.4302130000000 1.0
C      1  0.4163690000000  0.5399130000000  0.5343180000000 1.0
C      1  0.5583400000000  0.5754060000000  0.4650320000000 1.0
C      1  0.5547010000000  0.5742310000000  0.5348970000000 1.0
C      1  0.4692840000000  0.5747650000000  0.5573300000000 1.0
C      1  0.4320260000000  0.5732890000000  0.4990260000000 1.0
C      1  0.4810880000000  0.5746900000000  0.4323270000000 1.0
C      1  0.4421170000000  0.4257000000000  0.4661020000000 1.0
C      1  0.4429820000000  0.4232660000000  0.5380910000000 1.0
C      1  0.5193940000000  0.4304170000000  0.5600860000000 1.0
C      1  0.5692880000000  0.4226010000000  0.4954290000000 1.0
C      1  0.5197080000000  0.4236080000000  0.4309460000000 1.0
C      1  0.5732070000000  0.4839350000000  0.5687830000000 1.0
C      1  0.4552270000000  0.4872580000000  0.5924450000000 1.0
C      1  0.4047280000000  0.4883160000000  0.4915040000000 1.0
C      1  0.4818680000000  0.4793190000000  0.3977730000000 1.0
C      1  0.5826090000000  0.4851580000000  0.4542540000000 1.0
C      1  0.4330560000000  0.5096900000000  0.5637290000000 1.0
C      1  0.5435500000000  0.5222230000000  0.5897270000000 1.0
C      1  0.6047400000000  0.5155950000000  0.4869990000000 1.0
C      1  0.5185340000000  0.5169500000000  0.4097650000000 1.0
C      1  0.4151020000000  0.5153410000000  0.4516470000000 1.0
C      1  0.5345030000000  0.4504440000000  0.5762860000000 1.0
C      1  0.4379830000000  0.4484340000000  0.5577960000000 1.0
C      1  0.4263360000000  0.4497800000000  0.4597130000000 1.0
C      1  0.5180410000000  0.4478990000000  0.4148520000000 1.0
C      1  0.5846130000000  0.4463200000000  0.4894330000000 1.0
C      1  0.4637330000000  0.5500370000000  0.5755340000000 1.0
C      1  0.5607190000000  0.5519590000000  0.5545860000000 1.0
C      1  0.5758300000000  0.5518530000000  0.4589590000000 1.0
C      1  0.4822830000000  0.5512140000000  0.4161020000000 1.0
C      1  0.4147630000000  0.5507200000000  0.4915900000000 1.0
C      1  0.5367030000000  0.4492350000000  0.5090740000000 1.0
C      1  0.5006850000000  0.4446630000000  0.5450530000000 1.0
C      1  0.4658240000000  0.4453170000000  0.5071610000000 1.0
C      1  0.4831600000000  0.4464460000000  0.4677500000000 1.0
C      1  0.5271940000000  0.4464620000000  0.4821150000000 1.0
C      1  0.4734360000000  0.5534870000000  0.5079390000000 1.0
C      1  0.5038780000000  0.5518090000000  0.5415000000000 1.0
C      1  0.5262620000000  0.5564520000000  0.4981000000000 1.0
C      1  0.5118390000000  0.5537600000000  0.4712100000000 1.0
C      1  0.4784200000000  0.5539910000000  0.4779660000000 1.0
C      1  0.5287620000000  0.6013560000000  0.5012100000000 1.0
C      1  0.5138880000000  0.5983220000000  0.5482550000000 1.0
C      1  0.4789800000000  0.5989190000000  0.5133290000000 1.0
C      1  0.4610830000000  0.5985590000000  0.4707030000000 1.0
C      1  0.5102940000000  0.5975090000000  0.4639260000000 1.0
C      1  0.4703260000000  0.3988040000000  0.5010420000000 1.0
C      1  0.4859660000000  0.4020380000000  0.5476910000000 1.0
C      1  0.5255050000000  0.4058270000000  0.5180900000000 1.0
C      1  0.5401830000000  0.4022650000000  0.4697090000000 1.0
C      1  0.4897680000000  0.4033410000000  0.4641580000000 1.0
C      1  0.4291690000000  0.4682690000000  0.4362750000000 1.0
C      1  0.5420770000000  0.4660160000000  0.4085350000000 1.0
C      1  0.5988980000000  0.4663150000000  0.5083750000000 1.0
C      1  0.5167420000000  0.4679480000000  0.5926030000000 1.0
C      1  0.4155060000000  0.4664340000000  0.5502110000000 1.0
C      1  0.5725980000000  0.5334930000000  0.4359420000000 1.0
C      1  0.4588260000000  0.5327720000000  0.4093100000000 1.0
C      1  0.4007880000000  0.5327830000000  0.5120170000000 1.0
C      1  0.4793280000000  0.5336660000000  0.5941530000000 1.0
C      1  0.5785660000000  0.5309440000000  0.5458960000000 1.0
C      1  0.5811220000000  0.5016510000000  0.5450030000000 1.0
C      1  0.4793450000000  0.5036690000000  0.6007110000000 1.0
C      1  0.4043380000000  0.5037710000000  0.5179040000000 1.0
C      1  0.4544120000000  0.5034080000000  0.4163790000000 1.0
C      1  0.5701060000000  0.5033680000000  0.4325890000000 1.0
C      1  0.4143120000000  0.4959830000000  0.5454030000000 1.0
C      1  0.5074870000000  0.4957930000000  0.5969140000000 1.0
C      1  0.6000390000000  0.4955840000000  0.5086430000000 1.0
C      1  0.5496370000000  0.4936640000000  0.4140660000000 1.0
C      1  0.4292400000000  0.4975460000000  0.4325220000000 1.0
C      1  0.4851240000000  0.5957250000000  0.5425080000000 1.0
C      1  0.4526230000000  0.5945140000000  0.4985740000000 1.0
C      1  0.4828670000000  0.5969850000000  0.4491020000000 1.0
C      1  0.5417250000000  0.5966260000000  0.4737390000000 1.0
C      1  0.5368300000000  0.5974770000000  0.5300560000000 1.0
C      1  0.5150480000000  0.4047170000000  0.5457850000000 1.0
C      1  0.5501570000000  0.4017410000000  0.4981170000000 1.0
C      1  0.5168060000000  0.4024620000000  0.4505610000000 1.0
C      1  0.4580100000000  0.4046290000000  0.4744210000000 1.0
C      1  0.4623250000000  0.4018150000000  0.5300030000000 1.0
C      1  0.4721970000000  0.4372090000000  0.4220320000000 1.0
C      1  0.5661930000000  0.4378580000000  0.4480470000000 1.0
C      1  0.5664430000000  0.4384190000000  0.5438290000000 1.0
C      1  0.4708080000000  0.4387920000000  0.5827880000000 1.0
C      1  0.4145300000000  0.4408460000000  0.5026950000000 1.0
C      1  0.5276120000000  0.5638700000000  0.4233700000000 1.0
C      1  0.4331870000000  0.5631870000000  0.4495040000000 1.0
C      1  0.4303550000000  0.5595180000000  0.5483570000000 1.0
C      1  0.5237980000000  0.5625410000000  0.5844210000000 1.0
C      1  0.5837600000000  0.5596990000000  0.5018290000000 1.0
C      1  0.4235030000000  0.5057590000000  0.4775400000000 1.0
C      1  0.4593990000000  0.4958660000000  0.5648450000000 1.0
C      1  0.4951520000000  0.4999580000000  0.4103510000000 1.0
C      1  0.5807010000000  0.5050310000000  0.4742850000000 1.0
C      1  0.5539360000000  0.5001180000000  0.5786030000000 1.0
C      1  0.5018460000000  0.5993430000000  0.4956890000000 1.0
C      1  0.4975800000000  0.4090480000000  0.4966130000000 1.0
C      1  0.5018120000000  0.5566440000000  0.5136770000000 1.0
C      1  0.4910040000000  0.4383330000000  0.4948400000000 1.0
END
