TITL C-2441168-9922-1001 0.0659132169093444 125000 -9706.76742280753 0 0 77 (C1) n - 1
REM
REM in /home/bkarasulu/work/CARBON/AIRSS/Generating-Clusters/ReaxFF-fromJPCA2015/Units_Real/with-SteepDescent/Higher-Symm
REM
REM
REM
REM
REM
REM ./C.cell (1df0a924f5614ab8850e4351716899ee)
REM
REM compiler GCC version 9.2.1 20190827 (Red Hat 9.2.1-1)
REM options -cpp -mtune=generic -march=x86-64 -g -O0 -fpre-include=/usr/include/finclude/math-vector-fortran.h
REM seed 59157838 383642621 682586215 557864649 627977080 1532041289 -277317921 1215468453 -519006003 -1260790946 1669465430 1769680824 770484240 -1597864705 -58838302 15980251 1145826555 661100417 -1596867956 292115221 -27028492 1753574227 911934373 689191517 -32461637 -1372191070 -1646102584 -2025819648 -1473114717 -1107906150 1629952300 -308014977 1950628624
REM
CELL 1.54180   50.00000   50.00000   50.00000   90.00000   90.00000   90.00000
LATT -1
SFAC C  
C      1  0.5230250000000  0.5665110000000  0.5240730000000 1.0
C      1  0.4955200000000  0.5666190000000  0.5334170000000 1.0
C      1  0.4709290000000  0.5672040000000  0.5177030000000 1.0
C      1  0.4676070000000  0.5674030000000  0.4886670000000 1.0
C      1  0.4885100000000  0.5674490000000  0.4681110000000 1.0
C      1  0.5177100000000  0.5671990000000  0.4717050000000 1.0
C      1  0.5328960000000  0.5667530000000  0.4967280000000 1.0
C      1  0.4978360000000  0.4742180000000  0.4652800000000 1.0
C      1  0.5244070000000  0.4755000000000  0.4769110000000 1.0
C      1  0.5314700000000  0.4739960000000  0.5044920000000 1.0
C      1  0.5163920000000  0.4754120000000  0.5295650000000 1.0
C      1  0.4872050000000  0.4754140000000  0.5323240000000 1.0
C      1  0.4689050000000  0.4741850000000  0.5100420000000 1.0
C      1  0.4733930000000  0.4738690000000  0.4816640000000 1.0
C      1  0.4852110000000  0.4472660000000  0.5423370000000 1.0
C      1  0.4566990000000  0.4489410000000  0.5161070000000 1.0
C      1  0.4613550000000  0.4484040000000  0.4762670000000 1.0
C      1  0.4953060000000  0.4452040000000  0.4573340000000 1.0
C      1  0.5330190000000  0.4495710000000  0.4669420000000 1.0
C      1  0.5441660000000  0.4485030000000  0.5048990000000 1.0
C      1  0.5241840000000  0.4479870000000  0.5384000000000 1.0
C      1  0.4913530000000  0.5231650000000  0.4692980000000 1.0
C      1  0.5183730000000  0.5232880000000  0.4740530000000 1.0
C      1  0.5308120000000  0.5233220000000  0.4980270000000 1.0
C      1  0.5202750000000  0.5234330000000  0.5225460000000 1.0
C      1  0.4946320000000  0.5235050000000  0.5298280000000 1.0
C      1  0.4729360000000  0.5236940000000  0.5144190000000 1.0
C      1  0.4711280000000  0.5233190000000  0.4875720000000 1.0
C      1  0.5103030000000  0.4659300000000  0.5702580000000 1.0
C      1  0.4520250000000  0.4646240000000  0.5530860000000 1.0
C      1  0.4277620000000  0.4650720000000  0.4940570000000 1.0
C      1  0.4567840000000  0.4645870000000  0.4405410000000 1.0
C      1  0.5175110000000  0.4631690000000  0.4302240000000 1.0
C      1  0.5690800000000  0.4633300000000  0.4719600000000 1.0
C      1  0.5620740000000  0.4664210000000  0.5352150000000 1.0
C      1  0.5633200000000  0.5306750000000  0.5271380000000 1.0
C      1  0.5186670000000  0.5306260000000  0.5665310000000 1.0
C      1  0.4598190000000  0.5308130000000  0.5569110000000 1.0
C      1  0.4307830000000  0.5320610000000  0.5039790000000 1.0
C      1  0.4548040000000  0.5307410000000  0.4463280000000 1.0
C      1  0.5143940000000  0.5308980000000  0.4312940000000 1.0
C      1  0.5621800000000  0.5301580000000  0.4686180000000 1.0
C      1  0.5714750000000  0.4896620000000  0.4635000000000 1.0
C      1  0.5746400000000  0.4897870000000  0.5321270000000 1.0
C      1  0.5218370000000  0.4898440000000  0.5783870000000 1.0
C      1  0.4522430000000  0.4899070000000  0.5648310000000 1.0
C      1  0.4196110000000  0.4897690000000  0.5031250000000 1.0
C      1  0.4477070000000  0.4897860000000  0.4380860000000 1.0
C      1  0.5152130000000  0.4898780000000  0.4220890000000 1.0
C      1  0.4819250000000  0.5440310000000  0.4510440000000 1.0
C      1  0.5276280000000  0.5440440000000  0.4555490000000 1.0
C      1  0.5520910000000  0.5431150000000  0.4960140000000 1.0
C      1  0.5356200000000  0.5424260000000  0.5384200000000 1.0
C      1  0.4917780000000  0.5426090000000  0.5516150000000 1.0
C      1  0.4548340000000  0.5432860000000  0.5254770000000 1.0
C      1  0.4506780000000  0.5437690000000  0.4829370000000 1.0
C      1  0.4422350000000  0.4409720000000  0.4938830000000 1.0
C      1  0.4680180000000  0.4412710000000  0.4495050000000 1.0
C      1  0.5187460000000  0.4397130000000  0.4455680000000 1.0
C      1  0.5553720000000  0.4406270000000  0.4809750000000 1.0
C      1  0.5501670000000  0.4416930000000  0.5308730000000 1.0
C      1  0.5064960000000  0.4408430000000  0.5583740000000 1.0
C      1  0.4588730000000  0.4402430000000  0.5410810000000 1.0
C      1  0.5000670000000  0.5063540000000  0.5691090000000 1.0
C      1  0.4452690000000  0.5080210000000  0.5438230000000 1.0
C      1  0.4326020000000  0.5066650000000  0.4839590000000 1.0
C      1  0.4702610000000  0.5080420000000  0.4357560000000 1.0
C      1  0.5322390000000  0.5080940000000  0.4365990000000 1.0
C      1  0.5690410000000  0.5074700000000  0.4858990000000 1.0
C      1  0.5532930000000  0.5052570000000  0.5430790000000 1.0
C      1  0.5582630000000  0.5103080000000  0.4470800000000 1.0
C      1  0.5789220000000  0.5107600000000  0.5118950000000 1.0
C      1  0.5404930000000  0.5104790000000  0.5681200000000 1.0
C      1  0.4722780000000  0.5098320000000  0.5741020000000 1.0
C      1  0.4253250000000  0.5102800000000  0.5239570000000 1.0
C      1  0.4354690000000  0.5100910000000  0.4563190000000 1.0
C      1  0.4945310000000  0.5106310000000  0.4219880000000 1.0
END
