TITL C-2441168-9922-537 0.203139965905269 125000 -20862.3980066269 0 0 177 (C1) n - 1
REM
REM in /home/bkarasulu/work/CARBON/AIRSS/Generating-Clusters/ReaxFF-fromJPCA2015/Units_Real/with-SteepDescent/Higher-Symm
REM
REM
REM
REM
REM
REM ./C.cell (1df0a924f5614ab8850e4351716899ee)
REM
REM compiler GCC version 9.2.1 20190827 (Red Hat 9.2.1-1)
REM options -cpp -mtune=generic -march=x86-64 -g -O0 -fpre-include=/usr/include/finclude/math-vector-fortran.h
REM seed -1750375638 -1987448155 -716337384 -1352893541 829973916 -1115026839 341730023 443284265 382757179 -723766934 -731070479 965195850 -1149632934 -950657896 -1989455225 -1432091757 897872216 -56948021 1959210985 -1410887991 661546834 -1760038449 337150983 -1821673767 1887820771 394826966 -1504641166 996110047 -931211091 1034687465 -1813234733 1311458918 1452404356
REM
CELL 1.54180   50.00000   50.00000   50.00000   90.00000   90.00000   90.00000
LATT -1
SFAC C  
C      1  0.5392520000000  0.5033600000000  0.4047380000000 1.0
C      1  0.5620910000000  0.5050750000000  0.5820720000000 1.0
C      1  0.3981570000000  0.5075160000000  0.5133510000000 1.0
C      1  0.5389060000000  0.5048250000000  0.5982850000000 1.0
C      1  0.5630740000000  0.5023550000000  0.4192060000000 1.0
C      1  0.3947360000000  0.5089880000000  0.4854190000000 1.0
C      1  0.5546030000000  0.5523750000000  0.5122060000000 1.0
C      1  0.4635970000000  0.5512080000000  0.5422320000000 1.0
C      1  0.4804200000000  0.5404120000000  0.4380940000000 1.0
C      1  0.5605250000000  0.5522390000000  0.4852530000000 1.0
C      1  0.4618000000000  0.5518070000000  0.4569040000000 1.0
C      1  0.4819300000000  0.5359520000000  0.5606280000000 1.0
C      1  0.4172800000000  0.5073570000000  0.5656330000000 1.0
C      1  0.4842010000000  0.5109070000000  0.3938880000000 1.0
C      1  0.5976580000000  0.5074250000000  0.5392540000000 1.0
C      1  0.4187190000000  0.5085250000000  0.4337780000000 1.0
C      1  0.4841800000000  0.5157970000000  0.6074080000000 1.0
C      1  0.5983380000000  0.5133420000000  0.4574090000000 1.0
C      1  0.4440290000000  0.4732930000000  0.5831380000000 1.0
C      1  0.4686750000000  0.4694620000000  0.4036890000000 1.0
C      1  0.6024090000000  0.4723430000000  0.5076170000000 1.0
C      1  0.4430360000000  0.4739300000000  0.4153490000000 1.0
C      1  0.4693640000000  0.4695880000000  0.5965200000000 1.0
C      1  0.6015960000000  0.4697010000000  0.4776290000000 1.0
C      1  0.3994620000000  0.5586010000000  0.5129740000000 1.0
C      1  0.5432270000000  0.5598210000000  0.4094340000000 1.0
C      1  0.5610020000000  0.5555640000000  0.5842710000000 1.0
C      1  0.3998160000000  0.5517480000000  0.4860270000000 1.0
C      1  0.5340330000000  0.5563350000000  0.5943600000000 1.0
C      1  0.5671260000000  0.5553930000000  0.4227670000000 1.0
C      1  0.4116120000000  0.4526310000000  0.4556570000000 1.0
C      1  0.5778940000000  0.4481940000000  0.4410440000000 1.0
C      1  0.5139460000000  0.4455990000000  0.5976200000000 1.0
C      1  0.4142480000000  0.4531400000000  0.5474990000000 1.0
C      1  0.5834930000000  0.4542570000000  0.5532980000000 1.0
C      1  0.5110360000000  0.4474520000000  0.4014720000000 1.0
C      1  0.5072340000000  0.4833030000000  0.4709100000000 1.0
C      1  0.5215200000000  0.4908800000000  0.5115810000000 1.0
C      1  0.4814350000000  0.4866130000000  0.5155630000000 1.0
C      1  0.5062360000000  0.4833840000000  0.5301320000000 1.0
C      1  0.5225430000000  0.4916770000000  0.4885260000000 1.0
C      1  0.4837350000000  0.4879850000000  0.4873710000000 1.0
C      1  0.5000540000000  0.4101860000000  0.4709250000000 1.0
C      1  0.5264350000000  0.4124430000000  0.5152500000000 1.0
C      1  0.4736520000000  0.4106430000000  0.5149950000000 1.0
C      1  0.4990000000000  0.4093530000000  0.5293890000000 1.0
C      1  0.5255810000000  0.4082120000000  0.4845490000000 1.0
C      1  0.4738520000000  0.4118070000000  0.4855230000000 1.0
C      1  0.4198400000000  0.5349150000000  0.4435820000000 1.0
C      1  0.5850040000000  0.5361900000000  0.4443220000000 1.0
C      1  0.5053370000000  0.5328700000000  0.5999170000000 1.0
C      1  0.4200190000000  0.5347470000000  0.5562790000000 1.0
C      1  0.5881230000000  0.5343530000000  0.5422310000000 1.0
C      1  0.4975950000000  0.5341330000000  0.4022570000000 1.0
C      1  0.5602570000000  0.5206930000000  0.4462640000000 1.0
C      1  0.5202120000000  0.5214760000000  0.5776350000000 1.0
C      1  0.4179350000000  0.5271610000000  0.4718240000000 1.0
C      1  0.5618050000000  0.5225210000000  0.5529290000000 1.0
C      1  0.5204510000000  0.5245900000000  0.4161560000000 1.0
C      1  0.4241490000000  0.5225690000000  0.5287430000000 1.0
C      1  0.4355470000000  0.4544270000000  0.4386410000000 1.0
C      1  0.5881280000000  0.4455470000000  0.4678690000000 1.0
C      1  0.4855290000000  0.4457890000000  0.5927120000000 1.0
C      1  0.4352200000000  0.4518930000000  0.5657580000000 1.0
C      1  0.5914270000000  0.4510060000000  0.5251210000000 1.0
C      1  0.4828550000000  0.4448890000000  0.4069530000000 1.0
C      1  0.5259670000000  0.5950180000000  0.4795730000000 1.0
C      1  0.5012340000000  0.5977820000000  0.5340570000000 1.0
C      1  0.4725110000000  0.5926570000000  0.4832280000000 1.0
C      1  0.5265840000000  0.5952670000000  0.5205350000000 1.0
C      1  0.5007790000000  0.5974360000000  0.4649670000000 1.0
C      1  0.4723970000000  0.5938670000000  0.5162890000000 1.0
C      1  0.4791730000000  0.4863630000000  0.4411580000000 1.0
C      1  0.5619880000000  0.4836840000000  0.5159540000000 1.0
C      1  0.4551270000000  0.4798030000000  0.5431010000000 1.0
C      1  0.4787390000000  0.4805830000000  0.5586080000000 1.0
C      1  0.5626240000000  0.4821270000000  0.4875370000000 1.0
C      1  0.4557200000000  0.4779140000000  0.4556410000000 1.0
C      1  0.5290710000000  0.5184170000000  0.5137490000000 1.0
C      1  0.4747380000000  0.5163410000000  0.5177100000000 1.0
C      1  0.5008440000000  0.5250770000000  0.4718940000000 1.0
C      1  0.5306000000000  0.5173710000000  0.4845220000000 1.0
C      1  0.4752460000000  0.5154610000000  0.4838100000000 1.0
C      1  0.5013680000000  0.5286670000000  0.5231250000000 1.0
C      1  0.5025120000000  0.4532370000000  0.5303780000000 1.0
C      1  0.4726280000000  0.4583330000000  0.4832430000000 1.0
C      1  0.5261940000000  0.4500510000000  0.4849630000000 1.0
C      1  0.5028880000000  0.4533850000000  0.4682540000000 1.0
C      1  0.4738830000000  0.4562300000000  0.5141410000000 1.0
C      1  0.5257690000000  0.4449780000000  0.5132180000000 1.0
C      1  0.4411930000000  0.5897680000000  0.4863890000000 1.0
C      1  0.5403550000000  0.5913300000000  0.4533040000000 1.0
C      1  0.5135990000000  0.5908850000000  0.5594630000000 1.0
C      1  0.4420590000000  0.5910310000000  0.5147110000000 1.0
C      1  0.5403870000000  0.5909100000000  0.5468740000000 1.0
C      1  0.5142430000000  0.5901420000000  0.4403240000000 1.0
C      1  0.4992140000000  0.4150860000000  0.5577610000000 1.0
C      1  0.4495730000000  0.4181930000000  0.4699070000000 1.0
C      1  0.5508040000000  0.4148310000000  0.4716310000000 1.0
C      1  0.4991240000000  0.4150840000000  0.4415890000000 1.0
C      1  0.4489250000000  0.4178280000000  0.5309780000000 1.0
C      1  0.5541630000000  0.4177910000000  0.5298690000000 1.0
C      1  0.5366660000000  0.4735690000000  0.4047260000000 1.0
C      1  0.5626620000000  0.4754870000000  0.5823900000000 1.0
C      1  0.3959210000000  0.4782910000000  0.5119990000000 1.0
C      1  0.5355040000000  0.4735560000000  0.5973220000000 1.0
C      1  0.5635910000000  0.4727670000000  0.4211270000000 1.0
C      1  0.3945760000000  0.4767090000000  0.4835960000000 1.0
C      1  0.5417110000000  0.5445250000000  0.5488550000000 1.0
C      1  0.4374780000000  0.5439200000000  0.5137320000000 1.0
C      1  0.5199050000000  0.5440590000000  0.4399270000000 1.0
C      1  0.5453430000000  0.5449110000000  0.4548490000000 1.0
C      1  0.4387500000000  0.5429230000000  0.4853360000000 1.0
C      1  0.5150730000000  0.5452410000000  0.5617070000000 1.0
C      1  0.5188410000000  0.4284660000000  0.5752250000000 1.0
C      1  0.4238150000000  0.4331010000000  0.4739670000000 1.0
C      1  0.5565960000000  0.4292250000000  0.4465530000000 1.0
C      1  0.5176340000000  0.4297180000000  0.4232830000000 1.0
C      1  0.4245690000000  0.4332740000000  0.5269360000000 1.0
C      1  0.5606100000000  0.4338570000000  0.5528880000000 1.0
C      1  0.5531850000000  0.4783500000000  0.4494450000000 1.0
C      1  0.5146220000000  0.4779970000000  0.5752930000000 1.0
C      1  0.4224330000000  0.4801780000000  0.4796110000000 1.0
C      1  0.5512900000000  0.4797460000000  0.5546550000000 1.0
C      1  0.5143700000000  0.4791580000000  0.4246600000000 1.0
C      1  0.4245790000000  0.4801940000000  0.5196580000000 1.0
C      1  0.5584040000000  0.5090960000000  0.4767910000000 1.0
C      1  0.4825190000000  0.5062650000000  0.5655700000000 1.0
C      1  0.4505470000000  0.5045870000000  0.4714800000000 1.0
C      1  0.5549210000000  0.5091220000000  0.5265300000000 1.0
C      1  0.4914720000000  0.5143830000000  0.4446380000000 1.0
C      1  0.4510000000000  0.5083760000000  0.5338010000000 1.0
C      1  0.5009140000000  0.5548750000000  0.5216990000000 1.0
C      1  0.4760940000000  0.5641910000000  0.4785310000000 1.0
C      1  0.5239290000000  0.5671590000000  0.4865650000000 1.0
C      1  0.5019480000000  0.5538310000000  0.4745530000000 1.0
C      1  0.4756350000000  0.5651890000000  0.5208290000000 1.0
C      1  0.5264640000000  0.5671350000000  0.5126550000000 1.0
C      1  0.4572730000000  0.5217010000000  0.5971760000000 1.0
C      1  0.4401360000000  0.5018850000000  0.4164730000000 1.0
C      1  0.5914680000000  0.5182460000000  0.4873020000000 1.0
C      1  0.4586730000000  0.5205070000000  0.4040020000000 1.0
C      1  0.4393950000000  0.5018510000000  0.5835540000000 1.0
C      1  0.6014190000000  0.5010090000000  0.5114040000000 1.0
C      1  0.5877900000000  0.4857850000000  0.4569970000000 1.0
C      1  0.4890060000000  0.4899640000000  0.5951020000000 1.0
C      1  0.4146730000000  0.4873840000000  0.4516170000000 1.0
C      1  0.5801080000000  0.4830600000000  0.5468210000000 1.0
C      1  0.4930740000000  0.4842010000000  0.4015980000000 1.0
C      1  0.4138860000000  0.4828200000000  0.5481280000000 1.0
C      1  0.5408680000000  0.4525330000000  0.4576920000000 1.0
C      1  0.5155490000000  0.4527670000000  0.5584280000000 1.0
C      1  0.4383030000000  0.4548200000000  0.4866780000000 1.0
C      1  0.5412530000000  0.4543910000000  0.5453360000000 1.0
C      1  0.5161770000000  0.4530790000000  0.4409200000000 1.0
C      1  0.4402730000000  0.4556120000000  0.5151770000000 1.0
C      1  0.5604720000000  0.5696120000000  0.4471290000000 1.0
C      1  0.5126730000000  0.5678030000000  0.5791090000000 1.0
C      1  0.4242220000000  0.5675660000000  0.4781510000000 1.0
C      1  0.5567190000000  0.5680590000000  0.5556100000000 1.0
C      1  0.5165350000000  0.5659500000000  0.4196910000000 1.0
C      1  0.4243560000000  0.5686530000000  0.5237880000000 1.0
C      1  0.4417810000000  0.5529790000000  0.5628270000000 1.0
C      1  0.4617880000000  0.5465600000000  0.4166180000000 1.0
C      1  0.5836690000000  0.5523080000000  0.5195350000000 1.0
C      1  0.4406580000000  0.5530300000000  0.4360780000000 1.0
C      1  0.4620250000000  0.5459370000000  0.5825140000000 1.0
C      1  0.5888720000000  0.5478110000000  0.4905020000000 1.0
C      1  0.4529840000000  0.4314160000000  0.4449130000000 1.0
C      1  0.5709840000000  0.4299070000000  0.4851750000000 1.0
C      1  0.4782320000000  0.4301730000000  0.5692440000000 1.0
C      1  0.4537280000000  0.4319400000000  0.5559480000000 1.0
C      1  0.5732390000000  0.4312930000000  0.5133050000000 1.0
C      1  0.4769070000000  0.4294130000000  0.4312220000000 1.0
C      1  0.5263100000000  0.4937910000000  0.4476100000000 1.0
C      1  0.5237840000000  0.4971700000000  0.5553580000000 1.0
C      1  0.4387590000000  0.4994070000000  0.4974040000000 1.0
END
