TITL C-2441154-10-587 0.0742673439933049 125000 -21353.0664949175 0 0 153 (C1) n - 1
REM
REM in /home/bkarasulu/work/CARBON/AIRSS/Generating-Clusters/ReaxFF-fromJPCA2015/Units_Real/with-SteepDescent/Higher-Symm
REM
REM
REM
REM
REM
REM ./C.cell (1df0a924f5614ab8850e4351716899ee)
REM
REM compiler GCC version 9.2.1 20190827 (Red Hat 9.2.1-1)
REM options -cpp -mtune=generic -march=x86-64 -g -O0 -fpre-include=/usr/include/finclude/math-vector-fortran.h
REM seed -1550436385 -2125253914 -94215322 -280314463 1681953277 -1866606859 253966547 354050579 755829869 -1492697065 -694379024 -177988884 701060684 -1340369183 -136298054 -508321338 -760314557 122903832 -633131471 921537943 784543957 535568789 -1545546121 1034432072 1539500429 -1432894713 1635146718 523304843 1163403770 1982289141 -1253655898 -1793251809 -1853352195
REM
CELL 1.54180   50.00000   50.00000   50.00000   90.00000   90.00000   90.00000
LATT -1
SFAC C  
C      1  0.5262450000000  0.5105990000000  0.4760540000000 1.0
C      1  0.5176360000000  0.5041400000000  0.5296840000000 1.0
C      1  0.5676470000000  0.5225780000000  0.5283650000000 1.0
C      1  0.5686050000000  0.4765120000000  0.4718280000000 1.0
C      1  0.4527390000000  0.4038620000000  0.4901720000000 1.0
C      1  0.4519890000000  0.5923360000000  0.5104470000000 1.0
C      1  0.5543540000000  0.5285480000000  0.5042030000000 1.0
C      1  0.5527200000000  0.4744430000000  0.4967800000000 1.0
C      1  0.5152430000000  0.5052960000000  0.5591690000000 1.0
C      1  0.5257840000000  0.4859930000000  0.4299130000000 1.0
C      1  0.4366680000000  0.4385230000000  0.4691920000000 1.0
C      1  0.4255710000000  0.5523720000000  0.5299940000000 1.0
C      1  0.5215540000000  0.4001870000000  0.5037290000000 1.0
C      1  0.5181040000000  0.5981960000000  0.4926470000000 1.0
C      1  0.5933720000000  0.4577440000000  0.5059150000000 1.0
C      1  0.5975770000000  0.5410050000000  0.4975580000000 1.0
C      1  0.5249810000000  0.4165540000000  0.5481010000000 1.0
C      1  0.5213190000000  0.5751470000000  0.4492690000000 1.0
C      1  0.5239850000000  0.4972480000000  0.5860480000000 1.0
C      1  0.5370480000000  0.5055210000000  0.4095410000000 1.0
C      1  0.4217670000000  0.5004920000000  0.4493240000000 1.0
C      1  0.4133220000000  0.5021150000000  0.5560740000000 1.0
C      1  0.5069280000000  0.5755000000000  0.5607900000000 1.0
C      1  0.5042020000000  0.4240270000000  0.4408070000000 1.0
C      1  0.4454120000000  0.5399120000000  0.5175060000000 1.0
C      1  0.4438220000000  0.4547300000000  0.4930630000000 1.0
C      1  0.4964720000000  0.5112590000000  0.4073060000000 1.0
C      1  0.4984000000000  0.4887590000000  0.6008220000000 1.0
C      1  0.4680750000000  0.4465910000000  0.4272860000000 1.0
C      1  0.4674250000000  0.5572580000000  0.5750040000000 1.0
C      1  0.5211630000000  0.5335840000000  0.5274230000000 1.0
C      1  0.5156310000000  0.4674590000000  0.4702350000000 1.0
C      1  0.4570000000000  0.5998990000000  0.4828920000000 1.0
C      1  0.4576390000000  0.4016220000000  0.5192850000000 1.0
C      1  0.5098400000000  0.5639930000000  0.4237620000000 1.0
C      1  0.5045220000000  0.4243520000000  0.5679250000000 1.0
C      1  0.4486130000000  0.4927920000000  0.5119850000000 1.0
C      1  0.4503900000000  0.5110520000000  0.4886790000000 1.0
C      1  0.5673590000000  0.4280340000000  0.4682640000000 1.0
C      1  0.5657310000000  0.5678530000000  0.5349320000000 1.0
C      1  0.4946550000000  0.5415330000000  0.4091810000000 1.0
C      1  0.5051990000000  0.4433290000000  0.5904820000000 1.0
C      1  0.4754300000000  0.5041500000000  0.6041350000000 1.0
C      1  0.4783550000000  0.4871980000000  0.4025580000000 1.0
C      1  0.4999120000000  0.4501690000000  0.4555400000000 1.0
C      1  0.5046520000000  0.5529870000000  0.5397020000000 1.0
C      1  0.4757560000000  0.4807330000000  0.5095490000000 1.0
C      1  0.4729270000000  0.5281510000000  0.4902750000000 1.0
C      1  0.4835100000000  0.4657330000000  0.5882320000000 1.0
C      1  0.4665150000000  0.5413900000000  0.4143720000000 1.0
C      1  0.5043740000000  0.4923360000000  0.4792210000000 1.0
C      1  0.5004500000000  0.4940480000000  0.5091240000000 1.0
C      1  0.3983430000000  0.4917160000000  0.4638420000000 1.0
C      1  0.3998990000000  0.5091500000000  0.5318120000000 1.0
C      1  0.4717680000000  0.5375470000000  0.5171740000000 1.0
C      1  0.4708750000000  0.4601020000000  0.4925570000000 1.0
C      1  0.5806570000000  0.5578650000000  0.5127870000000 1.0
C      1  0.5783080000000  0.4390550000000  0.4911240000000 1.0
C      1  0.5181320000000  0.4605690000000  0.4155270000000 1.0
C      1  0.5185520000000  0.5550160000000  0.5822380000000 1.0
C      1  0.4818650000000  0.4111340000000  0.5327390000000 1.0
C      1  0.4788410000000  0.5929640000000  0.4653910000000 1.0
C      1  0.4781320000000  0.4281870000000  0.5564160000000 1.0
C      1  0.4624560000000  0.5773670000000  0.4491180000000 1.0
C      1  0.4855090000000  0.5606770000000  0.5228220000000 1.0
C      1  0.4855500000000  0.4411340000000  0.4776310000000 1.0
C      1  0.5208650000000  0.4099300000000  0.4602760000000 1.0
C      1  0.5216260000000  0.5923750000000  0.5373800000000 1.0
C      1  0.5017950000000  0.5022900000000  0.4344900000000 1.0
C      1  0.4908390000000  0.5193180000000  0.5663870000000 1.0
C      1  0.5444270000000  0.5327900000000  0.4192120000000 1.0
C      1  0.5381960000000  0.4644440000000  0.5515560000000 1.0
C      1  0.4451710000000  0.5355720000000  0.5755690000000 1.0
C      1  0.4458270000000  0.4660470000000  0.4313150000000 1.0
C      1  0.5314460000000  0.4532820000000  0.5901280000000 1.0
C      1  0.5340160000000  0.5536410000000  0.4158460000000 1.0
C      1  0.5409860000000  0.4253200000000  0.4787960000000 1.0
C      1  0.5428660000000  0.5805260000000  0.5218010000000 1.0
C      1  0.5653650000000  0.5368730000000  0.4350190000000 1.0
C      1  0.5521990000000  0.4654730000000  0.5774650000000 1.0
C      1  0.5061680000000  0.5917660000000  0.4671250000000 1.0
C      1  0.5087660000000  0.4027250000000  0.5289220000000 1.0
C      1  0.4768430000000  0.5790050000000  0.5594970000000 1.0
C      1  0.4754900000000  0.4211650000000  0.4409670000000 1.0
C      1  0.5944590000000  0.4837600000000  0.5462320000000 1.0
C      1  0.5978100000000  0.5178940000000  0.4579990000000 1.0
C      1  0.4876930000000  0.4610050000000  0.4107080000000 1.0
C      1  0.4924710000000  0.5430600000000  0.5841200000000 1.0
C      1  0.4413340000000  0.4181320000000  0.5379440000000 1.0
C      1  0.4390450000000  0.5850890000000  0.4648790000000 1.0
C      1  0.4687210000000  0.5501770000000  0.4430340000000 1.0
C      1  0.4807590000000  0.4581860000000  0.5589850000000 1.0
C      1  0.5867650000000  0.5027590000000  0.5247370000000 1.0
C      1  0.5927420000000  0.4928020000000  0.4717840000000 1.0
C      1  0.5478940000000  0.4143340000000  0.5049930000000 1.0
C      1  0.5440220000000  0.5859120000000  0.4926880000000 1.0
C      1  0.4219640000000  0.4737770000000  0.5522460000000 1.0
C      1  0.4188720000000  0.5297780000000  0.4474480000000 1.0
C      1  0.4094290000000  0.4946180000000  0.5089490000000 1.0
C      1  0.3964310000000  0.5071430000000  0.4884530000000 1.0
C      1  0.5088540000000  0.4628600000000  0.5435230000000 1.0
C      1  0.4880420000000  0.5341360000000  0.4663450000000 1.0
C      1  0.6062580000000  0.5119030000000  0.5057810000000 1.0
C      1  0.6069960000000  0.4849620000000  0.4952500000000 1.0
C      1  0.5551650000000  0.4544210000000  0.5317800000000 1.0
C      1  0.5637980000000  0.5507880000000  0.4610250000000 1.0
C      1  0.4240550000000  0.5677300000000  0.4827560000000 1.0
C      1  0.4304210000000  0.4377810000000  0.5141320000000 1.0
C      1  0.4494900000000  0.4830330000000  0.5822080000000 1.0
C      1  0.4476720000000  0.5195090000000  0.4187320000000 1.0
C      1  0.4764600000000  0.4130220000000  0.4727180000000 1.0
C      1  0.4760260000000  0.5875130000000  0.5282760000000 1.0
C      1  0.5037890000000  0.6006150000000  0.5179060000000 1.0
C      1  0.5047540000000  0.3993530000000  0.4802760000000 1.0
C      1  0.5464350000000  0.4268470000000  0.5312430000000 1.0
C      1  0.5453530000000  0.5718390000000  0.4668190000000 1.0
C      1  0.5298010000000  0.4548430000000  0.4924320000000 1.0
C      1  0.5291950000000  0.5434170000000  0.5013940000000 1.0
C      1  0.5787950000000  0.5301640000000  0.5531480000000 1.0
C      1  0.5758570000000  0.4648160000000  0.4471370000000 1.0
C      1  0.5398180000000  0.4472470000000  0.4267720000000 1.0
C      1  0.5445570000000  0.5426640000000  0.5804630000000 1.0
C      1  0.5615090000000  0.4920550000000  0.4088980000000 1.0
C      1  0.5471210000000  0.5142310000000  0.5908710000000 1.0
C      1  0.4844000000000  0.5050450000000  0.4575920000000 1.0
C      1  0.4742610000000  0.5174730000000  0.5427550000000 1.0
C      1  0.4552210000000  0.4989310000000  0.5395680000000 1.0
C      1  0.4506780000000  0.5007280000000  0.4610890000000 1.0
C      1  0.5103950000000  0.4538060000000  0.5176250000000 1.0
C      1  0.5167170000000  0.5373890000000  0.4760410000000 1.0
C      1  0.4014930000000  0.5374560000000  0.5235600000000 1.0
C      1  0.4049500000000  0.4654390000000  0.4734300000000 1.0
C      1  0.5656570000000  0.4932580000000  0.5834950000000 1.0
C      1  0.5843290000000  0.5148780000000  0.4341140000000 1.0
C      1  0.4251260000000  0.4594830000000  0.4516410000000 1.0
C      1  0.4246100000000  0.5293190000000  0.5578070000000 1.0
C      1  0.5636150000000  0.4393040000000  0.4400870000000 1.0
C      1  0.5646880000000  0.5533530000000  0.5619530000000 1.0
C      1  0.3964780000000  0.5347760000000  0.4942510000000 1.0
C      1  0.4052450000000  0.4684760000000  0.5032810000000 1.0
C      1  0.5905250000000  0.5431280000000  0.4695760000000 1.0
C      1  0.5832910000000  0.4604110000000  0.5331370000000 1.0
C      1  0.4505460000000  0.4759870000000  0.5567160000000 1.0
C      1  0.4475490000000  0.5302380000000  0.4471200000000 1.0
C      1  0.4505740000000  0.5098640000000  0.5920930000000 1.0
C      1  0.4523530000000  0.4904090000000  0.4151260000000 1.0
C      1  0.4282930000000  0.5761590000000  0.5109190000000 1.0
C      1  0.4278370000000  0.4178100000000  0.4880700000000 1.0
C      1  0.4136690000000  0.4581740000000  0.5281310000000 1.0
C      1  0.4096040000000  0.5458230000000  0.4712470000000 1.0
C      1  0.5824460000000  0.4858370000000  0.4258810000000 1.0
C      1  0.5855700000000  0.5036280000000  0.5654660000000 1.0
C      1  0.5458440000000  0.5030790000000  0.4938300000000 1.0
END
