TITL C-2441167-4473-1297 0.115485931881719 125000 -17941.7180762584 0 0 140 (C1) n - 1
REM
REM in /home/bkarasulu/work/CARBON/AIRSS/Generating-Clusters/ReaxFF-fromJPCA2015/Units_Real/with-SteepDescent/Higher-Symm
REM
REM
REM
REM
REM
REM ./C.cell (1df0a924f5614ab8850e4351716899ee)
REM
REM compiler GCC version 9.2.1 20190827 (Red Hat 9.2.1-1)
REM options -cpp -mtune=generic -march=x86-64 -g -O0 -fpre-include=/usr/include/finclude/math-vector-fortran.h
REM seed 739512757 856238442 -1451801337 -2085108949 -561240209 -1433514874 264861027 -1180408757 -182602361 -1822633942 1333398873 381537332 -12325714 -1855005797 -116355398 -2107528523 96904145 13832071 -16504167 895513191 421941747 -572260322 -214963795 -893320757 -1781175957 -1024442698 -32108770 -1793191698 -1497283746 -510574765 -1789519530 363894287 -1177881775
REM
CELL 1.54180   50.00000   50.00000   50.00000   90.00000   90.00000   90.00000
LATT -1
SFAC C  
C      1  0.5249440000000  0.4309870000000  0.5326530000000 1.0
C      1  0.5286570000000  0.4204630000000  0.4864240000000 1.0
C      1  0.5268780000000  0.4469950000000  0.4448570000000 1.0
C      1  0.5249550000000  0.4919100000000  0.4234380000000 1.0
C      1  0.5250130000000  0.5369380000000  0.4320170000000 1.0
C      1  0.5287040000000  0.5661290000000  0.4679340000000 1.0
C      1  0.5259610000000  0.5783240000000  0.5150900000000 1.0
C      1  0.5252220000000  0.5530230000000  0.5515270000000 1.0
C      1  0.5252860000000  0.5101290000000  0.5703400000000 1.0
C      1  0.5283870000000  0.4599520000000  0.5753380000000 1.0
C      1  0.4590410000000  0.5753720000000  0.4475650000000 1.0
C      1  0.4603650000000  0.5907880000000  0.4979010000000 1.0
C      1  0.4584480000000  0.5744450000000  0.5515030000000 1.0
C      1  0.4602290000000  0.5313540000000  0.5859740000000 1.0
C      1  0.4595740000000  0.4745070000000  0.5864430000000 1.0
C      1  0.4587710000000  0.4301930000000  0.5543160000000 1.0
C      1  0.4605120000000  0.4098190000000  0.5010080000000 1.0
C      1  0.4591380000000  0.4247240000000  0.4496210000000 1.0
C      1  0.4615450000000  0.4630330000000  0.4133970000000 1.0
C      1  0.4654600000000  0.5388890000000  0.4159280000000 1.0
C      1  0.5314620000000  0.4306000000000  0.5733670000000 1.0
C      1  0.5356640000000  0.4034870000000  0.5220190000000 1.0
C      1  0.5334190000000  0.4056060000000  0.4607620000000 1.0
C      1  0.5343630000000  0.4495090000000  0.4140500000000 1.0
C      1  0.5276390000000  0.5157380000000  0.3973190000000 1.0
C      1  0.5271450000000  0.5659570000000  0.4280020000000 1.0
C      1  0.5333730000000  0.5944820000000  0.4763190000000 1.0
C      1  0.5328090000000  0.5939320000000  0.5408020000000 1.0
C      1  0.5338090000000  0.5475680000000  0.5906080000000 1.0
C      1  0.5374550000000  0.4887200000000  0.6055320000000 1.0
C      1  0.5092430000000  0.4935440000000  0.4531370000000 1.0
C      1  0.5112570000000  0.5252700000000  0.4603960000000 1.0
C      1  0.5200560000000  0.5416380000000  0.4825770000000 1.0
C      1  0.5101180000000  0.5459090000000  0.5100880000000 1.0
C      1  0.5183940000000  0.5305970000000  0.5338180000000 1.0
C      1  0.5191930000000  0.5044220000000  0.5427700000000 1.0
C      1  0.5067520000000  0.4805890000000  0.5303110000000 1.0
C      1  0.5171260000000  0.4574560000000  0.5170300000000 1.0
C      1  0.5049800000000  0.4602850000000  0.4906660000000 1.0
C      1  0.5170980000000  0.4689210000000  0.4657990000000 1.0
C      1  0.4349270000000  0.4625270000000  0.5210910000000 1.0
C      1  0.4195320000000  0.4425180000000  0.5068950000000 1.0
C      1  0.4387550000000  0.4640640000000  0.4688410000000 1.0
C      1  0.4165210000000  0.4863800000000  0.4371490000000 1.0
C      1  0.4299430000000  0.5094540000000  0.4454280000000 1.0
C      1  0.4152240000000  0.5486440000000  0.4702650000000 1.0
C      1  0.4290240000000  0.5537360000000  0.4934220000000 1.0
C      1  0.4367100000000  0.5364190000000  0.5334850000000 1.0
C      1  0.4156730000000  0.5142160000000  0.5589040000000 1.0
C      1  0.4335020000000  0.4934500000000  0.5508490000000 1.0
C      1  0.5590520000000  0.4516320000000  0.4695370000000 1.0
C      1  0.5610390000000  0.4729580000000  0.4492860000000 1.0
C      1  0.5576940000000  0.5124190000000  0.4480820000000 1.0
C      1  0.5598180000000  0.5368850000000  0.4633920000000 1.0
C      1  0.5591310000000  0.5558240000000  0.4981390000000 1.0
C      1  0.5608610000000  0.5492780000000  0.5290050000000 1.0
C      1  0.5604310000000  0.5260290000000  0.5477800000000 1.0
C      1  0.5582610000000  0.4862610000000  0.5544870000000 1.0
C      1  0.5597180000000  0.4585230000000  0.5383320000000 1.0
C      1  0.5598350000000  0.4478070000000  0.5096710000000 1.0
C      1  0.4855460000000  0.5828240000000  0.5518450000000 1.0
C      1  0.4878720000000  0.5366700000000  0.5891800000000 1.0
C      1  0.4818480000000  0.4865050000000  0.5731360000000 1.0
C      1  0.4851380000000  0.4317220000000  0.5634970000000 1.0
C      1  0.4871000000000  0.4089380000000  0.5081300000000 1.0
C      1  0.4862970000000  0.4153050000000  0.4491640000000 1.0
C      1  0.4883070000000  0.4599060000000  0.4093620000000 1.0
C      1  0.4736160000000  0.5103600000000  0.4216410000000 1.0
C      1  0.4847140000000  0.5614280000000  0.4435750000000 1.0
C      1  0.4872960000000  0.5943820000000  0.4908040000000 1.0
C      1  0.5064020000000  0.3956640000000  0.5311850000000 1.0
C      1  0.5046870000000  0.3980320000000  0.4625560000000 1.0
C      1  0.5074520000000  0.4399880000000  0.4089000000000 1.0
C      1  0.5093030000000  0.4976990000000  0.3806310000000 1.0
C      1  0.4899620000000  0.5541560000000  0.4149010000000 1.0
C      1  0.5055950000000  0.5991710000000  0.4689440000000 1.0
C      1  0.5042180000000  0.6011310000000  0.5395960000000 1.0
C      1  0.5078260000000  0.5582610000000  0.5930170000000 1.0
C      1  0.5117520000000  0.4990120000000  0.6166930000000 1.0
C      1  0.4946990000000  0.4389300000000  0.5914420000000 1.0
C      1  0.5857440000000  0.4591000000000  0.4784350000000 1.0
C      1  0.5886010000000  0.4785570000000  0.4574950000000 1.0
C      1  0.5858590000000  0.5066250000000  0.4548870000000 1.0
C      1  0.5875280000000  0.5317990000000  0.4691450000000 1.0
C      1  0.5861110000000  0.5462830000000  0.4935160000000 1.0
C      1  0.5899000000000  0.5420340000000  0.5216090000000 1.0
C      1  0.5875320000000  0.5213970000000  0.5414090000000 1.0
C      1  0.5849970000000  0.4929130000000  0.5458840000000 1.0
C      1  0.5885410000000  0.4676540000000  0.5332950000000 1.0
C      1  0.5870030000000  0.4559900000000  0.5070340000000 1.0
C      1  0.5493510000000  0.5832510000000  0.4975870000000 1.0
C      1  0.5475680000000  0.5701760000000  0.5477820000000 1.0
C      1  0.5484740000000  0.5284580000000  0.5758540000000 1.0
C      1  0.5508170000000  0.4780690000000  0.5819150000000 1.0
C      1  0.5488300000000  0.4336990000000  0.5508440000000 1.0
C      1  0.5513720000000  0.4203860000000  0.5046890000000 1.0
C      1  0.5501660000000  0.4285560000000  0.4536070000000 1.0
C      1  0.5473010000000  0.4734070000000  0.4229520000000 1.0
C      1  0.5524060000000  0.5227330000000  0.4185870000000 1.0
C      1  0.5533640000000  0.5630890000000  0.4453840000000 1.0
C      1  0.4470350000000  0.4528960000000  0.5682180000000 1.0
C      1  0.4513990000000  0.4115210000000  0.5293340000000 1.0
C      1  0.4482260000000  0.4196240000000  0.4759280000000 1.0
C      1  0.4481940000000  0.4450470000000  0.4313590000000 1.0
C      1  0.4553670000000  0.4911360000000  0.4094330000000 1.0
C      1  0.4465280000000  0.5541830000000  0.4320850000000 1.0
C      1  0.4481040000000  0.5863700000000  0.4721300000000 1.0
C      1  0.4497260000000  0.5813780000000  0.5244890000000 1.0
C      1  0.4481100000000  0.5525080000000  0.5700180000000 1.0
C      1  0.4496660000000  0.5028160000000  0.5925000000000 1.0
C      1  0.4751090000000  0.5327240000000  0.4877250000000 1.0
C      1  0.4782370000000  0.5387300000000  0.5125860000000 1.0
C      1  0.4629690000000  0.5261660000000  0.5341990000000 1.0
C      1  0.4665200000000  0.4998810000000  0.5462520000000 1.0
C      1  0.4790730000000  0.4816140000000  0.5294860000000 1.0
C      1  0.4630070000000  0.4641840000000  0.5142230000000 1.0
C      1  0.4769360000000  0.4640940000000  0.4896120000000 1.0
C      1  0.4643960000000  0.4766330000000  0.4682000000000 1.0
C      1  0.4776960000000  0.4980900000000  0.4517100000000 1.0
C      1  0.4788890000000  0.5289160000000  0.4612680000000 1.0
C      1  0.4266170000000  0.4243320000000  0.5275810000000 1.0
C      1  0.4313490000000  0.4403230000000  0.4814100000000 1.0
C      1  0.4263910000000  0.4602910000000  0.4429790000000 1.0
C      1  0.4304310000000  0.4998280000000  0.4191480000000 1.0
C      1  0.4273090000000  0.5380760000000  0.4463920000000 1.0
C      1  0.4241500000000  0.5737870000000  0.4768940000000 1.0
C      1  0.4317000000000  0.5598640000000  0.5193460000000 1.0
C      1  0.4246360000000  0.5399870000000  0.5584820000000 1.0
C      1  0.4249000000000  0.4990260000000  0.5788890000000 1.0
C      1  0.4304790000000  0.4651720000000  0.5486450000000 1.0
C      1  0.5046450000000  0.5968920000000  0.5123110000000 1.0
C      1  0.5051580000000  0.5672390000000  0.5659040000000 1.0
C      1  0.5064100000000  0.5149110000000  0.5910670000000 1.0
C      1  0.5014540000000  0.4682130000000  0.5844360000000 1.0
C      1  0.5090710000000  0.4189360000000  0.5557520000000 1.0
C      1  0.5049570000000  0.4065690000000  0.4883320000000 1.0
C      1  0.5055970000000  0.4301980000000  0.4344670000000 1.0
C      1  0.5028670000000  0.4841550000000  0.4063930000000 1.0
C      1  0.5047050000000  0.5288040000000  0.4114060000000 1.0
C      1  0.5067990000000  0.5793930000000  0.4466100000000 1.0
END
