TITL C-2441167-4473-623 0.0389993713316367 125000 -9986.0059475522 0 0 75 (C1) n - 1
REM
REM in /home/bkarasulu/work/CARBON/AIRSS/Generating-Clusters/ReaxFF-fromJPCA2015/Units_Real/with-SteepDescent/Higher-Symm
REM
REM
REM
REM
REM
REM ./C.cell (1df0a924f5614ab8850e4351716899ee)
REM
REM compiler GCC version 9.2.1 20190827 (Red Hat 9.2.1-1)
REM options -cpp -mtune=generic -march=x86-64 -g -O0 -fpre-include=/usr/include/finclude/math-vector-fortran.h
REM seed -1016469655 384167570 -94286264 82320775 552837279 -470438928 -1489916967 624805971 916727561 1845720591 1090908500 1724866536 751915982 956495167 -1735163936 -85202946 -511607983 -101097787 1127404024 -264865819 -1037958673 597532103 -1133959983 -925095963 -1024000833 -871725326 2033596634 1913915158 73343614 2026452860 -1133323717 1020642919 1503542
REM
CELL 1.54180   50.00000   50.00000   50.00000   90.00000   90.00000   90.00000
LATT -1
SFAC C  
C      1  0.4419680000000  0.4503260000000  0.4942690000000 1.0
C      1  0.5612240000000  0.5503060000000  0.4941750000000 1.0
C      1  0.4411620000000  0.5511780000000  0.5052570000000 1.0
C      1  0.5601700000000  0.4503060000000  0.5051870000000 1.0
C      1  0.4816320000000  0.5183360000000  0.5217900000000 1.0
C      1  0.5178950000000  0.4785880000000  0.5223810000000 1.0
C      1  0.4841290000000  0.4814670000000  0.4828400000000 1.0
C      1  0.5210400000000  0.5244260000000  0.4750880000000 1.0
C      1  0.5081750000000  0.5792530000000  0.4876900000000 1.0
C      1  0.4923930000000  0.4217430000000  0.4876920000000 1.0
C      1  0.5079270000000  0.4216960000000  0.5123490000000 1.0
C      1  0.4926690000000  0.5789000000000  0.5122300000000 1.0
C      1  0.4442340000000  0.4862060000000  0.5271610000000 1.0
C      1  0.5546850000000  0.5142930000000  0.5273390000000 1.0
C      1  0.4450260000000  0.5141530000000  0.4732700000000 1.0
C      1  0.5557320000000  0.4859350000000  0.4720450000000 1.0
C      1  0.4299270000000  0.5271560000000  0.5162720000000 1.0
C      1  0.5707640000000  0.4747140000000  0.5166210000000 1.0
C      1  0.4307720000000  0.4749300000000  0.4835470000000 1.0
C      1  0.5711710000000  0.5251090000000  0.4832210000000 1.0
C      1  0.4482520000000  0.5009690000000  0.5522040000000 1.0
C      1  0.5505520000000  0.5013620000000  0.5526070000000 1.0
C      1  0.4500250000000  0.5013990000000  0.4480830000000 1.0
C      1  0.5510990000000  0.4992800000000  0.4470680000000 1.0
C      1  0.5217980000000  0.4980950000000  0.4319640000000 1.0
C      1  0.4788920000000  0.5020950000000  0.4313480000000 1.0
C      1  0.5222320000000  0.5027650000000  0.5702260000000 1.0
C      1  0.4736940000000  0.5014740000000  0.5674290000000 1.0
C      1  0.5139340000000  0.5027490000000  0.5380670000000 1.0
C      1  0.4848240000000  0.4958040000000  0.5397550000000 1.0
C      1  0.5145640000000  0.4987550000000  0.4619780000000 1.0
C      1  0.4872240000000  0.4982140000000  0.4592640000000 1.0
C      1  0.5180830000000  0.4507300000000  0.5633860000000 1.0
C      1  0.4844700000000  0.5468380000000  0.5643730000000 1.0
C      1  0.5153650000000  0.5464420000000  0.4361140000000 1.0
C      1  0.4845180000000  0.4535620000000  0.4362120000000 1.0
C      1  0.4879720000000  0.5737490000000  0.4671930000000 1.0
C      1  0.5129260000000  0.4261850000000  0.4683040000000 1.0
C      1  0.4880740000000  0.4272220000000  0.5325880000000 1.0
C      1  0.5129000000000  0.5745950000000  0.5323360000000 1.0
C      1  0.5599320000000  0.4758480000000  0.5436010000000 1.0
C      1  0.4412500000000  0.5276890000000  0.5427360000000 1.0
C      1  0.5605690000000  0.5248540000000  0.4560250000000 1.0
C      1  0.4425170000000  0.4744780000000  0.4568270000000 1.0
C      1  0.4753260000000  0.4484130000000  0.5161740000000 1.0
C      1  0.5270910000000  0.5556400000000  0.5143030000000 1.0
C      1  0.4757030000000  0.5529020000000  0.4853900000000 1.0
C      1  0.5263320000000  0.4467970000000  0.4857630000000 1.0
C      1  0.4489430000000  0.5416860000000  0.4796620000000 1.0
C      1  0.5524880000000  0.4581750000000  0.4790920000000 1.0
C      1  0.4483360000000  0.4584240000000  0.5210450000000 1.0
C      1  0.5530870000000  0.5427200000000  0.5208910000000 1.0
C      1  0.4936300000000  0.5212360000000  0.5739410000000 1.0
C      1  0.5143830000000  0.4757820000000  0.5730350000000 1.0
C      1  0.4955370000000  0.4780120000000  0.4252050000000 1.0
C      1  0.5057130000000  0.5218060000000  0.4253530000000 1.0
C      1  0.4913030000000  0.5521470000000  0.4490060000000 1.0
C      1  0.5096470000000  0.4488440000000  0.4503320000000 1.0
C      1  0.4913900000000  0.4485270000000  0.5525460000000 1.0
C      1  0.5096200000000  0.5522330000000  0.5511910000000 1.0
C      1  0.4946730000000  0.5305050000000  0.4828390000000 1.0
C      1  0.5090550000000  0.4673200000000  0.4746240000000 1.0
C      1  0.4909060000000  0.4690460000000  0.5287060000000 1.0
C      1  0.5075290000000  0.5309810000000  0.5288910000000 1.0
C      1  0.5364850000000  0.5449450000000  0.4605710000000 1.0
C      1  0.4625030000000  0.4516040000000  0.4563170000000 1.0
C      1  0.5340650000000  0.4582120000000  0.5364190000000 1.0
C      1  0.4637410000000  0.5474300000000  0.5421060000000 1.0
C      1  0.5363170000000  0.5664660000000  0.4845770000000 1.0
C      1  0.4643730000000  0.4356020000000  0.4802720000000 1.0
C      1  0.5360970000000  0.4349940000000  0.5161870000000 1.0
C      1  0.4645930000000  0.5657440000000  0.5187470000000 1.0
C      1  0.5663830000000  0.5001090000000  0.5004710000000 1.0
C      1  0.4334000000000  0.4996360000000  0.5023070000000 1.0
C      1  0.4891540000000  0.5060790000000  0.4980730000000 1.0
END
