TITL C-2441160-1326-385 -4.33478489180708e-07 125000 -2859.16208973841 0 0 20 (C2v) n - 1
REM
REM in /home/bkarasulu/work/CARBON/AIRSS/Generating-Clusters/ReaxFF-fromJPCA2015/Units_Real/with-SteepDescent/Higher-Symm
REM
REM
REM
REM
REM
REM ./C.cell (1df0a924f5614ab8850e4351716899ee)
REM
REM compiler GCC version 9.2.1 20190827 (Red Hat 9.2.1-1)
REM options -cpp -mtune=generic -march=x86-64 -g -O0 -fpre-include=/usr/include/finclude/math-vector-fortran.h
REM seed 1969089373 -254069669 178305287 -1775421072 596088864 -20547285 -1334081292 -1317802502 -1526463116 705543503 2124187308 -711722484 -544859849 1385510445 1118289780 -745198158 59150460 -263185242 -1364693284 -138751232 1525342095 -1889593518 -1703528152 -31342343 -668745077 -1011624079 -1123720842 994011312 98679678 -1726716836 1754581094 1886334461 1251166191
REM
CELL 1.54180   50.00000   50.00000   50.00000   90.00000   90.00000   90.00000
LATT -1
SFAC C  
C      1  0.5149100000000  0.4850930000000  0.5485520000000 1.0
C      1  0.4850900000000  0.5149070000000  0.5485520000000 1.0
C      1  0.5149100000000  0.5149070000000  0.5485520000000 1.0
C      1  0.4850900000000  0.4850930000000  0.5485520000000 1.0
C      1  0.5148060000000  0.5148210000000  0.4516360000000 1.0
C      1  0.4851940000000  0.4851790000000  0.4516360000000 1.0
C      1  0.5148060000000  0.4851790000000  0.4516360000000 1.0
C      1  0.4851940000000  0.5148210000000  0.4516360000000 1.0
C      1  0.4702960000000  0.4698890000000  0.4723340000000 1.0
C      1  0.5297040000000  0.5301110000000  0.4723340000000 1.0
C      1  0.4702960000000  0.5301110000000  0.4723340000000 1.0
C      1  0.5297040000000  0.4698890000000  0.4723340000000 1.0
C      1  0.5350750000000  0.5303820000000  0.5011430000000 1.0
C      1  0.4649250000000  0.4696180000000  0.5011430000000 1.0
C      1  0.5350750000000  0.4696180000000  0.5011430000000 1.0
C      1  0.4649250000000  0.5303820000000  0.5011430000000 1.0
C      1  0.4652390000000  0.5148880000000  0.5263340000000 1.0
C      1  0.5347610000000  0.4851120000000  0.5263340000000 1.0
C      1  0.4652390000000  0.4851120000000  0.5263340000000 1.0
C      1  0.5347610000000  0.5148880000000  0.5263340000000 1.0
END
