TITL C-2441165-58-930 0.00173577163232657 125000 -1222.74744625786 0 0 10 (Cs) n - 1
REM
REM in /home/bkarasulu/work/CARBON/AIRSS/Generating-Clusters/ReaxFF-fromJPCA2015/Units_Real/with-SteepDescent/Higher-Symm
REM
REM
REM
REM
REM
REM ./C.cell (1df0a924f5614ab8850e4351716899ee)
REM
REM compiler GCC version 9.2.1 20190827 (Red Hat 9.2.1-1)
REM options -cpp -mtune=generic -march=x86-64 -g -O0 -fpre-include=/usr/include/finclude/math-vector-fortran.h
REM seed -34997095 -1587054696 -1404504822 1490624897 -519342320 -1515462721 347412476 -1349157540 788458330 -1497757148 1662701805 1232152165 -299484444 353007674 -1149139834 109879814 -427972413 505153445 -207356241 -1468670671 -1409980350 191950246 641022013 1449018966 1518017320 -1534724622 -642876160 238558373 -1922542499 -1092020259 -1742130187 -569859900 -2106185324
REM
CELL 1.54180   50.00000   50.00000   50.00000   90.00000   90.00000   90.00000
LATT -1
SFAC C  
C      1  0.4830040000000  0.4970070000000  0.5331720000000 1.0
C      1  0.4810740000000  0.4774080000000  0.5128620000000 1.0
C      1  0.5001090000000  0.4774490000000  0.4879410000000 1.0
C      1  0.4809540000000  0.4973060000000  0.4730300000000 1.0
C      1  0.4828160000000  0.5253240000000  0.4764850000000 1.0
C      1  0.4839960000000  0.5319640000000  0.5006010000000 1.0
C      1  0.4840770000000  0.5202790000000  0.5239920000000 1.0
C      1  0.5241580000000  0.4874640000000  0.4929170000000 1.0
C      1  0.5461900000000  0.4966990000000  0.4975030000000 1.0
C      1  0.4646040000000  0.4962160000000  0.4974230000000 1.0
END
