TITL C-2441154-10-391 0.000984747675120994 125000 -3299.93211591621 0 0 24 (C1) n - 1
REM
REM in /home/bkarasulu/work/CARBON/AIRSS/Generating-Clusters/ReaxFF-fromJPCA2015/Units_Real/with-SteepDescent/Higher-Symm
REM
REM
REM
REM
REM
REM ./C.cell (1df0a924f5614ab8850e4351716899ee)
REM
REM compiler GCC version 9.2.1 20190827 (Red Hat 9.2.1-1)
REM options -cpp -mtune=generic -march=x86-64 -g -O0 -fpre-include=/usr/include/finclude/math-vector-fortran.h
REM seed -799503752 49553479 -304188749 -381509566 965924180 314134291 -2036690326 1009606693 1456738129 1828990559 1159816641 121090416 364150326 613011231 457852020 -1904059646 329840900 -1303820608 -378762397 251811113 494933389 904242656 -5811170 1550419979 -2084657889 -1038092233 1902111326 -122486706 -1212037595 1252595653 384855854 -1411598504 -1768077900
REM
CELL 1.54180   50.00000   50.00000   50.00000   90.00000   90.00000   90.00000
LATT -1
SFAC C  
C      1  0.4735410000000  0.5340710000000  0.4866840000000 1.0
C      1  0.4773700000000  0.4943240000000  0.4548810000000 1.0
C      1  0.4748830000000  0.4548630000000  0.4890160000000 1.0
C      1  0.4788230000000  0.4746180000000  0.5360380000000 1.0
C      1  0.4850390000000  0.5261420000000  0.5344930000000 1.0
C      1  0.5209320000000  0.4744320000000  0.4734570000000 1.0
C      1  0.5183170000000  0.4493360000000  0.5158710000000 1.0
C      1  0.5235810000000  0.4925620000000  0.5389900000000 1.0
C      1  0.5162080000000  0.5528930000000  0.5059060000000 1.0
C      1  0.5191940000000  0.5214290000000  0.4679350000000 1.0
C      1  0.5355440000000  0.5376990000000  0.5234280000000 1.0
C      1  0.5254820000000  0.5495090000000  0.4778970000000 1.0
C      1  0.5322580000000  0.4884250000000  0.4498270000000 1.0
C      1  0.5318130000000  0.4490500000000  0.4908550000000 1.0
C      1  0.5315480000000  0.4645140000000  0.5394690000000 1.0
C      1  0.4877420000000  0.5437540000000  0.5112340000000 1.0
C      1  0.4882500000000  0.5203130000000  0.4655950000000 1.0
C      1  0.4890990000000  0.4705580000000  0.4683580000000 1.0
C      1  0.4876810000000  0.4545590000000  0.5164350000000 1.0
C      1  0.4945680000000  0.4993200000000  0.5433060000000 1.0
C      1  0.5351610000000  0.5087610000000  0.5158510000000 1.0
C      1  0.4351280000000  0.5004170000000  0.4948290000000 1.0
C      1  0.4532460000000  0.5161750000000  0.4906340000000 1.0
C      1  0.5292620000000  0.5022960000000  0.4881170000000 1.0
END
