TITL C-2441157-2117-12 0.0403448009355932 125000 -9207.22001725672 0 0 73 (C1) n - 1
REM
REM in /home/bkarasulu/work/CARBON/AIRSS/Generating-Clusters/ReaxFF-fromJPCA2015/Units_Real/with-SteepDescent/Higher-Symm
REM
REM
REM
REM
REM
REM ./C.cell (1df0a924f5614ab8850e4351716899ee)
REM
REM compiler GCC version 9.2.1 20190827 (Red Hat 9.2.1-1)
REM options -cpp -mtune=generic -march=x86-64 -g -O0 -fpre-include=/usr/include/finclude/math-vector-fortran.h
REM seed 2054909879 -1716012320 2128356635 -979937945 -163922415 1951649963 -1033505371 2142948979 -948067256 -809664298 -2010628571 22805594 1913001790 495513968 -2052519043 82693087 -1590337309 -1809612815 15374015 654439663 106119625 1328798254 1071069388 -411199941 -1590050864 1755288291 466735486 327288617 538073503 -1691169431 1711297785 -1451518688 648824900
REM
CELL 1.54180   50.00000   50.00000   50.00000   90.00000   90.00000   90.00000
LATT -1
SFAC C  
C      1  0.5315350000000  0.5243310000000  0.4468000000000 1.0
C      1  0.5019160000000  0.4866600000000  0.4539730000000 1.0
C      1  0.4588340000000  0.4962030000000  0.5373890000000 1.0
C      1  0.5462910000000  0.5172640000000  0.5585700000000 1.0
C      1  0.4976310000000  0.5152480000000  0.5759200000000 1.0
C      1  0.5415770000000  0.5184480000000  0.4732330000000 1.0
C      1  0.4528340000000  0.5614380000000  0.4705810000000 1.0
C      1  0.5036280000000  0.5751250000000  0.5242000000000 1.0
C      1  0.4631020000000  0.5214910000000  0.5510620000000 1.0
C      1  0.4982760000000  0.4605090000000  0.5644510000000 1.0
C      1  0.5800590000000  0.4726900000000  0.5121900000000 1.0
C      1  0.5148110000000  0.5371970000000  0.5374820000000 1.0
C      1  0.5218070000000  0.4425650000000  0.4490520000000 1.0
C      1  0.4761780000000  0.5078530000000  0.4760160000000 1.0
C      1  0.4746090000000  0.4528090000000  0.5165960000000 1.0
C      1  0.4322370000000  0.5536290000000  0.4895640000000 1.0
C      1  0.4583220000000  0.5515460000000  0.5370360000000 1.0
C      1  0.4259700000000  0.4901910000000  0.5162440000000 1.0
C      1  0.4306050000000  0.5254030000000  0.4814670000000 1.0
C      1  0.5322520000000  0.4663080000000  0.4356280000000 1.0
C      1  0.5566670000000  0.5386910000000  0.5072100000000 1.0
C      1  0.4516620000000  0.4607330000000  0.5569250000000 1.0
C      1  0.5217390000000  0.4301630000000  0.4968200000000 1.0
C      1  0.4361950000000  0.5465160000000  0.5184150000000 1.0
C      1  0.5721210000000  0.5006140000000  0.5146010000000 1.0
C      1  0.4422480000000  0.5171950000000  0.4555610000000 1.0
C      1  0.5373200000000  0.5447360000000  0.5556340000000 1.0
C      1  0.4976560000000  0.5265880000000  0.4728940000000 1.0
C      1  0.4463490000000  0.4491460000000  0.4835910000000 1.0
C      1  0.5243500000000  0.5046770000000  0.5722020000000 1.0
C      1  0.5140150000000  0.4817550000000  0.4982050000000 1.0
C      1  0.5206150000000  0.5114840000000  0.4916410000000 1.0
C      1  0.5017480000000  0.4683830000000  0.4754660000000 1.0
C      1  0.5690830000000  0.5151840000000  0.4878410000000 1.0
C      1  0.4731360000000  0.4740890000000  0.5723920000000 1.0
C      1  0.5318630000000  0.5234520000000  0.5170360000000 1.0
C      1  0.4992310000000  0.5566890000000  0.4804950000000 1.0
C      1  0.4943490000000  0.4257990000000  0.4877070000000 1.0
C      1  0.4964510000000  0.4425170000000  0.4640000000000 1.0
C      1  0.4689960000000  0.4327970000000  0.5005960000000 1.0
C      1  0.5510210000000  0.4278450000000  0.4942810000000 1.0
C      1  0.5057100000000  0.5039730000000  0.5505460000000 1.0
C      1  0.4811550000000  0.4853690000000  0.4335930000000 1.0
C      1  0.4783680000000  0.5370440000000  0.4321230000000 1.0
C      1  0.5179310000000  0.4571330000000  0.5427450000000 1.0
C      1  0.5184190000000  0.5697810000000  0.4982150000000 1.0
C      1  0.5366650000000  0.4410730000000  0.4738830000000 1.0
C      1  0.5177260000000  0.5649450000000  0.5475280000000 1.0
C      1  0.5695140000000  0.5032090000000  0.4384540000000 1.0
C      1  0.4841290000000  0.4977900000000  0.5009380000000 1.0
C      1  0.5458900000000  0.5620720000000  0.4993980000000 1.0
C      1  0.4406530000000  0.5184600000000  0.5089260000000 1.0
C      1  0.4624850000000  0.4435800000000  0.5376080000000 1.0
C      1  0.5719590000000  0.4453440000000  0.5036020000000 1.0
C      1  0.4713230000000  0.5041270000000  0.5743120000000 1.0
C      1  0.5097860000000  0.4829280000000  0.4263200000000 1.0
C      1  0.4757040000000  0.5684110000000  0.5199960000000 1.0
C      1  0.4543340000000  0.5423680000000  0.4467530000000 1.0
C      1  0.4399810000000  0.4765310000000  0.4955930000000 1.0
C      1  0.4755380000000  0.5244940000000  0.5129560000000 1.0
C      1  0.4622100000000  0.4952790000000  0.4541240000000 1.0
C      1  0.5544970000000  0.4654500000000  0.5056440000000 1.0
C      1  0.4423380000000  0.4453060000000  0.4581260000000 1.0
C      1  0.5010010000000  0.5262800000000  0.4417430000000 1.0
C      1  0.4343440000000  0.4815100000000  0.5432040000000 1.0
C      1  0.5515410000000  0.4826920000000  0.4507870000000 1.0
C      1  0.5483380000000  0.5012140000000  0.5327600000000 1.0
C      1  0.4996750000000  0.4772130000000  0.5434840000000 1.0
C      1  0.5738290000000  0.4936990000000  0.4659500000000 1.0
C      1  0.4743130000000  0.5674540000000  0.4889410000000 1.0
C      1  0.4653620000000  0.4806170000000  0.5121510000000 1.0
C      1  0.5324810000000  0.4722290000000  0.5218550000000 1.0
C      1  0.5535110000000  0.5264640000000  0.4267720000000 1.0
END
