TITL C-2441169-1362-370 0.153996687687978 125000 -23223.5149766398 0 0 179 (C1) n - 1
REM
REM in /home/bkarasulu/work/CARBON/AIRSS/Generating-Clusters/ReaxFF-fromJPCA2015/Units_Real/with-SteepDescent/Higher-Symm
REM
REM
REM
REM
REM
REM ./C.cell (1df0a924f5614ab8850e4351716899ee)
REM
REM compiler GCC version 9.2.1 20190827 (Red Hat 9.2.1-1)
REM options -cpp -mtune=generic -march=x86-64 -g -O0 -fpre-include=/usr/include/finclude/math-vector-fortran.h
REM seed -739857116 -64356527 1278849450 1817411743 -1776290065 395629116 556062291 1526532945 -1057963825 1229340273 1919322340 -429907269 1951931252 1625206360 1487573329 1588978863 -709443308 -493024649 -1202051383 -1814910627 36196270 984107538 967542263 -1231398300 -1073713801 760093368 -816196961 -2121729528 580347173 1395804902 1784915486 954188581 713683442
REM
CELL 1.54180   50.00000   50.00000   50.00000   90.00000   90.00000   90.00000
LATT -1
SFAC C  
C      1  0.4781000000000  0.5766630000000  0.5756750000000 1.0
C      1  0.5230080000000  0.5777330000000  0.5741230000000 1.0
C      1  0.5583910000000  0.5553600000000  0.5770470000000 1.0
C      1  0.5754830000000  0.5164190000000  0.5776120000000 1.0
C      1  0.5710800000000  0.4699710000000  0.5773930000000 1.0
C      1  0.5412330000000  0.4345320000000  0.5707530000000 1.0
C      1  0.4977330000000  0.4203710000000  0.5733150000000 1.0
C      1  0.4563680000000  0.4328190000000  0.5762470000000 1.0
C      1  0.4283980000000  0.4657770000000  0.5804050000000 1.0
C      1  0.4232140000000  0.5128460000000  0.5723820000000 1.0
C      1  0.4338180000000  0.5530240000000  0.5691870000000 1.0
C      1  0.4066570000000  0.4960110000000  0.4440880000000 1.0
C      1  0.4164580000000  0.5493180000000  0.4459030000000 1.0
C      1  0.4550900000000  0.5852250000000  0.4440010000000 1.0
C      1  0.5075010000000  0.5961760000000  0.4445440000000 1.0
C      1  0.5593880000000  0.5756940000000  0.4440570000000 1.0
C      1  0.5908920000000  0.5311230000000  0.4447800000000 1.0
C      1  0.5927330000000  0.4755560000000  0.4458130000000 1.0
C      1  0.5655210000000  0.4297810000000  0.4442240000000 1.0
C      1  0.5176390000000  0.4045950000000  0.4446240000000 1.0
C      1  0.4631390000000  0.4096080000000  0.4442930000000 1.0
C      1  0.4207660000000  0.4441780000000  0.4465180000000 1.0
C      1  0.5248890000000  0.4409130000000  0.4256430000000 1.0
C      1  0.4966860000000  0.4398040000000  0.4313510000000 1.0
C      1  0.4529780000000  0.4483650000000  0.4191890000000 1.0
C      1  0.4465890000000  0.4732750000000  0.4314450000000 1.0
C      1  0.4452730000000  0.5229320000000  0.4321360000000 1.0
C      1  0.4554040000000  0.5487310000000  0.4214720000000 1.0
C      1  0.4838350000000  0.5573770000000  0.4300950000000 1.0
C      1  0.5258990000000  0.5567850000000  0.4270780000000 1.0
C      1  0.5473660000000  0.5363690000000  0.4315440000000 1.0
C      1  0.5641260000000  0.4986810000000  0.4256150000000 1.0
C      1  0.5510040000000  0.4725060000000  0.4330980000000 1.0
C      1  0.4162170000000  0.4702970000000  0.4353640000000 1.0
C      1  0.4148790000000  0.5221870000000  0.4356010000000 1.0
C      1  0.4359440000000  0.5668590000000  0.4327290000000 1.0
C      1  0.4819820000000  0.5881930000000  0.4339780000000 1.0
C      1  0.5319160000000  0.5844190000000  0.4339050000000 1.0
C      1  0.5738330000000  0.5524190000000  0.4346800000000 1.0
C      1  0.5907260000000  0.5031470000000  0.4341220000000 1.0
C      1  0.5763050000000  0.4547670000000  0.4348720000000 1.0
C      1  0.5407620000000  0.4177590000000  0.4326330000000 1.0
C      1  0.4911560000000  0.4107050000000  0.4347260000000 1.0
C      1  0.4418900000000  0.4270050000000  0.4342370000000 1.0
C      1  0.5353400000000  0.4706940000000  0.5057920000000 1.0
C      1  0.5121460000000  0.4548690000000  0.4977970000000 1.0
C      1  0.4801910000000  0.4581260000000  0.4939040000000 1.0
C      1  0.4645290000000  0.4769100000000  0.5090540000000 1.0
C      1  0.4554250000000  0.5004450000000  0.4978650000000 1.0
C      1  0.4584850000000  0.5273170000000  0.5058450000000 1.0
C      1  0.4807760000000  0.5403810000000  0.4955920000000 1.0
C      1  0.5055490000000  0.5510230000000  0.5042600000000 1.0
C      1  0.5251180000000  0.5333260000000  0.4941640000000 1.0
C      1  0.5486490000000  0.5235980000000  0.5075830000000 1.0
C      1  0.5451240000000  0.4960840000000  0.4974050000000 1.0
C      1  0.4516270000000  0.4968760000000  0.4700270000000 1.0
C      1  0.4584710000000  0.5203970000000  0.4572260000000 1.0
C      1  0.4750790000000  0.5401390000000  0.4681260000000 1.0
C      1  0.4978340000000  0.5453660000000  0.4533060000000 1.0
C      1  0.5210590000000  0.5353720000000  0.4662970000000 1.0
C      1  0.5408050000000  0.5199170000000  0.4550450000000 1.0
C      1  0.5411070000000  0.4948900000000  0.4686940000000 1.0
C      1  0.5323430000000  0.4712770000000  0.4557790000000 1.0
C      1  0.5131170000000  0.4531640000000  0.4677600000000 1.0
C      1  0.4826410000000  0.4573280000000  0.4648630000000 1.0
C      1  0.4632960000000  0.4756780000000  0.4555270000000 1.0
C      1  0.5598260000000  0.4311290000000  0.4711210000000 1.0
C      1  0.5139240000000  0.4190890000000  0.4705290000000 1.0
C      1  0.4573770000000  0.4101180000000  0.4723720000000 1.0
C      1  0.4155820000000  0.4470160000000  0.4739940000000 1.0
C      1  0.4160470000000  0.4968710000000  0.4719610000000 1.0
C      1  0.4160300000000  0.5565670000000  0.4739610000000 1.0
C      1  0.4608330000000  0.5741760000000  0.4705220000000 1.0
C      1  0.5087360000000  0.5951650000000  0.4757620000000 1.0
C      1  0.5569070000000  0.5696240000000  0.4719290000000 1.0
C      1  0.5878690000000  0.5253220000000  0.4731940000000 1.0
C      1  0.5852020000000  0.4741670000000  0.4719720000000 1.0
C      1  0.5584310000000  0.5767020000000  0.5311920000000 1.0
C      1  0.5972490000000  0.5261300000000  0.5266820000000 1.0
C      1  0.5989400000000  0.4685740000000  0.5266310000000 1.0
C      1  0.5666400000000  0.4233400000000  0.5260630000000 1.0
C      1  0.5148030000000  0.4099850000000  0.5320380000000 1.0
C      1  0.4624270000000  0.4133210000000  0.5345200000000 1.0
C      1  0.4230950000000  0.4426310000000  0.5385270000000 1.0
C      1  0.3999710000000  0.4987520000000  0.5226770000000 1.0
C      1  0.4145240000000  0.5497240000000  0.5315680000000 1.0
C      1  0.4606160000000  0.5943920000000  0.5259480000000 1.0
C      1  0.5084160000000  0.5923600000000  0.5351640000000 1.0
C      1  0.5043980000000  0.4525940000000  0.5430550000000 1.0
C      1  0.4773190000000  0.4589380000000  0.5470220000000 1.0
C      1  0.4581330000000  0.4788630000000  0.5383890000000 1.0
C      1  0.4502810000000  0.5054680000000  0.5427270000000 1.0
C      1  0.4620290000000  0.5280190000000  0.5472290000000 1.0
C      1  0.4849110000000  0.5432500000000  0.5456980000000 1.0
C      1  0.5125250000000  0.5442490000000  0.5459010000000 1.0
C      1  0.5369700000000  0.5303690000000  0.5460780000000 1.0
C      1  0.5482310000000  0.5057880000000  0.5461110000000 1.0
C      1  0.5259500000000  0.4891980000000  0.5502620000000 1.0
C      1  0.5284710000000  0.4623020000000  0.5454140000000 1.0
C      1  0.4695280000000  0.3936340000000  0.4939060000000 1.0
C      1  0.4165560000000  0.4278410000000  0.4954640000000 1.0
C      1  0.3977420000000  0.4711970000000  0.5094510000000 1.0
C      1  0.3990990000000  0.5445270000000  0.4942000000000 1.0
C      1  0.4364570000000  0.5918020000000  0.5087040000000 1.0
C      1  0.5031830000000  0.6172480000000  0.4986530000000 1.0
C      1  0.5465150000000  0.5948650000000  0.5091260000000 1.0
C      1  0.5947730000000  0.5516960000000  0.5071530000000 1.0
C      1  0.6089220000000  0.4886830000000  0.5046500000000 1.0
C      1  0.5860130000000  0.4307920000000  0.5043340000000 1.0
C      1  0.5353620000000  0.3913960000000  0.4991430000000 1.0
C      1  0.5235040000000  0.6111520000000  0.5180840000000 1.0
C      1  0.5825270000000  0.5754190000000  0.5151220000000 1.0
C      1  0.6192760000000  0.5123550000000  0.5169700000000 1.0
C      1  0.6070150000000  0.4483800000000  0.5094150000000 1.0
C      1  0.5536270000000  0.4003820000000  0.5174170000000 1.0
C      1  0.5072470000000  0.3904800000000  0.5111780000000 1.0
C      1  0.4461000000000  0.4047130000000  0.5113500000000 1.0
C      1  0.4035730000000  0.4439940000000  0.5171340000000 1.0
C      1  0.3883700000000  0.5205400000000  0.5070140000000 1.0
C      1  0.4170830000000  0.5755490000000  0.5211240000000 1.0
C      1  0.4760960000000  0.6063210000000  0.5040600000000 1.0
C      1  0.5147280000000  0.5656290000000  0.5266400000000 1.0
C      1  0.5581310000000  0.5418860000000  0.5313250000000 1.0
C      1  0.5769770000000  0.5040760000000  0.5380290000000 1.0
C      1  0.5726620000000  0.4615730000000  0.5375400000000 1.0
C      1  0.5476030000000  0.4531570000000  0.5259930000000 1.0
C      1  0.5048550000000  0.4345900000000  0.5207130000000 1.0
C      1  0.4678800000000  0.4405690000000  0.5269810000000 1.0
C      1  0.4300030000000  0.4705260000000  0.5405720000000 1.0
C      1  0.4257040000000  0.5083600000000  0.5292060000000 1.0
C      1  0.4469590000000  0.5427520000000  0.5271100000000 1.0
C      1  0.4658920000000  0.5661430000000  0.5341240000000 1.0
C      1  0.5228590000000  0.4137150000000  0.5601720000000 1.0
C      1  0.4714390000000  0.4120320000000  0.5630520000000 1.0
C      1  0.4296000000000  0.4396740000000  0.5674220000000 1.0
C      1  0.4160710000000  0.4855070000000  0.5622720000000 1.0
C      1  0.4129240000000  0.5381160000000  0.5608090000000 1.0
C      1  0.4524830000000  0.5732400000000  0.5621330000000 1.0
C      1  0.4996190000000  0.5917970000000  0.5631890000000 1.0
C      1  0.5490030000000  0.5776710000000  0.5621640000000 1.0
C      1  0.5752200000000  0.5397490000000  0.5591710000000 1.0
C      1  0.5849800000000  0.4924960000000  0.5640160000000 1.0
C      1  0.5676320000000  0.4451090000000  0.5614560000000 1.0
C      1  0.4083390000000  0.5184540000000  0.4882610000000 1.0
C      1  0.4369150000000  0.5719040000000  0.4857700000000 1.0
C      1  0.4825330000000  0.5848180000000  0.4852380000000 1.0
C      1  0.5359240000000  0.5837950000000  0.4852390000000 1.0
C      1  0.5751070000000  0.5490280000000  0.4851170000000 1.0
C      1  0.5896770000000  0.4981300000000  0.4846860000000 1.0
C      1  0.5749420000000  0.4505500000000  0.4842460000000 1.0
C      1  0.5395450000000  0.4159160000000  0.4827880000000 1.0
C      1  0.4948780000000  0.4060770000000  0.4907040000000 1.0
C      1  0.4430810000000  0.4248220000000  0.4922290000000 1.0
C      1  0.4095790000000  0.4722320000000  0.4842890000000 1.0
C      1  0.5402090000000  0.5270680000000  0.4040170000000 1.0
C      1  0.5495690000000  0.5007680000000  0.4007750000000 1.0
C      1  0.5382500000000  0.4749550000000  0.4058930000000 1.0
C      1  0.5207910000000  0.4542840000000  0.4000400000000 1.0
C      1  0.4924650000000  0.4520990000000  0.4051010000000 1.0
C      1  0.4667900000000  0.4603760000000  0.3970310000000 1.0
C      1  0.4558350000000  0.4857560000000  0.4045070000000 1.0
C      1  0.4551560000000  0.5121980000000  0.4058360000000 1.0
C      1  0.4656050000000  0.5366910000000  0.3956650000000 1.0
C      1  0.4910810000000  0.5457500000000  0.4044880000000 1.0
C      1  0.5188900000000  0.5457120000000  0.4007600000000 1.0
C      1  0.4993730000000  0.4465670000000  0.5870440000000 1.0
C      1  0.4715550000000  0.4559270000000  0.5880130000000 1.0
C      1  0.4529320000000  0.4781330000000  0.5900460000000 1.0
C      1  0.4491600000000  0.5085240000000  0.5879100000000 1.0
C      1  0.4679690000000  0.5292430000000  0.5899970000000 1.0
C      1  0.4859100000000  0.5514800000000  0.5901010000000 1.0
C      1  0.5156340000000  0.5521770000000  0.5885220000000 1.0
C      1  0.5384670000000  0.5353530000000  0.5903760000000 1.0
C      1  0.5496030000000  0.5083570000000  0.5904260000000 1.0
C      1  0.5461510000000  0.4787260000000  0.5895060000000 1.0
C      1  0.5276810000000  0.4551960000000  0.5862580000000 1.0
C      1  0.4990610000000  0.4997860000000  0.4859970000000 1.0
C      1  0.5032640000000  0.4991670000000  0.5355600000000 1.0
C      1  0.4998580000000  0.5001890000000  0.5107840000000 1.0
END
