TITL C-2441168-9922-1157 -0.000717765045753789 125000 -6379.84147997928 0 0 42 (C2) n - 1
REM
REM in /home/bkarasulu/work/CARBON/AIRSS/Generating-Clusters/ReaxFF-fromJPCA2015/Units_Real/with-SteepDescent/Higher-Symm
REM
REM
REM
REM
REM
REM ./C.cell (1df0a924f5614ab8850e4351716899ee)
REM
REM compiler GCC version 9.2.1 20190827 (Red Hat 9.2.1-1)
REM options -cpp -mtune=generic -march=x86-64 -g -O0 -fpre-include=/usr/include/finclude/math-vector-fortran.h
REM seed 1069696421 -574560766 1447609430 433848127 681008784 504831663 -378926519 -1950281894 1482454009 -791641691 1013424913 -623877452 1652983938 73320771 -1721983605 1503900970 -1177192550 -1043956094 -1919128529 1125160105 -1082207847 701414175 696127218 2026633673 912983744 255177 -88517905 858819325 2044246209 -1768609800 -798154945 -1486448268 1933972449
REM
CELL 1.54180   50.00000   50.00000   50.00000   90.00000   90.00000   90.00000
LATT -1
SFAC C  
C      1  0.5520080000000  0.4844970000000  0.4674600000000 1.0
C      1  0.5482650000000  0.4856420000000  0.5410640000000 1.0
C      1  0.4759490000000  0.4832360000000  0.5584020000000 1.0
C      1  0.4389440000000  0.4829330000000  0.4947790000000 1.0
C      1  0.4854620000000  0.4841300000000  0.4389930000000 1.0
C      1  0.4486470000000  0.5136930000000  0.4675510000000 1.0
C      1  0.4524300000000  0.5124800000000  0.5410900000000 1.0
C      1  0.5247360000000  0.5148450000000  0.5584170000000 1.0
C      1  0.5616130000000  0.5152280000000  0.4946890000000 1.0
C      1  0.5151670000000  0.5141060000000  0.4389570000000 1.0
C      1  0.5579610000000  0.4857600000000  0.4958220000000 1.0
C      1  0.5257270000000  0.4854860000000  0.5592840000000 1.0
C      1  0.4524360000000  0.4824210000000  0.5410070000000 1.0
C      1  0.4467760000000  0.4834900000000  0.4662640000000 1.0
C      1  0.5147590000000  0.4839110000000  0.4389540000000 1.0
C      1  0.4427130000000  0.5124270000000  0.4959750000000 1.0
C      1  0.4749980000000  0.5125800000000  0.5592920000000 1.0
C      1  0.5481540000000  0.5156940000000  0.5409040000000 1.0
C      1  0.5537580000000  0.5147100000000  0.4661890000000 1.0
C      1  0.4858690000000  0.5143140000000  0.4389610000000 1.0
C      1  0.4527270000000  0.4669300000000  0.5153650000000 1.0
C      1  0.4705990000000  0.4684500000000  0.4586820000000 1.0
C      1  0.5287860000000  0.4679690000000  0.4593270000000 1.0
C      1  0.5364460000000  0.4756310000000  0.5147310000000 1.0
C      1  0.5014730000000  0.4723610000000  0.5450160000000 1.0
C      1  0.5477520000000  0.5312000000000  0.5152610000000 1.0
C      1  0.5300100000000  0.5298720000000  0.4585830000000 1.0
C      1  0.4718420000000  0.5302110000000  0.4593730000000 1.0
C      1  0.4643380000000  0.5224750000000  0.5147950000000 1.0
C      1  0.4992240000000  0.5257770000000  0.5450580000000 1.0
C      1  0.4847950000000  0.4522820000000  0.4789420000000 1.0
C      1  0.5137650000000  0.4509020000000  0.4775280000000 1.0
C      1  0.5246290000000  0.4444540000000  0.5069310000000 1.0
C      1  0.4990490000000  0.4436510000000  0.5259580000000 1.0
C      1  0.4747240000000  0.4504050000000  0.5064230000000 1.0
C      1  0.5158360000000  0.5461280000000  0.4787940000000 1.0
C      1  0.4868560000000  0.5473910000000  0.4774640000000 1.0
C      1  0.4759760000000  0.5536770000000  0.5069060000000 1.0
C      1  0.5015590000000  0.5544390000000  0.5259380000000 1.0
C      1  0.5258460000000  0.5478350000000  0.5063090000000 1.0
C      1  0.5064690000000  0.4863040000000  0.5180970000000 1.0
C      1  0.4943520000000  0.5118770000000  0.5180950000000 1.0
END
