TITL C-2441161-5029-996 0.0180176995941008 125000 -5882.70827071922 0 0 45 (C1) n - 1
REM
REM in /home/bkarasulu/work/CARBON/AIRSS/Generating-Clusters/ReaxFF-fromJPCA2015/Units_Real/with-SteepDescent/Higher-Symm
REM
REM
REM
REM
REM
REM ./C.cell (1df0a924f5614ab8850e4351716899ee)
REM
REM compiler GCC version 9.2.1 20190827 (Red Hat 9.2.1-1)
REM options -cpp -mtune=generic -march=x86-64 -g -O0 -fpre-include=/usr/include/finclude/math-vector-fortran.h
REM seed 116627438 -2070057275 -524608135 1818528389 450580725 524840455 231482190 -1335394950 1406857850 1244606273 -406125473 1512753256 -56097843 459779025 -2020017987 -1848572829 526877204 -756841401 -393658253 -1573056972 -1925946271 574836242 2023206619 -463984030 99109570 1689498134 1141374797 1981306382 -373398329 1822475310 701546900 -100108758 1893387278
REM
CELL 1.54180   50.00000   50.00000   50.00000   90.00000   90.00000   90.00000
LATT -1
SFAC C  
C      1  0.5315890000000  0.4623220000000  0.4607100000000 1.0
C      1  0.5173940000000  0.5514030000000  0.4635560000000 1.0
C      1  0.4548240000000  0.4907270000000  0.4597370000000 1.0
C      1  0.5134590000000  0.5577760000000  0.5220610000000 1.0
C      1  0.4381230000000  0.4822830000000  0.5212240000000 1.0
C      1  0.5464740000000  0.4587540000000  0.5222550000000 1.0
C      1  0.4822840000000  0.4755200000000  0.5446460000000 1.0
C      1  0.5281210000000  0.4961470000000  0.5463560000000 1.0
C      1  0.4877760000000  0.5271910000000  0.5451610000000 1.0
C      1  0.4597780000000  0.5194890000000  0.5533510000000 1.0
C      1  0.5040830000000  0.4572540000000  0.5522880000000 1.0
C      1  0.5369510000000  0.5242410000000  0.5532030000000 1.0
C      1  0.5228680000000  0.4432540000000  0.5309400000000 1.0
C      1  0.5373390000000  0.5467860000000  0.5324140000000 1.0
C      1  0.4409130000000  0.5097940000000  0.5317470000000 1.0
C      1  0.5428600000000  0.5047170000000  0.5035110000000 1.0
C      1  0.4746720000000  0.5357530000000  0.5029210000000 1.0
C      1  0.4755740000000  0.4667380000000  0.5001020000000 1.0
C      1  0.5220520000000  0.4750880000000  0.5640760000000 1.0
C      1  0.5112020000000  0.5313470000000  0.5603600000000 1.0
C      1  0.4673830000000  0.4936080000000  0.5593330000000 1.0
C      1  0.4699930000000  0.4972490000000  0.4358740000000 1.0
C      1  0.5208750000000  0.4774530000000  0.4379600000000 1.0
C      1  0.5090870000000  0.5263280000000  0.4490730000000 1.0
C      1  0.4469110000000  0.5209140000000  0.5053440000000 1.0
C      1  0.5164020000000  0.4393850000000  0.5045640000000 1.0
C      1  0.5454660000000  0.5357820000000  0.5064180000000 1.0
C      1  0.5420920000000  0.4873820000000  0.4577910000000 1.0
C      1  0.4898640000000  0.5458810000000  0.4588800000000 1.0
C      1  0.4701210000000  0.4649170000000  0.4601830000000 1.0
C      1  0.5151530000000  0.5046510000000  0.4289010000000 1.0
C      1  0.4887180000000  0.5150580000000  0.4270430000000 1.0
C      1  0.4873870000000  0.4754230000000  0.4389320000000 1.0
C      1  0.4850510000000  0.4542020000000  0.4790820000000 1.0
C      1  0.5443880000000  0.5089920000000  0.4754920000000 1.0
C      1  0.4699490000000  0.5358210000000  0.4753630000000 1.0
C      1  0.4518150000000  0.5134950000000  0.4774510000000 1.0
C      1  0.5130760000000  0.4480590000000  0.4779780000000 1.0
C      1  0.5370020000000  0.5367130000000  0.4787320000000 1.0
C      1  0.4876080000000  0.5642570000000  0.5152910000000 1.0
C      1  0.4512920000000  0.4562760000000  0.5155630000000 1.0
C      1  0.5621650000000  0.4802780000000  0.5161280000000 1.0
C      1  0.4948190000000  0.5178120000000  0.5161600000000 1.0
C      1  0.4879130000000  0.4873600000000  0.5154800000000 1.0
C      1  0.5171380000000  0.4961200000000  0.5163630000000 1.0
END
