TITL C-2441156-4686-917 0.254149616457883 125000 -19070.0700738419 0 0 189 (C1) n - 1
REM
REM in /home/bkarasulu/work/CARBON/AIRSS/Generating-Clusters/ReaxFF-fromJPCA2015/Units_Real/with-SteepDescent/Higher-Symm
REM
REM
REM
REM
REM
REM ./C.cell (1df0a924f5614ab8850e4351716899ee)
REM
REM compiler GCC version 9.2.1 20190827 (Red Hat 9.2.1-1)
REM options -cpp -mtune=generic -march=x86-64 -g -O0 -fpre-include=/usr/include/finclude/math-vector-fortran.h
REM seed -187301687 -1581229746 1147413079 407908666 1359648602 -865021318 1373469839 1052024757 365996188 834035268 -794493313 -1412052820 536114578 1630990644 -974958503 1686527327 1788610038 -1837720819 2099891220 1038301512 784677879 847879567 -1368947482 -1775715499 -1895467542 1639848641 402741721 534306654 -236837414 1747762968 -807419286 1116917892 -1761892223
REM
CELL 1.54180   50.00000   50.00000   50.00000   90.00000   90.00000   90.00000
LATT -1
SFAC C  
C      1  0.5257890000000  0.6024100000000  0.5139960000000 1.0
C      1  0.6067060000000  0.5164500000000  0.5267730000000 1.0
C      1  0.5146410000000  0.5245820000000  0.6013130000000 1.0
C      1  0.4754060000000  0.6048980000000  0.4829960000000 1.0
C      1  0.4742010000000  0.3922710000000  0.5122820000000 1.0
C      1  0.5258990000000  0.4007680000000  0.4847530000000 1.0
C      1  0.4006740000000  0.5208490000000  0.4771710000000 1.0
C      1  0.3996990000000  0.4847540000000  0.5246400000000 1.0
C      1  0.5999290000000  0.4837130000000  0.4750220000000 1.0
C      1  0.4767330000000  0.5224220000000  0.3994830000000 1.0
C      1  0.4842250000000  0.4759340000000  0.6015860000000 1.0
C      1  0.5152750000000  0.4763690000000  0.4007170000000 1.0
C      1  0.5251830000000  0.3983610000000  0.5148620000000 1.0
C      1  0.6025500000000  0.4740740000000  0.5226560000000 1.0
C      1  0.5145630000000  0.4757110000000  0.6031290000000 1.0
C      1  0.4739680000000  0.3967970000000  0.4805790000000 1.0
C      1  0.4744770000000  0.6048410000000  0.5123300000000 1.0
C      1  0.5270240000000  0.6013870000000  0.4843090000000 1.0
C      1  0.3983710000000  0.4823350000000  0.4774010000000 1.0
C      1  0.3999220000000  0.5154350000000  0.5225420000000 1.0
C      1  0.6015610000000  0.5137840000000  0.4737050000000 1.0
C      1  0.4843420000000  0.4751530000000  0.3989740000000 1.0
C      1  0.4835210000000  0.5249640000000  0.5994180000000 1.0
C      1  0.5133310000000  0.5265290000000  0.3930380000000 1.0
C      1  0.4423760000000  0.5541620000000  0.5181560000000 1.0
C      1  0.5546920000000  0.5251940000000  0.4492520000000 1.0
C      1  0.5205430000000  0.4417720000000  0.5517060000000 1.0
C      1  0.5554580000000  0.5544050000000  0.4775750000000 1.0
C      1  0.5592100000000  0.4505620000000  0.5175660000000 1.0
C      1  0.4426230000000  0.4458490000000  0.4797270000000 1.0
C      1  0.4492060000000  0.5200900000000  0.5595170000000 1.0
C      1  0.4384040000000  0.4778110000000  0.4384480000000 1.0
C      1  0.5610600000000  0.4795820000000  0.5600980000000 1.0
C      1  0.4795480000000  0.4408640000000  0.4431170000000 1.0
C      1  0.4731770000000  0.5516430000000  0.5582390000000 1.0
C      1  0.5227070000000  0.5548430000000  0.4457340000000 1.0
C      1  0.4423200000000  0.4469470000000  0.5201090000000 1.0
C      1  0.5524770000000  0.4769820000000  0.4439710000000 1.0
C      1  0.5202700000000  0.5585190000000  0.5509470000000 1.0
C      1  0.5545630000000  0.4446870000000  0.4765110000000 1.0
C      1  0.5543740000000  0.5507830000000  0.5217220000000 1.0
C      1  0.4381700000000  0.5606550000000  0.4794780000000 1.0
C      1  0.4475010000000  0.4785460000000  0.5546300000000 1.0
C      1  0.4420880000000  0.5202390000000  0.4398900000000 1.0
C      1  0.5487740000000  0.5180200000000  0.5551500000000 1.0
C      1  0.4790010000000  0.5608750000000  0.4399430000000 1.0
C      1  0.4746920000000  0.4449420000000  0.5591380000000 1.0
C      1  0.5251770000000  0.4457580000000  0.4468370000000 1.0
C      1  0.5742410000000  0.4875570000000  0.5128190000000 1.0
C      1  0.4846800000000  0.5134540000000  0.5705170000000 1.0
C      1  0.5129420000000  0.5729040000000  0.4868740000000 1.0
C      1  0.4236350000000  0.4883170000000  0.4894730000000 1.0
C      1  0.4285320000000  0.5188200000000  0.5131200000000 1.0
C      1  0.5758390000000  0.5222260000000  0.4843080000000 1.0
C      1  0.5228540000000  0.5147550000000  0.4288120000000 1.0
C      1  0.5162400000000  0.4860130000000  0.5749380000000 1.0
C      1  0.4806850000000  0.4871820000000  0.4260730000000 1.0
C      1  0.4881810000000  0.5808630000000  0.5245050000000 1.0
C      1  0.4877020000000  0.4230200000000  0.4774060000000 1.0
C      1  0.5128720000000  0.4250900000000  0.5180140000000 1.0
C      1  0.5770080000000  0.5150470000000  0.5113270000000 1.0
C      1  0.4863990000000  0.4870110000000  0.5726710000000 1.0
C      1  0.5141230000000  0.4275690000000  0.4794750000000 1.0
C      1  0.4300160000000  0.5131640000000  0.4871170000000 1.0
C      1  0.4270780000000  0.4807900000000  0.5115020000000 1.0
C      1  0.5718220000000  0.4810380000000  0.4861020000000 1.0
C      1  0.5191950000000  0.4882150000000  0.4280450000000 1.0
C      1  0.5141500000000  0.5140940000000  0.5730350000000 1.0
C      1  0.4858390000000  0.5121550000000  0.4259050000000 1.0
C      1  0.4870180000000  0.4207140000000  0.5252860000000 1.0
C      1  0.4868220000000  0.5776530000000  0.4771750000000 1.0
C      1  0.5133590000000  0.5747110000000  0.5148290000000 1.0
C      1  0.5136480000000  0.5139790000000  0.4592510000000 1.0
C      1  0.5118270000000  0.4513820000000  0.5146900000000 1.0
C      1  0.4567430000000  0.5138690000000  0.5190140000000 1.0
C      1  0.4842620000000  0.5145550000000  0.5415210000000 1.0
C      1  0.4819150000000  0.4806090000000  0.4554390000000 1.0
C      1  0.5165180000000  0.4893620000000  0.5270180000000 1.0
C      1  0.4810040000000  0.4556840000000  0.4912370000000 1.0
C      1  0.4826290000000  0.5459320000000  0.5207440000000 1.0
C      1  0.5128600000000  0.5393940000000  0.4860740000000 1.0
C      1  0.5422330000000  0.5160890000000  0.4869150000000 1.0
C      1  0.5463690000000  0.4758650000000  0.5161110000000 1.0
C      1  0.4603520000000  0.4732820000000  0.4822770000000 1.0
C      1  0.5140080000000  0.4838820000000  0.4565720000000 1.0
C      1  0.5112130000000  0.5430040000000  0.5156040000000 1.0
C      1  0.4554760000000  0.4851990000000  0.5124700000000 1.0
C      1  0.4865570000000  0.4840030000000  0.5378220000000 1.0
C      1  0.4788260000000  0.5134240000000  0.4557060000000 1.0
C      1  0.5162380000000  0.5191780000000  0.5385910000000 1.0
C      1  0.4800410000000  0.5410810000000  0.4912080000000 1.0
C      1  0.4831450000000  0.4536030000000  0.5215970000000 1.0
C      1  0.5147940000000  0.4566480000000  0.4856800000000 1.0
C      1  0.5422900000000  0.4860620000000  0.4849910000000 1.0
C      1  0.5487270000000  0.5230110000000  0.5153240000000 1.0
C      1  0.4623350000000  0.5215250000000  0.4792540000000 1.0
C      1  0.5508100000000  0.5175760000000  0.4217630000000 1.0
C      1  0.5219870000000  0.4131050000000  0.5527660000000 1.0
C      1  0.4137750000000  0.5538960000000  0.5173250000000 1.0
C      1  0.4508590000000  0.5143120000000  0.5872050000000 1.0
C      1  0.4450020000000  0.4825220000000  0.4110200000000 1.0
C      1  0.5526530000000  0.4811350000000  0.5878040000000 1.0
C      1  0.4913890000000  0.4158010000000  0.4492740000000 1.0
C      1  0.4807300000000  0.5805340000000  0.5532780000000 1.0
C      1  0.5207540000000  0.5843830000000  0.4458130000000 1.0
C      1  0.5848240000000  0.5507730000000  0.4770650000000 1.0
C      1  0.5876670000000  0.4513460000000  0.5123230000000 1.0
C      1  0.4146570000000  0.4519340000000  0.4874380000000 1.0
C      1  0.5536600000000  0.4779390000000  0.4150040000000 1.0
C      1  0.5218500000000  0.5869370000000  0.5504920000000 1.0
C      1  0.4128000000000  0.4459180000000  0.5167590000000 1.0
C      1  0.4489540000000  0.4855930000000  0.5831540000000 1.0
C      1  0.4491620000000  0.5127840000000  0.4125020000000 1.0
C      1  0.5510540000000  0.5170090000000  0.5834080000000 1.0
C      1  0.4906920000000  0.5854380000000  0.4497970000000 1.0
C      1  0.4801990000000  0.4163960000000  0.5535520000000 1.0
C      1  0.5214560000000  0.4176290000000  0.4424790000000 1.0
C      1  0.5852720000000  0.4448850000000  0.4791130000000 1.0
C      1  0.5838270000000  0.5573640000000  0.5207440000000 1.0
C      1  0.4142850000000  0.5483960000000  0.4877590000000 1.0
C      1  0.5525970000000  0.4047600000000  0.5230190000000 1.0
C      1  0.4036290000000  0.5221350000000  0.5512810000000 1.0
C      1  0.5250010000000  0.5505610000000  0.4027380000000 1.0
C      1  0.4461920000000  0.4043280000000  0.4788590000000 1.0
C      1  0.4485240000000  0.5955290000000  0.5202800000000 1.0
C      1  0.5538390000000  0.5949850000000  0.4769380000000 1.0
C      1  0.5955640000000  0.5210320000000  0.4457870000000 1.0
C      1  0.5998910000000  0.4773030000000  0.5508800000000 1.0
C      1  0.4003000000000  0.4795340000000  0.4489540000000 1.0
C      1  0.4802600000000  0.5541780000000  0.5979660000000 1.0
C      1  0.4781190000000  0.4470790000000  0.4041790000000 1.0
C      1  0.5206910000000  0.4478150000000  0.5968960000000 1.0
C      1  0.5525590000000  0.5959310000000  0.5242240000000 1.0
C      1  0.4049290000000  0.4779280000000  0.5527410000000 1.0
C      1  0.5240470000000  0.4491200000000  0.4054570000000 1.0
C      1  0.4468170000000  0.5988990000000  0.4789730000000 1.0
C      1  0.4457940000000  0.4044150000000  0.5207830000000 1.0
C      1  0.5531930000000  0.4051160000000  0.4765390000000 1.0
C      1  0.5950900000000  0.4793180000000  0.4464190000000 1.0
C      1  0.5963370000000  0.5219630000000  0.5527350000000 1.0
C      1  0.4019460000000  0.5206240000000  0.4484750000000 1.0
C      1  0.4792460000000  0.4473360000000  0.5995090000000 1.0
C      1  0.4777950000000  0.5517770000000  0.4003850000000 1.0
C      1  0.5215450000000  0.5516850000000  0.5943250000000 1.0
C      1  0.5515010000000  0.4137140000000  0.4489660000000 1.0
C      1  0.4131900000000  0.4504310000000  0.5497840000000 1.0
C      1  0.4561410000000  0.5534240000000  0.4202070000000 1.0
C      1  0.4508020000000  0.4150340000000  0.5475650000000 1.0
C      1  0.4433450000000  0.5791700000000  0.4582860000000 1.0
C      1  0.5512240000000  0.5875270000000  0.5521200000000 1.0
C      1  0.5861850000000  0.4517840000000  0.4495680000000 1.0
C      1  0.5851240000000  0.5505700000000  0.5501880000000 1.0
C      1  0.4223240000000  0.5420180000000  0.4484980000000 1.0
C      1  0.5491290000000  0.5466140000000  0.5847580000000 1.0
C      1  0.5509030000000  0.4480620000000  0.4145890000000 1.0
C      1  0.4553610000000  0.4482230000000  0.5821100000000 1.0
C      1  0.5502560000000  0.5863980000000  0.4496370000000 1.0
C      1  0.4140090000000  0.5486780000000  0.5482010000000 1.0
C      1  0.4509530000000  0.4514590000000  0.4122440000000 1.0
C      1  0.4516010000000  0.5835540000000  0.5464690000000 1.0
C      1  0.4481110000000  0.4243150000000  0.4567320000000 1.0
C      1  0.5515790000000  0.4130670000000  0.5515600000000 1.0
C      1  0.5872350000000  0.5495620000000  0.4477660000000 1.0
C      1  0.5791610000000  0.4565890000000  0.5519660000000 1.0
C      1  0.4204760000000  0.4573560000000  0.4480010000000 1.0
C      1  0.5479730000000  0.4518640000000  0.5866220000000 1.0
C      1  0.5519240000000  0.5467470000000  0.4149890000000 1.0
C      1  0.4548670000000  0.5541400000000  0.5828960000000 1.0
C      1  0.4999120000000  0.5486190000000  0.4236990000000 1.0
C      1  0.4982880000000  0.4475680000000  0.5752280000000 1.0
C      1  0.5495080000000  0.4283590000000  0.5044690000000 1.0
C      1  0.4268920000000  0.5023310000000  0.5487010000000 1.0
C      1  0.4982790000000  0.5504230000000  0.5734490000000 1.0
C      1  0.5012780000000  0.4533730000000  0.4292670000000 1.0
C      1  0.4546360000000  0.4247160000000  0.5005020000000 1.0
C      1  0.4540450000000  0.5731450000000  0.4979270000000 1.0
C      1  0.5506510000000  0.5732050000000  0.5038860000000 1.0
C      1  0.5719180000000  0.5020860000000  0.4508950000000 1.0
C      1  0.5723740000000  0.5027040000000  0.5483170000000 1.0
C      1  0.4256380000000  0.4981210000000  0.4495600000000 1.0
C      1  0.4361370000000  0.4361990000000  0.5619170000000 1.0
C      1  0.4332240000000  0.5658510000000  0.4345550000000 1.0
C      1  0.5639720000000  0.4381910000000  0.4374400000000 1.0
C      1  0.5626290000000  0.5627210000000  0.5635400000000 1.0
C      1  0.4357810000000  0.5634200000000  0.5613060000000 1.0
C      1  0.5634410000000  0.5628430000000  0.4364760000000 1.0
C      1  0.5623150000000  0.4368290000000  0.5658070000000 1.0
C      1  0.4359070000000  0.4370520000000  0.4332840000000 1.0
C      1  0.5026290000000  0.4973680000000  0.5027870000000 1.0
END
