TITL C-2441163-1170-448 0.00265668865278253 125000 -9496.97622357501 0 0 64 (C1) n - 1
REM
REM in /home/bkarasulu/work/CARBON/AIRSS/Generating-Clusters/ReaxFF-fromJPCA2015/Units_Real/with-SteepDescent/Higher-Symm
REM
REM
REM
REM
REM
REM ./C.cell (1df0a924f5614ab8850e4351716899ee)
REM
REM compiler GCC version 9.2.1 20190827 (Red Hat 9.2.1-1)
REM options -cpp -mtune=generic -march=x86-64 -g -O0 -fpre-include=/usr/include/finclude/math-vector-fortran.h
REM seed -30740634 -340664423 -948109580 -635454145 1837687216 -1595156806 -49895891 1696259394 -1697842547 1836377840 367921317 -370674104 -1766363576 1520170711 -1623975647 387471020 113002478 1659562809 1426812695 569930563 -2111245193 67619563 881719675 543583204 469909827 -705434838 -1374009240 478454402 657278107 2073691827 -832202844 443650660 671991096
REM
CELL 1.54180   50.00000   50.00000   50.00000   90.00000   90.00000   90.00000
LATT -1
SFAC C  
C      1  0.5020880000000  0.5192950000000  0.5739380000000 1.0
C      1  0.4979820000000  0.4779090000000  0.5751560000000 1.0
C      1  0.5550590000000  0.4705090000000  0.5409030000000 1.0
C      1  0.4474260000000  0.5270230000000  0.5417880000000 1.0
C      1  0.5211310000000  0.4962980000000  0.5751090000000 1.0
C      1  0.4790280000000  0.5007310000000  0.5742360000000 1.0
C      1  0.4779280000000  0.4999640000000  0.5152420000000 1.0
C      1  0.5194860000000  0.5032770000000  0.5194380000000 1.0
C      1  0.5014030000000  0.5365650000000  0.5498880000000 1.0
C      1  0.4971310000000  0.4626990000000  0.5496480000000 1.0
C      1  0.5144110000000  0.5059750000000  0.4893690000000 1.0
C      1  0.4886610000000  0.4929500000000  0.4872460000000 1.0
C      1  0.5451260000000  0.5138130000000  0.5363480000000 1.0
C      1  0.4466560000000  0.4778440000000  0.5407440000000 1.0
C      1  0.5392580000000  0.4483240000000  0.5296340000000 1.0
C      1  0.4614250000000  0.5499250000000  0.5298970000000 1.0
C      1  0.4506860000000  0.4545940000000  0.5214570000000 1.0
C      1  0.5497440000000  0.5482280000000  0.5152470000000 1.0
C      1  0.4869500000000  0.5607560000000  0.5411540000000 1.0
C      1  0.5133360000000  0.4396630000000  0.5403790000000 1.0
C      1  0.5129320000000  0.5249930000000  0.4394030000000 1.0
C      1  0.4879940000000  0.4733210000000  0.4378600000000 1.0
C      1  0.4972850000000  0.4805370000000  0.5269900000000 1.0
C      1  0.4971860000000  0.5230600000000  0.5246230000000 1.0
C      1  0.5163730000000  0.5344400000000  0.4823350000000 1.0
C      1  0.4848380000000  0.4644260000000  0.4802680000000 1.0
C      1  0.5052470000000  0.5779150000000  0.5259010000000 1.0
C      1  0.4941960000000  0.4220900000000  0.5267840000000 1.0
C      1  0.4677120000000  0.4637180000000  0.4565740000000 1.0
C      1  0.5314800000000  0.5385740000000  0.4579940000000 1.0
C      1  0.5471490000000  0.4464040000000  0.5013060000000 1.0
C      1  0.4543820000000  0.5534500000000  0.5018260000000 1.0
C      1  0.5655150000000  0.5320940000000  0.4986400000000 1.0
C      1  0.4379120000000  0.4700040000000  0.5000870000000 1.0
C      1  0.4366470000000  0.5262330000000  0.4656230000000 1.0
C      1  0.5633530000000  0.4747120000000  0.4672020000000 1.0
C      1  0.4429770000000  0.4945010000000  0.5167750000000 1.0
C      1  0.5689140000000  0.5113510000000  0.5197990000000 1.0
C      1  0.4669610000000  0.4301940000000  0.5183280000000 1.0
C      1  0.5335100000000  0.5714980000000  0.5164770000000 1.0
C      1  0.5300280000000  0.4436270000000  0.4771790000000 1.0
C      1  0.4710230000000  0.5551370000000  0.4779230000000 1.0
C      1  0.4417690000000  0.4730050000000  0.4700820000000 1.0
C      1  0.5583000000000  0.5282050000000  0.4684180000000 1.0
C      1  0.4276300000000  0.5388210000000  0.4938200000000 1.0
C      1  0.5683000000000  0.4651240000000  0.4954640000000 1.0
C      1  0.5011530000000  0.4398660000000  0.4801960000000 1.0
C      1  0.5003570000000  0.5591480000000  0.4788560000000 1.0
C      1  0.5716070000000  0.4813870000000  0.5193460000000 1.0
C      1  0.4241900000000  0.5216810000000  0.5204960000000 1.0
C      1  0.4828330000000  0.5224930000000  0.4407030000000 1.0
C      1  0.5183150000000  0.4762000000000  0.4398000000000 1.0
C      1  0.5613810000000  0.5018980000000  0.4672840000000 1.0
C      1  0.4383450000000  0.4996920000000  0.4676930000000 1.0
C      1  0.4872040000000  0.4217140000000  0.4984150000000 1.0
C      1  0.5110980000000  0.5788860000000  0.4978150000000 1.0
C      1  0.4564590000000  0.5021360000000  0.5550130000000 1.0
C      1  0.5443500000000  0.4933180000000  0.5569200000000 1.0
C      1  0.4856910000000  0.4993970000000  0.4056680000000 1.0
C      1  0.5122980000000  0.5006750000000  0.4055550000000 1.0
C      1  0.5376460000000  0.4624820000000  0.4566510000000 1.0
C      1  0.4630560000000  0.5369410000000  0.4565770000000 1.0
C      1  0.4713740000000  0.4965600000000  0.4300400000000 1.0
C      1  0.5281170000000  0.5017470000000  0.4284690000000 1.0
END
