TITL C-2441166-8118-469 0.00821896782333795 125000 -4831.26128989045 0 0 37 (C1) n - 1
REM
REM in /home/bkarasulu/work/CARBON/AIRSS/Generating-Clusters/ReaxFF-fromJPCA2015/Units_Real/with-SteepDescent/Higher-Symm
REM
REM
REM
REM
REM
REM ./C.cell (1df0a924f5614ab8850e4351716899ee)
REM
REM compiler GCC version 9.2.1 20190827 (Red Hat 9.2.1-1)
REM options -cpp -mtune=generic -march=x86-64 -g -O0 -fpre-include=/usr/include/finclude/math-vector-fortran.h
REM seed 430460644 1421292198 1242223732 451570914 -1877248235 984053218 1216194376 343668137 993426949 -1197798630 -1260276977 219879998 2128104329 -1010405221 287062285 -1547996376 -656778227 1779540577 -2083777622 1497230660 -87298711 -814431033 1113997668 -726784538 -1648850628 2095978363 -815573105 -737086017 686165083 1516814343 -667380841 1956297156 1520830628
REM
CELL 1.54180   50.00000   50.00000   50.00000   90.00000   90.00000   90.00000
LATT -1
SFAC C  
C      1  0.5143200000000  0.5695740000000  0.5124670000000 1.0
C      1  0.5148910000000  0.5700210000000  0.4874150000000 1.0
C      1  0.5373870000000  0.5053520000000  0.5141120000000 1.0
C      1  0.5374170000000  0.5058010000000  0.4860930000000 1.0
C      1  0.4937340000000  0.5039440000000  0.5316990000000 1.0
C      1  0.4942150000000  0.5031620000000  0.4677340000000 1.0
C      1  0.4459120000000  0.4967720000000  0.5275560000000 1.0
C      1  0.4484020000000  0.4996860000000  0.4764420000000 1.0
C      1  0.4993370000000  0.5291660000000  0.5172380000000 1.0
C      1  0.4997500000000  0.5289250000000  0.4828560000000 1.0
C      1  0.5375550000000  0.4762520000000  0.4489500000000 1.0
C      1  0.5368030000000  0.4762890000000  0.5509510000000 1.0
C      1  0.4490770000000  0.4683170000000  0.5151120000000 1.0
C      1  0.4500100000000  0.4699170000000  0.4858840000000 1.0
C      1  0.5659250000000  0.5067390000000  0.4853400000000 1.0
C      1  0.5659130000000  0.5061740000000  0.5149370000000 1.0
C      1  0.4661620000000  0.5153390000000  0.5381100000000 1.0
C      1  0.4678810000000  0.5145050000000  0.4604270000000 1.0
C      1  0.5048600000000  0.5541390000000  0.4670770000000 1.0
C      1  0.5038600000000  0.5541390000000  0.5327740000000 1.0
C      1  0.4966390000000  0.4543690000000  0.4719440000000 1.0
C      1  0.4969350000000  0.4546880000000  0.5267200000000 1.0
C      1  0.5508610000000  0.4837340000000  0.4739470000000 1.0
C      1  0.5507510000000  0.4830700000000  0.5261460000000 1.0
C      1  0.5095220000000  0.5065980000000  0.5799030000000 1.0
C      1  0.5097460000000  0.5064500000000  0.4195830000000 1.0
C      1  0.5140400000000  0.4966530000000  0.5573960000000 1.0
C      1  0.5146430000000  0.4962610000000  0.4420250000000 1.0
C      1  0.4773500000000  0.5412690000000  0.5326700000000 1.0
C      1  0.4784290000000  0.5404350000000  0.4656660000000 1.0
C      1  0.4954880000000  0.4811880000000  0.5128280000000 1.0
C      1  0.4953270000000  0.4808260000000  0.4858540000000 1.0
C      1  0.4700420000000  0.4476960000000  0.4853600000000 1.0
C      1  0.4699060000000  0.4468640000000  0.5145770000000 1.0
C      1  0.5218680000000  0.4567900000000  0.5385870000000 1.0
C      1  0.5222040000000  0.4572120000000  0.4615200000000 1.0
C      1  0.4456080000000  0.5088970000000  0.5028560000000 1.0
END
