TITL C-2441163-1170-403 0.209651040687397 125000 -22059.4811253446 0 0 182 (C1) n - 1
REM
REM in /home/bkarasulu/work/CARBON/AIRSS/Generating-Clusters/ReaxFF-fromJPCA2015/Units_Real/with-SteepDescent/Higher-Symm
REM
REM
REM
REM
REM
REM ./C.cell (1df0a924f5614ab8850e4351716899ee)
REM
REM compiler GCC version 9.2.1 20190827 (Red Hat 9.2.1-1)
REM options -cpp -mtune=generic -march=x86-64 -g -O0 -fpre-include=/usr/include/finclude/math-vector-fortran.h
REM seed 1716807700 -1118896420 -293238962 -1799226526 1416427158 430299255 -2116945391 -726208858 785502920 -1818584621 -152748711 -796732755 -1124812892 1699993125 -519298750 -2001160997 -1477145594 -1545366285 -253738098 1298955255 -502396548 878255042 -1834648639 1089904178 57063653 974785004 387862686 1421355928 -987962684 131923956 -1337676088 -1146097044 1638722612
REM
CELL 1.54180   50.00000   50.00000   50.00000   90.00000   90.00000   90.00000
LATT -1
SFAC C  
C      1  0.5033080000000  0.4076970000000  0.4793350000000 1.0
C      1  0.5036070000000  0.6011570000000  0.4777570000000 1.0
C      1  0.4508600000000  0.4186670000000  0.5456060000000 1.0
C      1  0.4547730000000  0.5842580000000  0.5434980000000 1.0
C      1  0.4310140000000  0.4536230000000  0.4408370000000 1.0
C      1  0.4328970000000  0.5477480000000  0.4418070000000 1.0
C      1  0.5251440000000  0.5835300000000  0.4842040000000 1.0
C      1  0.5283440000000  0.4140340000000  0.4849540000000 1.0
C      1  0.5400360000000  0.5732780000000  0.5780660000000 1.0
C      1  0.5382880000000  0.4294950000000  0.5752590000000 1.0
C      1  0.4327500000000  0.5636350000000  0.5180530000000 1.0
C      1  0.4312600000000  0.4287820000000  0.5060540000000 1.0
C      1  0.5526350000000  0.4554550000000  0.4929740000000 1.0
C      1  0.5513190000000  0.5430660000000  0.4959350000000 1.0
C      1  0.4529280000000  0.4152440000000  0.4749310000000 1.0
C      1  0.4497340000000  0.5810880000000  0.4783740000000 1.0
C      1  0.4916780000000  0.4245260000000  0.4417580000000 1.0
C      1  0.4990230000000  0.5744820000000  0.4388050000000 1.0
C      1  0.4746880000000  0.5429270000000  0.5157910000000 1.0
C      1  0.4839700000000  0.4505720000000  0.5099320000000 1.0
C      1  0.5589570000000  0.4639230000000  0.4216210000000 1.0
C      1  0.5575340000000  0.5386420000000  0.4189840000000 1.0
C      1  0.4866180000000  0.4883830000000  0.5321930000000 1.0
C      1  0.5104900000000  0.5302250000000  0.5349830000000 1.0
C      1  0.5554760000000  0.4702330000000  0.4665210000000 1.0
C      1  0.5549920000000  0.5273080000000  0.4650160000000 1.0
C      1  0.4783840000000  0.4486620000000  0.5782390000000 1.0
C      1  0.4795470000000  0.5539550000000  0.5776750000000 1.0
C      1  0.4894350000000  0.3932830000000  0.4986810000000 1.0
C      1  0.4860380000000  0.6100970000000  0.4989080000000 1.0
C      1  0.4600170000000  0.5281180000000  0.5367810000000 1.0
C      1  0.4679190000000  0.4667570000000  0.5310540000000 1.0
C      1  0.5559620000000  0.4604600000000  0.5197510000000 1.0
C      1  0.5578620000000  0.5347450000000  0.5242580000000 1.0
C      1  0.4748190000000  0.4750550000000  0.4656390000000 1.0
C      1  0.4784870000000  0.5268350000000  0.4657050000000 1.0
C      1  0.4262430000000  0.4385340000000  0.5443980000000 1.0
C      1  0.4198320000000  0.5648590000000  0.5419360000000 1.0
C      1  0.6045320000000  0.4643310000000  0.4882050000000 1.0
C      1  0.5972740000000  0.5337030000000  0.4833650000000 1.0
C      1  0.5185130000000  0.5300060000000  0.5815440000000 1.0
C      1  0.5152730000000  0.4609090000000  0.5701860000000 1.0
C      1  0.5059200000000  0.4494550000000  0.5277350000000 1.0
C      1  0.4962100000000  0.5540300000000  0.5310670000000 1.0
C      1  0.5227500000000  0.4249960000000  0.4340740000000 1.0
C      1  0.5269280000000  0.5765270000000  0.4335050000000 1.0
C      1  0.4395760000000  0.4603230000000  0.5765810000000 1.0
C      1  0.4414210000000  0.5412760000000  0.5771910000000 1.0
C      1  0.4481290000000  0.4136040000000  0.5177590000000 1.0
C      1  0.4470050000000  0.5863640000000  0.5177150000000 1.0
C      1  0.4240160000000  0.4589780000000  0.4711690000000 1.0
C      1  0.4267360000000  0.5378100000000  0.4740070000000 1.0
C      1  0.5327210000000  0.5541110000000  0.4160590000000 1.0
C      1  0.5338000000000  0.4475440000000  0.4184450000000 1.0
C      1  0.4808280000000  0.5932990000000  0.5451710000000 1.0
C      1  0.4797810000000  0.4107600000000  0.5444950000000 1.0
C      1  0.5146410000000  0.4555050000000  0.4672150000000 1.0
C      1  0.5084990000000  0.5374950000000  0.4653900000000 1.0
C      1  0.5151670000000  0.4162860000000  0.5648070000000 1.0
C      1  0.5172650000000  0.5867470000000  0.5700430000000 1.0
C      1  0.4756290000000  0.4370260000000  0.4206430000000 1.0
C      1  0.4771700000000  0.5667320000000  0.4231920000000 1.0
C      1  0.3928080000000  0.5237820000000  0.5230060000000 1.0
C      1  0.3996590000000  0.4741560000000  0.5235030000000 1.0
C      1  0.5395110000000  0.5731610000000  0.4599540000000 1.0
C      1  0.5390330000000  0.4231070000000  0.4577130000000 1.0
C      1  0.4476110000000  0.4794340000000  0.4741900000000 1.0
C      1  0.4531510000000  0.5278360000000  0.4836650000000 1.0
C      1  0.4808430000000  0.4597120000000  0.4129270000000 1.0
C      1  0.4803040000000  0.5438600000000  0.4117320000000 1.0
C      1  0.5270150000000  0.4119360000000  0.5139590000000 1.0
C      1  0.5226340000000  0.5874140000000  0.5128470000000 1.0
C      1  0.4629350000000  0.5396890000000  0.5622260000000 1.0
C      1  0.4616040000000  0.4584740000000  0.5584560000000 1.0
C      1  0.5848280000000  0.5543470000000  0.4672570000000 1.0
C      1  0.5894530000000  0.4463100000000  0.4717810000000 1.0
C      1  0.5888830000000  0.4703030000000  0.5558000000000 1.0
C      1  0.5845280000000  0.5275180000000  0.5592110000000 1.0
C      1  0.4047460000000  0.5634900000000  0.5168810000000 1.0
C      1  0.4095530000000  0.4362830000000  0.5205160000000 1.0
C      1  0.4004950000000  0.5405110000000  0.5006300000000 1.0
C      1  0.4052620000000  0.4594480000000  0.5013580000000 1.0
C      1  0.6047060000000  0.5251050000000  0.5125880000000 1.0
C      1  0.5982400000000  0.4744720000000  0.5152000000000 1.0
C      1  0.5360760000000  0.5452090000000  0.5389540000000 1.0
C      1  0.5314380000000  0.4634190000000  0.5341240000000 1.0
C      1  0.4602040000000  0.5977780000000  0.4970730000000 1.0
C      1  0.4620870000000  0.4010550000000  0.4969030000000 1.0
C      1  0.5803680000000  0.5654800000000  0.5153520000000 1.0
C      1  0.5748270000000  0.4251770000000  0.5186210000000 1.0
C      1  0.4320140000000  0.4729910000000  0.4195530000000 1.0
C      1  0.4301850000000  0.5312250000000  0.4188000000000 1.0
C      1  0.4889390000000  0.4730750000000  0.4917300000000 1.0
C      1  0.4908330000000  0.5251340000000  0.4979650000000 1.0
C      1  0.4325720000000  0.4326340000000  0.4797840000000 1.0
C      1  0.4219950000000  0.5685640000000  0.4761410000000 1.0
C      1  0.4173660000000  0.4628690000000  0.5564440000000 1.0
C      1  0.4182200000000  0.5417970000000  0.5593680000000 1.0
C      1  0.5102190000000  0.5192720000000  0.3892930000000 1.0
C      1  0.5118090000000  0.4793940000000  0.3882800000000 1.0
C      1  0.4996350000000  0.4608470000000  0.5930530000000 1.0
C      1  0.4959790000000  0.5392660000000  0.5961370000000 1.0
C      1  0.4446800000000  0.5200510000000  0.5953660000000 1.0
C      1  0.4475730000000  0.4794090000000  0.5981360000000 1.0
C      1  0.5434390000000  0.4574040000000  0.5679850000000 1.0
C      1  0.5404280000000  0.5454490000000  0.5708530000000 1.0
C      1  0.4944220000000  0.5714610000000  0.5588940000000 1.0
C      1  0.5007120000000  0.4418550000000  0.5563830000000 1.0
C      1  0.4898530000000  0.5793860000000  0.4648370000000 1.0
C      1  0.4949810000000  0.4345940000000  0.4728960000000 1.0
C      1  0.5003900000000  0.4020920000000  0.5242920000000 1.0
C      1  0.4984210000000  0.6008550000000  0.5229900000000 1.0
C      1  0.5676580000000  0.5668600000000  0.4894420000000 1.0
C      1  0.5718480000000  0.4325970000000  0.4906170000000 1.0
C      1  0.5412840000000  0.5893240000000  0.5554580000000 1.0
C      1  0.5417890000000  0.4091690000000  0.5565490000000 1.0
C      1  0.5854560000000  0.5495700000000  0.5382580000000 1.0
C      1  0.5828520000000  0.4519100000000  0.5317220000000 1.0
C      1  0.5082680000000  0.5408320000000  0.4072210000000 1.0
C      1  0.5089340000000  0.4598180000000  0.4082950000000 1.0
C      1  0.4641510000000  0.4121030000000  0.4497460000000 1.0
C      1  0.4633450000000  0.5858900000000  0.4565090000000 1.0
C      1  0.5701580000000  0.4675480000000  0.5772310000000 1.0
C      1  0.5640370000000  0.5305510000000  0.5783300000000 1.0
C      1  0.5392600000000  0.5739560000000  0.5315820000000 1.0
C      1  0.5504020000000  0.4136310000000  0.5292370000000 1.0
C      1  0.4566390000000  0.5275610000000  0.4093820000000 1.0
C      1  0.4574800000000  0.4761190000000  0.4061590000000 1.0
C      1  0.5339760000000  0.5442980000000  0.4563430000000 1.0
C      1  0.5386120000000  0.4518460000000  0.4565190000000 1.0
C      1  0.5728000000000  0.5402140000000  0.4444810000000 1.0
C      1  0.5777730000000  0.4640690000000  0.4488480000000 1.0
C      1  0.4502930000000  0.4325380000000  0.4342740000000 1.0
C      1  0.4520020000000  0.5690970000000  0.4364800000000 1.0
C      1  0.5172070000000  0.4735780000000  0.4880810000000 1.0
C      1  0.5185510000000  0.5293710000000  0.4904670000000 1.0
C      1  0.5302000000000  0.5004400000000  0.4016140000000 1.0
C      1  0.4062690000000  0.5189410000000  0.5482480000000 1.0
C      1  0.4599590000000  0.5016240000000  0.4251940000000 1.0
C      1  0.4441840000000  0.4980170000000  0.4521570000000 1.0
C      1  0.4868550000000  0.4994330000000  0.4592050000000 1.0
C      1  0.6172320000000  0.4907840000000  0.4793410000000 1.0
C      1  0.5695500000000  0.4888760000000  0.4109670000000 1.0
C      1  0.5460150000000  0.4989330000000  0.5081590000000 1.0
C      1  0.4676020000000  0.5018970000000  0.5988250000000 1.0
C      1  0.3844540000000  0.4926000000000  0.4633820000000 1.0
C      1  0.5926040000000  0.4992380000000  0.5631840000000 1.0
C      1  0.4884650000000  0.5169350000000  0.6127470000000 1.0
C      1  0.5911610000000  0.5056870000000  0.4766880000000 1.0
C      1  0.3927140000000  0.4990870000000  0.5078680000000 1.0
C      1  0.5866450000000  0.4918180000000  0.4529770000000 1.0
C      1  0.4177850000000  0.5073460000000  0.4482650000000 1.0
C      1  0.4381140000000  0.4950690000000  0.5139180000000 1.0
C      1  0.6100710000000  0.5019040000000  0.4412460000000 1.0
C      1  0.4841950000000  0.4988230000000  0.5058810000000 1.0
C      1  0.5442680000000  0.4992600000000  0.4589500000000 1.0
C      1  0.5382190000000  0.4993970000000  0.6116720000000 1.0
C      1  0.5881640000000  0.5011380000000  0.5211030000000 1.0
C      1  0.5346380000000  0.4920690000000  0.5316240000000 1.0
C      1  0.4158670000000  0.5014370000000  0.4204740000000 1.0
C      1  0.5993800000000  0.5000890000000  0.4158150000000 1.0
C      1  0.5601230000000  0.5077180000000  0.5303150000000 1.0
C      1  0.4859700000000  0.5005650000000  0.4185380000000 1.0
C      1  0.4888140000000  0.4979190000000  0.3900140000000 1.0
C      1  0.5299650000000  0.5003410000000  0.4859890000000 1.0
C      1  0.4994150000000  0.5067000000000  0.5487580000000 1.0
C      1  0.4241730000000  0.4959270000000  0.5577730000000 1.0
C      1  0.5126350000000  0.5044020000000  0.6217180000000 1.0
C      1  0.3930910000000  0.4977370000000  0.4377880000000 1.0
C      1  0.6236150000000  0.5062660000000  0.5026390000000 1.0
C      1  0.5777210000000  0.4926780000000  0.5870340000000 1.0
C      1  0.4193340000000  0.5072930000000  0.4963160000000 1.0
C      1  0.5142760000000  0.5042800000000  0.5717010000000 1.0
C      1  0.5559590000000  0.5131920000000  0.4045160000000 1.0
C      1  0.4279430000000  0.4981580000000  0.5880310000000 1.0
C      1  0.3677920000000  0.4980430000000  0.4839760000000 1.0
C      1  0.4482770000000  0.5015090000000  0.5395450000000 1.0
C      1  0.5028100000000  0.4987430000000  0.4378910000000 1.0
C      1  0.5141000000000  0.4894710000000  0.5966040000000 1.0
C      1  0.5283410000000  0.4988400000000  0.4341930000000 1.0
C      1  0.5598510000000  0.5102650000000  0.5970720000000 1.0
C      1  0.4576210000000  0.5013900000000  0.4971400000000 1.0
END
