TITL C-2441154-10-946 0.0614961387640983 125000 -11438.4474251794 0 0 91 (C1) n - 1
REM
REM in /home/bkarasulu/work/CARBON/AIRSS/Generating-Clusters/ReaxFF-fromJPCA2015/Units_Real/with-SteepDescent/Higher-Symm
REM
REM
REM
REM
REM
REM ./C.cell (1df0a924f5614ab8850e4351716899ee)
REM
REM compiler GCC version 9.2.1 20190827 (Red Hat 9.2.1-1)
REM options -cpp -mtune=generic -march=x86-64 -g -O0 -fpre-include=/usr/include/finclude/math-vector-fortran.h
REM seed 2073285909 551781941 -7671078 -137341670 -726412715 1045021985 1842049900 1122094702 -1933997139 -965031151 -707283849 1636616209 411463689 -2023630015 552197984 936453804 -2061566714 913643786 -1046532592 46875425 -1543254618 -1220139339 1792141787 471052623 1143150167 1618048139 -2057821946 1130674722 -693437736 -1055582616 -2081956468 -1264792151 1747511633
REM
CELL 1.54180   50.00000   50.00000   50.00000   90.00000   90.00000   90.00000
LATT -1
SFAC C  
C      1  0.4568350000000  0.4596300000000  0.4441220000000 1.0
C      1  0.5686350000000  0.4555840000000  0.4875420000000 1.0
C      1  0.4698740000000  0.4572770000000  0.5609670000000 1.0
C      1  0.5841290000000  0.4795310000000  0.4862800000000 1.0
C      1  0.4651050000000  0.4798320000000  0.5772000000000 1.0
C      1  0.4452070000000  0.4811030000000  0.4318460000000 1.0
C      1  0.4652560000000  0.5208960000000  0.4450310000000 1.0
C      1  0.5654200000000  0.5214480000000  0.4913060000000 1.0
C      1  0.4731610000000  0.5200140000000  0.5589430000000 1.0
C      1  0.4479920000000  0.4830800000000  0.5395380000000 1.0
C      1  0.4896260000000  0.4812180000000  0.4350600000000 1.0
C      1  0.5590870000000  0.4909420000000  0.5180130000000 1.0
C      1  0.4795470000000  0.5869460000000  0.4865310000000 1.0
C      1  0.5201750000000  0.5862240000000  0.4980670000000 1.0
C      1  0.4935340000000  0.5907450000000  0.5142700000000 1.0
C      1  0.4794200000000  0.4575940000000  0.5351780000000 1.0
C      1  0.4786360000000  0.4642010000000  0.4595100000000 1.0
C      1  0.5510030000000  0.4563100000000  0.5092210000000 1.0
C      1  0.5735340000000  0.5165300000000  0.4621520000000 1.0
C      1  0.4961870000000  0.5134210000000  0.5815930000000 1.0
C      1  0.4311190000000  0.5157320000000  0.4605960000000 1.0
C      1  0.4617480000000  0.5535190000000  0.5395090000000 1.0
C      1  0.4851970000000  0.5521940000000  0.4458570000000 1.0
C      1  0.5547450000000  0.5510200000000  0.5130890000000 1.0
C      1  0.5243800000000  0.5176850000000  0.5765050000000 1.0
C      1  0.4187140000000  0.5186710000000  0.4862810000000 1.0
C      1  0.5533670000000  0.5190690000000  0.4416290000000 1.0
C      1  0.5834710000000  0.5022680000000  0.5051480000000 1.0
C      1  0.4492420000000  0.5014390000000  0.5619820000000 1.0
C      1  0.4666530000000  0.4994330000000  0.4242930000000 1.0
C      1  0.5123310000000  0.5491370000000  0.4328440000000 1.0
C      1  0.5522570000000  0.5484490000000  0.5433910000000 1.0
C      1  0.4367410000000  0.5475210000000  0.5237950000000 1.0
C      1  0.5053020000000  0.4517330000000  0.5229280000000 1.0
C      1  0.4756720000000  0.4326180000000  0.4873220000000 1.0
C      1  0.5232710000000  0.4332840000000  0.4807220000000 1.0
C      1  0.4698760000000  0.5012320000000  0.4647340000000 1.0
C      1  0.5436340000000  0.5004920000000  0.4941220000000 1.0
C      1  0.4886900000000  0.5044370000000  0.5401650000000 1.0
C      1  0.4515580000000  0.5042180000000  0.5227120000000 1.0
C      1  0.5046300000000  0.5046520000000  0.4426050000000 1.0
C      1  0.5427220000000  0.5067150000000  0.5336230000000 1.0
C      1  0.5536520000000  0.4552360000000  0.5405440000000 1.0
C      1  0.4329980000000  0.4609520000000  0.5275910000000 1.0
C      1  0.5110600000000  0.4583330000000  0.4330130000000 1.0
C      1  0.5436440000000  0.4748830000000  0.5607200000000 1.0
C      1  0.4222640000000  0.4764430000000  0.5051030000000 1.0
C      1  0.5338830000000  0.4754920000000  0.4296810000000 1.0
C      1  0.5114160000000  0.4366200000000  0.4526980000000 1.0
C      1  0.5375340000000  0.4308470000000  0.5376720000000 1.0
C      1  0.4459650000000  0.4366040000000  0.5182060000000 1.0
C      1  0.4307770000000  0.4863720000000  0.4575210000000 1.0
C      1  0.5719190000000  0.4877560000000  0.4618110000000 1.0
C      1  0.4943240000000  0.4847390000000  0.5802080000000 1.0
C      1  0.4284180000000  0.5202040000000  0.5311400000000 1.0
C      1  0.5148960000000  0.5218670000000  0.4217210000000 1.0
C      1  0.5593490000000  0.5217240000000  0.5520410000000 1.0
C      1  0.5083440000000  0.5556800000000  0.5232500000000 1.0
C      1  0.4721880000000  0.5564290000000  0.4930220000000 1.0
C      1  0.5168940000000  0.5581010000000  0.4819760000000 1.0
C      1  0.4138350000000  0.5041160000000  0.5100520000000 1.0
C      1  0.5384070000000  0.5040730000000  0.4215730000000 1.0
C      1  0.5492150000000  0.5025100000000  0.5721850000000 1.0
C      1  0.5152840000000  0.5141980000000  0.5278960000000 1.0
C      1  0.4705680000000  0.5130100000000  0.5041180000000 1.0
C      1  0.5100490000000  0.5135990000000  0.4689620000000 1.0
C      1  0.5161050000000  0.4687340000000  0.5652420000000 1.0
C      1  0.4365640000000  0.4693020000000  0.4807830000000 1.0
C      1  0.5482110000000  0.4722140000000  0.4546250000000 1.0
C      1  0.4492640000000  0.4444450000000  0.4904270000000 1.0
C      1  0.5475650000000  0.4472340000000  0.4692920000000 1.0
C      1  0.5155760000000  0.4433010000000  0.5514700000000 1.0
C      1  0.5164680000000  0.5292080000000  0.5528650000000 1.0
C      1  0.4457880000000  0.5278150000000  0.4841150000000 1.0
C      1  0.5352810000000  0.5279060000000  0.4622100000000 1.0
C      1  0.4748080000000  0.5798650000000  0.5343200000000 1.0
C      1  0.4826560000000  0.5805410000000  0.4591280000000 1.0
C      1  0.5454440000000  0.5783210000000  0.5061610000000 1.0
C      1  0.4848240000000  0.4879760000000  0.4974740000000 1.0
C      1  0.5133340000000  0.4879190000000  0.4846300000000 1.0
C      1  0.5081120000000  0.4781170000000  0.5113210000000 1.0
C      1  0.5302000000000  0.5553470000000  0.4545950000000 1.0
C      1  0.5244560000000  0.5551750000000  0.5479340000000 1.0
C      1  0.4439890000000  0.5524750000000  0.4964460000000 1.0
C      1  0.5263390000000  0.5419400000000  0.5055550000000 1.0
C      1  0.4818490000000  0.5419530000000  0.5189950000000 1.0
C      1  0.4914390000000  0.5423970000000  0.4738010000000 1.0
C      1  0.4722220000000  0.4316840000000  0.5298980000000 1.0
C      1  0.4826860000000  0.4347040000000  0.4594770000000 1.0
C      1  0.5364260000000  0.4300260000000  0.5070860000000 1.0
C      1  0.4948360000000  0.4273560000000  0.5085660000000 1.0
END
