TITL C-2441162-9305-217 -0.0028571948045558 125000 -3221.23752583658 0 0 23 (C1) n - 1
REM
REM in /home/bkarasulu/work/CARBON/AIRSS/Generating-Clusters/ReaxFF-fromJPCA2015/Units_Real/with-SteepDescent/Higher-Symm
REM
REM
REM
REM
REM
REM ./C.cell (1df0a924f5614ab8850e4351716899ee)
REM
REM compiler GCC version 9.2.1 20190827 (Red Hat 9.2.1-1)
REM options -cpp -mtune=generic -march=x86-64 -g -O0 -fpre-include=/usr/include/finclude/math-vector-fortran.h
REM seed -114581545 1631282221 1494492860 -513501697 979791939 -1390062239 -1854414664 386201937 -1668481339 20072817 -417221583 -1634278838 1333425075 232757880 -1152767129 1213638681 167854119 1976807119 1942510187 1428124945 1540351036 -508472800 -185461681 -102133417 -1475487908 -512618883 -1278078214 -2006523549 -1066258613 -719903927 -422747593 -1161688018 1189914158
REM
CELL 1.54180   50.00000   50.00000   50.00000   90.00000   90.00000   90.00000
LATT -1
SFAC C  
C      1  0.5572740000000  0.5309360000000  0.4596650000000 1.0
C      1  0.4168720000000  0.4768520000000  0.4555280000000 1.0
C      1  0.5593480000000  0.5331110000000  0.5435340000000 1.0
C      1  0.4233260000000  0.4901640000000  0.5318460000000 1.0
C      1  0.5552240000000  0.5043850000000  0.4505460000000 1.0
C      1  0.4471910000000  0.4802510000000  0.4460300000000 1.0
C      1  0.5576830000000  0.5071020000000  0.5541430000000 1.0
C      1  0.4433400000000  0.4887700000000  0.5536560000000 1.0
C      1  0.5581730000000  0.4761770000000  0.5485700000000 1.0
C      1  0.4725140000000  0.4950080000000  0.5504950000000 1.0
C      1  0.5562490000000  0.4737800000000  0.4576550000000 1.0
C      1  0.4707200000000  0.4905130000000  0.4581340000000 1.0
C      1  0.5594110000000  0.5388560000000  0.5124330000000 1.0
C      1  0.4328130000000  0.4994230000000  0.5045250000000 1.0
C      1  0.5588650000000  0.5382850000000  0.4903840000000 1.0
C      1  0.4243300000000  0.4880770000000  0.4808300000000 1.0
C      1  0.4793250000000  0.5065950000000  0.4828570000000 1.0
C      1  0.5416260000000  0.4786770000000  0.4821800000000 1.0
C      1  0.4800450000000  0.5084300000000  0.5246720000000 1.0
C      1  0.5424290000000  0.4798270000000  0.5245190000000 1.0
C      1  0.4593140000000  0.5126240000000  0.5036780000000 1.0
C      1  0.5243790000000  0.4842650000000  0.5035580000000 1.0
C      1  0.4994000000000  0.5014430000000  0.5034910000000 1.0
END
