TITL C-2441169-1362-95 0.144780503699974 125000 -24700.1959504628 0 0 188 (C1) n - 1
REM
REM in /home/bkarasulu/work/CARBON/AIRSS/Generating-Clusters/ReaxFF-fromJPCA2015/Units_Real/with-SteepDescent/Higher-Symm
REM
REM
REM
REM
REM
REM ./C.cell (1df0a924f5614ab8850e4351716899ee)
REM
REM compiler GCC version 9.2.1 20190827 (Red Hat 9.2.1-1)
REM options -cpp -mtune=generic -march=x86-64 -g -O0 -fpre-include=/usr/include/finclude/math-vector-fortran.h
REM seed 995747783 -125911192 -449312037 1730512982 -1631406875 -666091997 -1750917994 339706355 921008579 935885116 -1510078735 -1730122529 -1855482594 1700773550 1226588525 1153188393 -1837539444 -1537880664 -977358807 -1381979237 1968054290 -1602254573 -1356847845 1180702776 -684590996 825353976 530734081 -1713467892 1093687591 -1146611180 608823469 1669177513 -702600548
REM
CELL 1.54180   50.00000   50.00000   50.00000   90.00000   90.00000   90.00000
LATT -1
SFAC C  
C      1  0.4443210000000  0.5438700000000  0.5729730000000 1.0
C      1  0.4469050000000  0.5810970000000  0.4904130000000 1.0
C      1  0.5045820000000  0.4233730000000  0.5280640000000 1.0
C      1  0.5224680000000  0.3879640000000  0.5259780000000 1.0
C      1  0.5871950000000  0.4738460000000  0.4541220000000 1.0
C      1  0.5422160000000  0.3967610000000  0.5063270000000 1.0
C      1  0.4890300000000  0.5202500000000  0.4870360000000 1.0
C      1  0.4739060000000  0.4874630000000  0.3981960000000 1.0
C      1  0.5971920000000  0.5271500000000  0.5347520000000 1.0
C      1  0.5237990000000  0.4018970000000  0.5528970000000 1.0
C      1  0.4504110000000  0.4931970000000  0.5321860000000 1.0
C      1  0.5051560000000  0.5735790000000  0.4314420000000 1.0
C      1  0.5808770000000  0.4285380000000  0.5214320000000 1.0
C      1  0.5696000000000  0.5211160000000  0.4924300000000 1.0
C      1  0.5049010000000  0.3951450000000  0.4805560000000 1.0
C      1  0.4504290000000  0.4500050000000  0.4130550000000 1.0
C      1  0.4258380000000  0.4353000000000  0.4569750000000 1.0
C      1  0.4175310000000  0.5573800000000  0.5293460000000 1.0
C      1  0.4560260000000  0.5706300000000  0.5712500000000 1.0
C      1  0.5864500000000  0.5422840000000  0.4863780000000 1.0
C      1  0.4208400000000  0.4783700000000  0.5800170000000 1.0
C      1  0.5306300000000  0.5681880000000  0.4430370000000 1.0
C      1  0.5491750000000  0.5079220000000  0.4096460000000 1.0
C      1  0.5229240000000  0.4489110000000  0.5253230000000 1.0
C      1  0.4043590000000  0.4631720000000  0.5092400000000 1.0
C      1  0.4318620000000  0.5300710000000  0.4674130000000 1.0
C      1  0.5567180000000  0.4604850000000  0.4166220000000 1.0
C      1  0.4939350000000  0.5639090000000  0.4068970000000 1.0
C      1  0.4709190000000  0.4492460000000  0.5124710000000 1.0
C      1  0.5000050000000  0.5162280000000  0.4277870000000 1.0
C      1  0.4228670000000  0.4230110000000  0.4836460000000 1.0
C      1  0.5425750000000  0.5741110000000  0.5594560000000 1.0
C      1  0.5312020000000  0.4357370000000  0.5779420000000 1.0
C      1  0.5381130000000  0.4016010000000  0.4587450000000 1.0
C      1  0.4305770000000  0.5767120000000  0.4660050000000 1.0
C      1  0.4675270000000  0.5968470000000  0.4568380000000 1.0
C      1  0.5195720000000  0.4845990000000  0.5993320000000 1.0
C      1  0.5862430000000  0.5412440000000  0.5569740000000 1.0
C      1  0.5998020000000  0.5219840000000  0.4540230000000 1.0
C      1  0.5696830000000  0.5201580000000  0.5212560000000 1.0
C      1  0.5958650000000  0.4490390000000  0.5069920000000 1.0
C      1  0.5425680000000  0.5784230000000  0.4878210000000 1.0
C      1  0.5031970000000  0.5647740000000  0.5887940000000 1.0
C      1  0.4794470000000  0.4322950000000  0.5328580000000 1.0
C      1  0.5490340000000  0.5414460000000  0.5894370000000 1.0
C      1  0.5400610000000  0.4815690000000  0.4073380000000 1.0
C      1  0.4727040000000  0.5188080000000  0.4634110000000 1.0
C      1  0.4891850000000  0.5491490000000  0.6097450000000 1.0
C      1  0.5432100000000  0.4999700000000  0.5954660000000 1.0
C      1  0.5697600000000  0.5659000000000  0.5015350000000 1.0
C      1  0.4984790000000  0.5036310000000  0.4004320000000 1.0
C      1  0.4616760000000  0.6057410000000  0.4853000000000 1.0
C      1  0.5717520000000  0.4991800000000  0.5863210000000 1.0
C      1  0.4562520000000  0.4355770000000  0.5701520000000 1.0
C      1  0.5455590000000  0.5262060000000  0.4836650000000 1.0
C      1  0.5701140000000  0.5863520000000  0.5244110000000 1.0
C      1  0.3954500000000  0.5223080000000  0.5106360000000 1.0
C      1  0.4013880000000  0.5057740000000  0.5337160000000 1.0
C      1  0.6022980000000  0.5034830000000  0.5478960000000 1.0
C      1  0.4845940000000  0.5800910000000  0.5731020000000 1.0
C      1  0.4689420000000  0.4075780000000  0.5420380000000 1.0
C      1  0.5722930000000  0.5278890000000  0.5776440000000 1.0
C      1  0.5677200000000  0.4335660000000  0.5465190000000 1.0
C      1  0.5692100000000  0.5089930000000  0.4287570000000 1.0
C      1  0.4459080000000  0.5182640000000  0.5167300000000 1.0
C      1  0.5104570000000  0.5408290000000  0.3993870000000 1.0
C      1  0.4391970000000  0.4878920000000  0.4898460000000 1.0
C      1  0.5171020000000  0.5590400000000  0.4941790000000 1.0
C      1  0.4588490000000  0.4215530000000  0.4156160000000 1.0
C      1  0.4057770000000  0.4776980000000  0.5326910000000 1.0
C      1  0.4796360000000  0.5335070000000  0.5527720000000 1.0
C      1  0.4472450000000  0.5089880000000  0.4729490000000 1.0
C      1  0.6018860000000  0.4957610000000  0.4959430000000 1.0
C      1  0.5306030000000  0.4436780000000  0.4765000000000 1.0
C      1  0.4721540000000  0.5070550000000  0.5461370000000 1.0
C      1  0.4255810000000  0.5234570000000  0.4291540000000 1.0
C      1  0.4812620000000  0.5042740000000  0.4423270000000 1.0
C      1  0.5198260000000  0.4899450000000  0.4652650000000 1.0
C      1  0.3896340000000  0.4965120000000  0.4570470000000 1.0
C      1  0.4918180000000  0.4896380000000  0.6114780000000 1.0
C      1  0.4981380000000  0.5940520000000  0.5515880000000 1.0
C      1  0.5295370000000  0.5552080000000  0.5740170000000 1.0
C      1  0.5478420000000  0.4179580000000  0.5617090000000 1.0
C      1  0.4948750000000  0.5749370000000  0.4910600000000 1.0
C      1  0.4458750000000  0.4078920000000  0.4928460000000 1.0
C      1  0.4466960000000  0.4911380000000  0.4042400000000 1.0
C      1  0.4977840000000  0.4926820000000  0.4859670000000 1.0
C      1  0.5458950000000  0.4614010000000  0.5690350000000 1.0
C      1  0.4474410000000  0.5826770000000  0.4413220000000 1.0
C      1  0.5209260000000  0.5146820000000  0.4495740000000 1.0
C      1  0.5277120000000  0.5940920000000  0.5465940000000 1.0
C      1  0.5041220000000  0.4525860000000  0.4095080000000 1.0
C      1  0.4866010000000  0.4616490000000  0.5996290000000 1.0
C      1  0.5553780000000  0.4935580000000  0.5374230000000 1.0
C      1  0.5337970000000  0.6025850000000  0.5006810000000 1.0
C      1  0.5668630000000  0.5659040000000  0.5454580000000 1.0
C      1  0.5454850000000  0.6004530000000  0.5253570000000 1.0
C      1  0.4420230000000  0.5427700000000  0.4460450000000 1.0
C      1  0.4679600000000  0.5362930000000  0.5080510000000 1.0
C      1  0.4710900000000  0.4761170000000  0.5217570000000 1.0
C      1  0.5335820000000  0.5249090000000  0.6058360000000 1.0
C      1  0.5169390000000  0.4770080000000  0.5254230000000 1.0
C      1  0.4267260000000  0.4696550000000  0.5509200000000 1.0
C      1  0.5396610000000  0.4882980000000  0.5106860000000 1.0
C      1  0.5090840000000  0.5515580000000  0.5216270000000 1.0
C      1  0.4626080000000  0.4852310000000  0.5772740000000 1.0
C      1  0.5630370000000  0.5482470000000  0.4164950000000 1.0
C      1  0.4991300000000  0.5209710000000  0.5711520000000 1.0
C      1  0.4271640000000  0.4249490000000  0.5300870000000 1.0
C      1  0.4104930000000  0.4802220000000  0.4877740000000 1.0
C      1  0.4496970000000  0.5897200000000  0.5492900000000 1.0
C      1  0.4359030000000  0.5342800000000  0.5406700000000 1.0
C      1  0.4280160000000  0.5806050000000  0.5356430000000 1.0
C      1  0.4815310000000  0.4705820000000  0.4727260000000 1.0
C      1  0.4763820000000  0.5909390000000  0.5324850000000 1.0
C      1  0.4950410000000  0.4901900000000  0.5157350000000 1.0
C      1  0.5077970000000  0.4670750000000  0.5792120000000 1.0
C      1  0.5147750000000  0.5238750000000  0.5237030000000 1.0
C      1  0.5516970000000  0.4577180000000  0.5407660000000 1.0
C      1  0.5739300000000  0.4274240000000  0.4682420000000 1.0
C      1  0.4008470000000  0.4709790000000  0.4617360000000 1.0
C      1  0.3919430000000  0.5115050000000  0.4837000000000 1.0
C      1  0.4126550000000  0.4358510000000  0.5074670000000 1.0
C      1  0.5685110000000  0.4579320000000  0.4404110000000 1.0
C      1  0.4826750000000  0.5540980000000  0.5323280000000 1.0
C      1  0.4894530000000  0.4086160000000  0.4615430000000 1.0
C      1  0.5522170000000  0.5900230000000  0.4384740000000 1.0
C      1  0.5011350000000  0.3990950000000  0.5107070000000 1.0
C      1  0.4639820000000  0.4161990000000  0.4712440000000 1.0
C      1  0.5041880000000  0.5231220000000  0.6041950000000 1.0
C      1  0.5156450000000  0.4457390000000  0.4347230000000 1.0
C      1  0.5993180000000  0.4756600000000  0.5174180000000 1.0
C      1  0.5042420000000  0.6016470000000  0.4957790000000 1.0
C      1  0.5297690000000  0.4016540000000  0.4808540000000 1.0
C      1  0.4542230000000  0.4650740000000  0.4791080000000 1.0
C      1  0.4528990000000  0.4416470000000  0.4623490000000 1.0
C      1  0.5745060000000  0.5737140000000  0.4279570000000 1.0
C      1  0.5710010000000  0.5330810000000  0.4412120000000 1.0
C      1  0.5152370000000  0.4453400000000  0.4965570000000 1.0
C      1  0.5735480000000  0.4742540000000  0.5715570000000 1.0
C      1  0.4448740000000  0.5191980000000  0.4080600000000 1.0
C      1  0.5019860000000  0.4205520000000  0.4379240000000 1.0
C      1  0.5065740000000  0.4185030000000  0.5707120000000 1.0
C      1  0.4086530000000  0.5030650000000  0.4382510000000 1.0
C      1  0.5569210000000  0.4723510000000  0.4934560000000 1.0
C      1  0.4630090000000  0.5677410000000  0.4164350000000 1.0
C      1  0.4015120000000  0.5503950000000  0.5055220000000 1.0
C      1  0.4612630000000  0.4582820000000  0.5868210000000 1.0
C      1  0.5306490000000  0.5137810000000  0.5024300000000 1.0
C      1  0.4183370000000  0.4591470000000  0.4426680000000 1.0
C      1  0.5382880000000  0.5351930000000  0.4040150000000 1.0
C      1  0.4472770000000  0.4058740000000  0.5223550000000 1.0
C      1  0.5139810000000  0.4784910000000  0.3989430000000 1.0
C      1  0.4884050000000  0.4916230000000  0.5643340000000 1.0
C      1  0.5781750000000  0.4860740000000  0.4802630000000 1.0
C      1  0.4888780000000  0.4237240000000  0.4128270000000 1.0
C      1  0.4170380000000  0.5190890000000  0.5543830000000 1.0
C      1  0.4352020000000  0.4415030000000  0.5517000000000 1.0
C      1  0.5986800000000  0.4410310000000  0.4761770000000 1.0
C      1  0.4468350000000  0.5227760000000  0.5932000000000 1.0
C      1  0.5934210000000  0.4979100000000  0.4392600000000 1.0
C      1  0.5941550000000  0.4773570000000  0.5500770000000 1.0
C      1  0.4801660000000  0.4776790000000  0.4439940000000 1.0
C      1  0.5360970000000  0.5884310000000  0.4625680000000 1.0
C      1  0.5564660000000  0.4214780000000  0.5088440000000 1.0
C      1  0.4236920000000  0.5076600000000  0.5808540000000 1.0
C      1  0.4597430000000  0.5431530000000  0.4075800000000 1.0
C      1  0.4085750000000  0.5602460000000  0.4783740000000 1.0
C      1  0.5600390000000  0.4125510000000  0.4464800000000 1.0
C      1  0.4045220000000  0.5338150000000  0.4689510000000 1.0
C      1  0.5406120000000  0.5029120000000  0.5598070000000 1.0
C      1  0.5592400000000  0.5475640000000  0.5226340000000 1.0
C      1  0.4779120000000  0.4655370000000  0.4175040000000 1.0
C      1  0.4792040000000  0.6090650000000  0.5080970000000 1.0
C      1  0.4853080000000  0.5721160000000  0.4523530000000 1.0
C      1  0.5081920000000  0.5378920000000  0.4762540000000 1.0
C      1  0.4688450000000  0.5481430000000  0.4530160000000 1.0
C      1  0.6070220000000  0.5222540000000  0.4823240000000 1.0
C      1  0.5241650000000  0.4629230000000  0.4562980000000 1.0
C      1  0.5239350000000  0.5258380000000  0.5541230000000 1.0
C      1  0.5545720000000  0.4438630000000  0.4893440000000 1.0
C      1  0.5419050000000  0.5363770000000  0.4555870000000 1.0
C      1  0.4298590000000  0.4696440000000  0.4175650000000 1.0
C      1  0.4693860000000  0.5624450000000  0.4933230000000 1.0
C      1  0.5608520000000  0.4340790000000  0.4264230000000 1.0
C      1  0.4890220000000  0.4479250000000  0.4903150000000 1.0
C      1  0.4771390000000  0.4148410000000  0.5693750000000 1.0
C      1  0.4661380000000  0.5014050000000  0.6007880000000 1.0
END
