TITL C-2441157-2117-1474 4.89656686832252e-09 125000 -5537.13323754019 0 0 39 (C1) n - 1
REM
REM in /home/bkarasulu/work/CARBON/AIRSS/Generating-Clusters/ReaxFF-fromJPCA2015/Units_Real/with-SteepDescent/Higher-Symm
REM
REM
REM
REM
REM
REM ./C.cell (1df0a924f5614ab8850e4351716899ee)
REM
REM compiler GCC version 9.2.1 20190827 (Red Hat 9.2.1-1)
REM options -cpp -mtune=generic -march=x86-64 -g -O0 -fpre-include=/usr/include/finclude/math-vector-fortran.h
REM seed -1070543907 412406708 1227367988 947184309 1392045774 771375332 209456751 319025059 651411864 -1113961741 1813231979 -537787418 1159768886 -1982305278 564410023 1992878535 1079938500 1614527419 880961549 -1082904444 365391158 -1714429217 -2076407098 -1010261210 -1800252564 -669605079 -928029476 802313147 1001473579 -1215456283 -713134921 1562226988 -361074289
REM
CELL 1.54180   50.00000   50.00000   50.00000   90.00000   90.00000   90.00000
LATT -1
SFAC C  
C      1  0.5094290000000  0.4478440000000  0.5274940000000 1.0
C      1  0.4795530000000  0.4504840000000  0.5284960000000 1.0
C      1  0.4582100000000  0.4703440000000  0.5260280000000 1.0
C      1  0.4466060000000  0.4968860000000  0.5340990000000 1.0
C      1  0.4550790000000  0.5244140000000  0.5254700000000 1.0
C      1  0.4737360000000  0.5468290000000  0.5277720000000 1.0
C      1  0.5030620000000  0.5530910000000  0.5267400000000 1.0
C      1  0.5302320000000  0.5421230000000  0.5265230000000 1.0
C      1  0.5476370000000  0.5176370000000  0.5262680000000 1.0
C      1  0.5493630000000  0.4883690000000  0.5259940000000 1.0
C      1  0.5350760000000  0.4619920000000  0.5267210000000 1.0
C      1  0.5458860000000  0.5171720000000  0.4759980000000 1.0
C      1  0.5475160000000  0.4878950000000  0.4756590000000 1.0
C      1  0.5334070000000  0.4613920000000  0.4763530000000 1.0
C      1  0.5080640000000  0.4466680000000  0.4772770000000 1.0
C      1  0.4783330000000  0.4494910000000  0.4778680000000 1.0
C      1  0.4590860000000  0.4716240000000  0.4763870000000 1.0
C      1  0.4653940000000  0.4972000000000  0.4636530000000 1.0
C      1  0.4562910000000  0.5222630000000  0.4758320000000 1.0
C      1  0.4726980000000  0.5465760000000  0.4771180000000 1.0
C      1  0.5018200000000  0.5532560000000  0.4765390000000 1.0
C      1  0.5288460000000  0.5418650000000  0.4762190000000 1.0
C      1  0.4983530000000  0.5692410000000  0.5018310000000 1.0
C      1  0.5431580000000  0.5512400000000  0.5009540000000 1.0
C      1  0.5600950000000  0.5271160000000  0.5006110000000 1.0
C      1  0.5627860000000  0.4800730000000  0.5003620000000 1.0
C      1  0.5488180000000  0.4541350000000  0.5011200000000 1.0
C      1  0.5067340000000  0.4308170000000  0.5028780000000 1.0
C      1  0.4773800000000  0.4339400000000  0.5035620000000 1.0
C      1  0.4422950000000  0.4714990000000  0.5008450000000 1.0
C      1  0.4282360000000  0.4955800000000  0.5104030000000 1.0
C      1  0.4395340000000  0.5208640000000  0.5002660000000 1.0
C      1  0.4696290000000  0.5624280000000  0.5024720000000 1.0
C      1  0.4994530000000  0.4995850000000  0.4881400000000 1.0
C      1  0.5012860000000  0.5006200000000  0.5637030000000 1.0
C      1  0.5006030000000  0.5000040000000  0.5131620000000 1.0
C      1  0.5009960000000  0.5003320000000  0.5392700000000 1.0
C      1  0.4954620000000  0.4981410000000  0.4560460000000 1.0
C      1  0.5076000000000  0.5094020000000  0.4361020000000 1.0
END
