TITL C-2441168-9922-661 0.0167358118223542 125000 -8957.69579150388 0 0 65 (C1) n - 1
REM
REM in /home/bkarasulu/work/CARBON/AIRSS/Generating-Clusters/ReaxFF-fromJPCA2015/Units_Real/with-SteepDescent/Higher-Symm
REM
REM
REM
REM
REM
REM ./C.cell (1df0a924f5614ab8850e4351716899ee)
REM
REM compiler GCC version 9.2.1 20190827 (Red Hat 9.2.1-1)
REM options -cpp -mtune=generic -march=x86-64 -g -O0 -fpre-include=/usr/include/finclude/math-vector-fortran.h
REM seed 659597380 -250517971 1777583700 -1270008807 -831328623 -1117947015 -1075506052 -2114558713 -834317922 1723462599 -866401951 -1380368177 1953050404 -1237302967 -2122263485 -1624133808 1818963659 1595803016 -1582195672 467139293 1361993597 -879153598 266725776 1928750621 633238497 225906427 -368584534 405118304 1176321890 50751628 -1184272047 -1232481279 -1239111019
REM
CELL 1.54180   50.00000   50.00000   50.00000   90.00000   90.00000   90.00000
LATT -1
SFAC C  
C      1  0.5000960000000  0.4304190000000  0.5464710000000 1.0
C      1  0.4554450000000  0.4318980000000  0.5144280000000 1.0
C      1  0.4725670000000  0.4309000000000  0.4624830000000 1.0
C      1  0.5274080000000  0.4324860000000  0.4623210000000 1.0
C      1  0.5442910000000  0.4312630000000  0.5144090000000 1.0
C      1  0.5000670000000  0.4304820000000  0.4534940000000 1.0
C      1  0.4554450000000  0.4319420000000  0.4855740000000 1.0
C      1  0.4725720000000  0.4309060000000  0.5374940000000 1.0
C      1  0.5273750000000  0.4325500000000  0.5376220000000 1.0
C      1  0.5443410000000  0.4312850000000  0.4855590000000 1.0
C      1  0.4734180000000  0.5666290000000  0.5359140000000 1.0
C      1  0.4572160000000  0.5732450000000  0.4862490000000 1.0
C      1  0.5006300000000  0.5662850000000  0.4546120000000 1.0
C      1  0.5437250000000  0.5715580000000  0.4858290000000 1.0
C      1  0.5275710000000  0.5718040000000  0.5358550000000 1.0
C      1  0.4734850000000  0.5667510000000  0.4639050000000 1.0
C      1  0.4572210000000  0.5731430000000  0.5139680000000 1.0
C      1  0.5007420000000  0.5667290000000  0.5452680000000 1.0
C      1  0.5437840000000  0.5697940000000  0.5131910000000 1.0
C      1  0.5272960000000  0.5718900000000  0.4634910000000 1.0
C      1  0.5334160000000  0.4610720000000  0.5416680000000 1.0
C      1  0.4699720000000  0.4591260000000  0.5458440000000 1.0
C      1  0.4477980000000  0.4606430000000  0.4857170000000 1.0
C      1  0.4971610000000  0.4587090000000  0.4449640000000 1.0
C      1  0.5507750000000  0.4600820000000  0.4811440000000 1.0
C      1  0.5335350000000  0.4610890000000  0.4583100000000 1.0
C      1  0.4700120000000  0.4591370000000  0.4541020000000 1.0
C      1  0.4477810000000  0.4606040000000  0.5142970000000 1.0
C      1  0.4970260000000  0.4586080000000  0.5551530000000 1.0
C      1  0.5508320000000  0.4598890000000  0.5188570000000 1.0
C      1  0.4526530000000  0.5224100000000  0.4816900000000 1.0
C      1  0.4990250000000  0.5130670000000  0.4513450000000 1.0
C      1  0.5483930000000  0.5228960000000  0.4865480000000 1.0
C      1  0.5281750000000  0.5230470000000  0.5431610000000 1.0
C      1  0.4718550000000  0.5141460000000  0.5408850000000 1.0
C      1  0.4522710000000  0.5225430000000  0.5178820000000 1.0
C      1  0.4989130000000  0.5122630000000  0.5486240000000 1.0
C      1  0.5467080000000  0.5170050000000  0.5160240000000 1.0
C      1  0.5272430000000  0.5229570000000  0.4568600000000 1.0
C      1  0.4718520000000  0.5141440000000  0.4594300000000 1.0
C      1  0.5360760000000  0.5031260000000  0.5655820000000 1.0
C      1  0.4504160000000  0.4999700000000  0.5545610000000 1.0
C      1  0.4328810000000  0.5031480000000  0.4688390000000 1.0
C      1  0.5078180000000  0.4998230000000  0.4271420000000 1.0
C      1  0.5712840000000  0.5026890000000  0.4851640000000 1.0
C      1  0.5359990000000  0.5034890000000  0.4349390000000 1.0
C      1  0.4507380000000  0.5001030000000  0.4455990000000 1.0
C      1  0.4326460000000  0.5031440000000  0.5310930000000 1.0
C      1  0.5078320000000  0.4996310000000  0.5731800000000 1.0
C      1  0.5712260000000  0.5017640000000  0.5150060000000 1.0
C      1  0.4625520000000  0.4770110000000  0.5679200000000 1.0
C      1  0.4260620000000  0.4803480000000  0.4854650000000 1.0
C      1  0.4902250000000  0.4769020000000  0.4229930000000 1.0
C      1  0.5681910000000  0.4797470000000  0.4676130000000 1.0
C      1  0.5510120000000  0.4802800000000  0.5561620000000 1.0
C      1  0.4626560000000  0.4771030000000  0.4320890000000 1.0
C      1  0.4260110000000  0.4803040000000  0.5144500000000 1.0
C      1  0.4900820000000  0.4767300000000  0.5771420000000 1.0
C      1  0.5688440000000  0.4786240000000  0.5331370000000 1.0
C      1  0.5509930000000  0.4804360000000  0.4442330000000 1.0
C      1  0.5221280000000  0.5494970000000  0.4489550000000 1.0
C      1  0.4518390000000  0.5502250000000  0.5282890000000 1.0
C      1  0.5228390000000  0.5500520000000  0.5512710000000 1.0
C      1  0.4519970000000  0.5499500000000  0.4714970000000 1.0
C      1  0.5575630000000  0.5505600000000  0.4970410000000 1.0
END
