TITL C-2441163-1170-731 0.14852657383545 125000 -16081.2970918089 0 0 138 (C1) n - 1
REM
REM in /home/bkarasulu/work/CARBON/AIRSS/Generating-Clusters/ReaxFF-fromJPCA2015/Units_Real/with-SteepDescent/Higher-Symm
REM
REM
REM
REM
REM
REM ./C.cell (1df0a924f5614ab8850e4351716899ee)
REM
REM compiler GCC version 9.2.1 20190827 (Red Hat 9.2.1-1)
REM options -cpp -mtune=generic -march=x86-64 -g -O0 -fpre-include=/usr/include/finclude/math-vector-fortran.h
REM seed 1537738776 -1296002206 1743839367 1928247681 1438320024 526843117 -2039590062 -2089456030 1278682810 1929976442 1675227013 111069426 -1933855168 -692378058 -478674960 56939600 1249189336 1202981497 -1921687746 1215660729 -1396899943 -1290413250 -1551382805 454780653 1727349670 1033476900 -1648419868 721258897 1885010339 -648967457 39218723 -728069006 1026049925
REM
CELL 1.54180   50.00000   50.00000   50.00000   90.00000   90.00000   90.00000
LATT -1
SFAC C  
C      1  0.5136900000000  0.5763620000000  0.5606540000000 1.0
C      1  0.5587730000000  0.5726230000000  0.5074420000000 1.0
C      1  0.5270960000000  0.5703980000000  0.4439800000000 1.0
C      1  0.4532950000000  0.5714960000000  0.4587350000000 1.0
C      1  0.4446250000000  0.5708920000000  0.5334210000000 1.0
C      1  0.5502340000000  0.4682550000000  0.4908390000000 1.0
C      1  0.5010660000000  0.4700900000000  0.4489610000000 1.0
C      1  0.4405190000000  0.4670420000000  0.4802560000000 1.0
C      1  0.4722670000000  0.4690870000000  0.5407280000000 1.0
C      1  0.5255020000000  0.4733320000000  0.5436490000000 1.0
C      1  0.4604210000000  0.5201550000000  0.5861820000000 1.0
C      1  0.5722730000000  0.5229990000000  0.5636370000000 1.0
C      1  0.5802650000000  0.5204910000000  0.4525940000000 1.0
C      1  0.4780210000000  0.5195470000000  0.4088850000000 1.0
C      1  0.4066420000000  0.5200940000000  0.4932360000000 1.0
C      1  0.4617610000000  0.4768100000000  0.4330090000000 1.0
C      1  0.4195630000000  0.4739600000000  0.5155460000000 1.0
C      1  0.4867660000000  0.4769120000000  0.5857390000000 1.0
C      1  0.5756590000000  0.4708090000000  0.5331760000000 1.0
C      1  0.5521260000000  0.4749500000000  0.4422840000000 1.0
C      1  0.5519340000000  0.4304780000000  0.4686040000000 1.0
C      1  0.4815650000000  0.4337390000000  0.4460470000000 1.0
C      1  0.4400670000000  0.4312440000000  0.4965150000000 1.0
C      1  0.4817170000000  0.4336320000000  0.5566290000000 1.0
C      1  0.5456610000000  0.4297520000000  0.5382790000000 1.0
C      1  0.4282370000000  0.5023810000000  0.5564740000000 1.0
C      1  0.5317290000000  0.4992740000000  0.5860890000000 1.0
C      1  0.5926070000000  0.5007510000000  0.4940370000000 1.0
C      1  0.5233680000000  0.4995010000000  0.4070300000000 1.0
C      1  0.4199210000000  0.4999620000000  0.4514260000000 1.0
C      1  0.4812440000000  0.4456740000000  0.4746480000000 1.0
C      1  0.4737330000000  0.4350940000000  0.4987890000000 1.0
C      1  0.4959080000000  0.4422650000000  0.5235720000000 1.0
C      1  0.5250680000000  0.4402910000000  0.5167670000000 1.0
C      1  0.5232420000000  0.4232140000000  0.4647710000000 1.0
C      1  0.5241630000000  0.4577390000000  0.4357250000000 1.0
C      1  0.4471950000000  0.4560900000000  0.4555640000000 1.0
C      1  0.4490660000000  0.4489060000000  0.5367750000000 1.0
C      1  0.5167830000000  0.4526910000000  0.5645740000000 1.0
C      1  0.5688280000000  0.4515600000000  0.5055800000000 1.0
C      1  0.5422980000000  0.5692800000000  0.5541940000000 1.0
C      1  0.5651150000000  0.5685550000000  0.4777770000000 1.0
C      1  0.4987300000000  0.5686480000000  0.4371220000000 1.0
C      1  0.4384300000000  0.5679970000000  0.4834480000000 1.0
C      1  0.4646060000000  0.5689880000000  0.5547240000000 1.0
C      1  0.4524150000000  0.5195510000000  0.4213130000000 1.0
C      1  0.4171570000000  0.5223950000000  0.5214240000000 1.0
C      1  0.4926820000000  0.5257870000000  0.5802650000000 1.0
C      1  0.5822460000000  0.5297850000000  0.5371110000000 1.0
C      1  0.5606350000000  0.5211750000000  0.4303400000000 1.0
C      1  0.5355880000000  0.5702540000000  0.5263150000000 1.0
C      1  0.5377220000000  0.5748950000000  0.4713390000000 1.0
C      1  0.4813750000000  0.5797700000000  0.4591680000000 1.0
C      1  0.4556750000000  0.5757910000000  0.5068230000000 1.0
C      1  0.4892480000000  0.5786110000000  0.5427910000000 1.0
C      1  0.4917140000000  0.5463150000000  0.4167600000000 1.0
C      1  0.4170440000000  0.5463020000000  0.4831930000000 1.0
C      1  0.4557920000000  0.5458990000000  0.5730890000000 1.0
C      1  0.5508660000000  0.5423960000000  0.5643010000000 1.0
C      1  0.5768830000000  0.5423490000000  0.4718450000000 1.0
C      1  0.5640680000000  0.5048160000000  0.4918730000000 1.0
C      1  0.5123690000000  0.5038540000000  0.4344960000000 1.0
C      1  0.4402410000000  0.5049580000000  0.4703900000000 1.0
C      1  0.4557630000000  0.5046730000000  0.5460670000000 1.0
C      1  0.5131280000000  0.5084540000000  0.5657580000000 1.0
C      1  0.4440690000000  0.5335790000000  0.5148220000000 1.0
C      1  0.4955410000000  0.5427040000000  0.5556670000000 1.0
C      1  0.5631980000000  0.5336540000000  0.5197270000000 1.0
C      1  0.5303670000000  0.5356020000000  0.4614880000000 1.0
C      1  0.4761760000000  0.5398560000000  0.4570840000000 1.0
C      1  0.4937860000000  0.4651690000000  0.4050490000000 1.0
C      1  0.4116080000000  0.4656660000000  0.4754750000000 1.0
C      1  0.4463250000000  0.4665810000000  0.5789210000000 1.0
C      1  0.5566720000000  0.4603440000000  0.5747170000000 1.0
C      1  0.5895560000000  0.4667540000000  0.4660780000000 1.0
C      1  0.5597120000000  0.5302340000000  0.4935570000000 1.0
C      1  0.5070650000000  0.5286870000000  0.4317380000000 1.0
C      1  0.4366900000000  0.5324100000000  0.4664220000000 1.0
C      1  0.4601290000000  0.5300240000000  0.5494430000000 1.0
C      1  0.5299910000000  0.5266620000000  0.5504580000000 1.0
C      1  0.5482970000000  0.4915850000000  0.4723370000000 1.0
C      1  0.4859690000000  0.4926980000000  0.4423030000000 1.0
C      1  0.4415820000000  0.4902780000000  0.4972330000000 1.0
C      1  0.4785700000000  0.4898570000000  0.5592280000000 1.0
C      1  0.5512950000000  0.4873460000000  0.5436550000000 1.0
C      1  0.5928610000000  0.4963450000000  0.4651790000000 1.0
C      1  0.4948050000000  0.4960280000000  0.4006050000000 1.0
C      1  0.4019030000000  0.4961300000000  0.4751240000000 1.0
C      1  0.4427550000000  0.4970120000000  0.5821290000000 1.0
C      1  0.5588900000000  0.4968900000000  0.5714880000000 1.0
C      1  0.4514350000000  0.5461020000000  0.4409540000000 1.0
C      1  0.4244160000000  0.5498960000000  0.5299090000000 1.0
C      1  0.5033550000000  0.5561930000000  0.5795830000000 1.0
C      1  0.5780110000000  0.5561280000000  0.5233040000000 1.0
C      1  0.5450220000000  0.5455260000000  0.4389920000000 1.0
C      1  0.4746870000000  0.4514660000000  0.4232080000000 1.0
C      1  0.4163750000000  0.4483690000000  0.5033330000000 1.0
C      1  0.4723420000000  0.4523220000000  0.5782900000000 1.0
C      1  0.5666850000000  0.4476440000000  0.5511220000000 1.0
C      1  0.5673790000000  0.4524560000000  0.4540380000000 1.0
C      1  0.5494690000000  0.4961310000000  0.4206930000000 1.0
C      1  0.4379560000000  0.4960330000000  0.4278840000000 1.0
C      1  0.4147750000000  0.4793360000000  0.5434140000000 1.0
C      1  0.5142290000000  0.4789340000000  0.5972700000000 1.0
C      1  0.5978130000000  0.4796560000000  0.5136910000000 1.0
C      1  0.5945760000000  0.4587740000000  0.4940480000000 1.0
C      1  0.5208090000000  0.4544660000000  0.4040130000000 1.0
C      1  0.4193190000000  0.4567740000000  0.4459990000000 1.0
C      1  0.4294020000000  0.4576830000000  0.5567900000000 1.0
C      1  0.5324460000000  0.4568870000000  0.5904650000000 1.0
C      1  0.5275130000000  0.4024680000000  0.5023550000000 1.0
C      1  0.5075890000000  0.4043240000000  0.4812280000000 1.0
C      1  0.4791660000000  0.4066780000000  0.4920390000000 1.0
C      1  0.4782290000000  0.4027130000000  0.5214950000000 1.0
C      1  0.5063770000000  0.3991920000000  0.5217140000000 1.0
C      1  0.4848500000000  0.4700850000000  0.4843160000000 1.0
C      1  0.4726560000000  0.4879390000000  0.5041050000000 1.0
C      1  0.4987730000000  0.4707840000000  0.5289870000000 1.0
C      1  0.5277210000000  0.4617260000000  0.4995980000000 1.0
C      1  0.5105190000000  0.4733700000000  0.4821520000000 1.0
C      1  0.4667230000000  0.5351810000000  0.4826250000000 1.0
C      1  0.4702290000000  0.5345330000000  0.5255720000000 1.0
C      1  0.5157760000000  0.5449280000000  0.5317850000000 1.0
C      1  0.5329740000000  0.5467670000000  0.4857880000000 1.0
C      1  0.5039590000000  0.5329590000000  0.4568340000000 1.0
C      1  0.5108410000000  0.4320970000000  0.4425360000000 1.0
C      1  0.4486930000000  0.4238800000000  0.4699410000000 1.0
C      1  0.4616280000000  0.4219660000000  0.5395110000000 1.0
C      1  0.5245450000000  0.4263580000000  0.5565300000000 1.0
C      1  0.5509830000000  0.4216100000000  0.4960330000000 1.0
C      1  0.5030280000000  0.5162750000000  0.4796240000000 1.0
C      1  0.4788370000000  0.5101970000000  0.4873400000000 1.0
C      1  0.4898260000000  0.5099770000000  0.5251000000000 1.0
C      1  0.5194850000000  0.5087530000000  0.5142920000000 1.0
C      1  0.5208420000000  0.4976180000000  0.4825920000000 1.0
C      1  0.4929360000000  0.5883450000000  0.4859960000000 1.0
C      1  0.4848810000000  0.5783340000000  0.5123160000000 1.0
C      1  0.5099090000000  0.5386160000000  0.5025850000000 1.0
END
