TITL C-2441156-4686-100 0.0268288768745604 125000 -13048.3194326392 0 0 95 (C1) n - 1
REM
REM in /home/bkarasulu/work/CARBON/AIRSS/Generating-Clusters/ReaxFF-fromJPCA2015/Units_Real/with-SteepDescent/Higher-Symm
REM
REM
REM
REM
REM
REM ./C.cell (1df0a924f5614ab8850e4351716899ee)
REM
REM compiler GCC version 9.2.1 20190827 (Red Hat 9.2.1-1)
REM options -cpp -mtune=generic -march=x86-64 -g -O0 -fpre-include=/usr/include/finclude/math-vector-fortran.h
REM seed 1536554893 267740229 -46459492 1191668518 -1593865864 -1807451442 -454693917 2078148311 -1728091072 -30673556 -1363779432 481685082 -994972825 834056906 707872102 1697708357 -1503047934 -1316338090 920021617 1296604824 -285486183 -1838211981 -306987018 65074803 -767333937 1145009158 1403759854 1970937396 -1648843199 2021717663 -371563896 -1023536172 -1419697686
REM
CELL 1.54180   50.00000   50.00000   50.00000   90.00000   90.00000   90.00000
LATT -1
SFAC C  
C      1  0.4468620000000  0.4437150000000  0.5407810000000 1.0
C      1  0.4450060000000  0.5553460000000  0.4596990000000 1.0
C      1  0.4475990000000  0.4424880000000  0.4584710000000 1.0
C      1  0.4475700000000  0.5562870000000  0.5429700000000 1.0
C      1  0.4736910000000  0.5593210000000  0.5590260000000 1.0
C      1  0.4717120000000  0.4409370000000  0.4413640000000 1.0
C      1  0.4699530000000  0.5576410000000  0.4420590000000 1.0
C      1  0.4712550000000  0.4418660000000  0.5575410000000 1.0
C      1  0.5329770000000  0.4373010000000  0.5257350000000 1.0
C      1  0.5261340000000  0.5631590000000  0.4748880000000 1.0
C      1  0.5298680000000  0.4366740000000  0.4784660000000 1.0
C      1  0.5346010000000  0.5637670000000  0.5253780000000 1.0
C      1  0.4899820000000  0.4523000000000  0.5164160000000 1.0
C      1  0.4813630000000  0.5541150000000  0.4909490000000 1.0
C      1  0.4820380000000  0.4479400000000  0.4896920000000 1.0
C      1  0.4902890000000  0.5492240000000  0.5168340000000 1.0
C      1  0.5190590000000  0.5490640000000  0.4287860000000 1.0
C      1  0.5106660000000  0.4599320000000  0.5815900000000 1.0
C      1  0.5151080000000  0.5408800000000  0.5816380000000 1.0
C      1  0.5120010000000  0.4587760000000  0.4166550000000 1.0
C      1  0.4305660000000  0.4677030000000  0.4556610000000 1.0
C      1  0.4309700000000  0.5322650000000  0.5409000000000 1.0
C      1  0.4331430000000  0.4697450000000  0.5434420000000 1.0
C      1  0.4280500000000  0.5313750000000  0.4609950000000 1.0
C      1  0.4311440000000  0.4834240000000  0.5169820000000 1.0
C      1  0.4223810000000  0.5123880000000  0.4844260000000 1.0
C      1  0.4250430000000  0.4858320000000  0.4769140000000 1.0
C      1  0.4331090000000  0.5148370000000  0.5134500000000 1.0
C      1  0.4957640000000  0.5155150000000  0.5570860000000 1.0
C      1  0.4927450000000  0.4856080000000  0.4399640000000 1.0
C      1  0.4978130000000  0.5142090000000  0.4388910000000 1.0
C      1  0.4950740000000  0.4869200000000  0.5564680000000 1.0
C      1  0.4592750000000  0.4778630000000  0.5107780000000 1.0
C      1  0.4738840000000  0.5281290000000  0.4852160000000 1.0
C      1  0.4695710000000  0.4721980000000  0.4846780000000 1.0
C      1  0.4627840000000  0.5208560000000  0.5103440000000 1.0
C      1  0.4874370000000  0.5787310000000  0.4509050000000 1.0
C      1  0.4933730000000  0.4249060000000  0.5496610000000 1.0
C      1  0.4954350000000  0.5759180000000  0.5499260000000 1.0
C      1  0.4946390000000  0.4260710000000  0.4504930000000 1.0
C      1  0.4834680000000  0.4649730000000  0.5732140000000 1.0
C      1  0.4905500000000  0.5401750000000  0.4294030000000 1.0
C      1  0.4848560000000  0.4619360000000  0.4237390000000 1.0
C      1  0.4875880000000  0.5379880000000  0.5746590000000 1.0
C      1  0.4445100000000  0.5165610000000  0.4425620000000 1.0
C      1  0.4495050000000  0.4869500000000  0.5602120000000 1.0
C      1  0.4466310000000  0.5157460000000  0.5581130000000 1.0
C      1  0.4436150000000  0.4881200000000  0.4397870000000 1.0
C      1  0.5485250000000  0.5147760000000  0.4962490000000 1.0
C      1  0.5384960000000  0.4848680000000  0.5254450000000 1.0
C      1  0.5396290000000  0.5155230000000  0.5248710000000 1.0
C      1  0.5488190000000  0.4861650000000  0.4970200000000 1.0
C      1  0.5348710000000  0.4529910000000  0.5693090000000 1.0
C      1  0.5457990000000  0.5402530000000  0.4397690000000 1.0
C      1  0.5365690000000  0.4539900000000  0.4298320000000 1.0
C      1  0.5384490000000  0.5480340000000  0.5680910000000 1.0
C      1  0.5744720000000  0.4903380000000  0.5576590000000 1.0
C      1  0.5747360000000  0.5108380000000  0.4472070000000 1.0
C      1  0.5772450000000  0.4854200000000  0.4430980000000 1.0
C      1  0.5788220000000  0.5123110000000  0.5584820000000 1.0
C      1  0.5547820000000  0.4685890000000  0.5497560000000 1.0
C      1  0.5486700000000  0.5132400000000  0.4478100000000 1.0
C      1  0.5533870000000  0.4766620000000  0.4385420000000 1.0
C      1  0.5573140000000  0.5318290000000  0.5484520000000 1.0
C      1  0.5232670000000  0.4353590000000  0.4498680000000 1.0
C      1  0.5245710000000  0.5690890000000  0.5525660000000 1.0
C      1  0.5223290000000  0.4321100000000  0.5528730000000 1.0
C      1  0.5152170000000  0.5702190000000  0.4482170000000 1.0
C      1  0.5608900000000  0.4448920000000  0.5313090000000 1.0
C      1  0.5531070000000  0.5591020000000  0.4624460000000 1.0
C      1  0.5578990000000  0.4387400000000  0.4745460000000 1.0
C      1  0.5627190000000  0.5559530000000  0.5304550000000 1.0
C      1  0.4907050000000  0.4223710000000  0.4790420000000 1.0
C      1  0.4953120000000  0.5774180000000  0.5203980000000 1.0
C      1  0.4943280000000  0.4241360000000  0.5204780000000 1.0
C      1  0.4884750000000  0.5802450000000  0.4804340000000 1.0
C      1  0.4730910000000  0.5157310000000  0.4582310000000 1.0
C      1  0.4727280000000  0.4876310000000  0.5388160000000 1.0
C      1  0.4727630000000  0.5159400000000  0.5385000000000 1.0
C      1  0.4704930000000  0.4867990000000  0.4585710000000 1.0
C      1  0.5806780000000  0.4422590000000  0.4847860000000 1.0
C      1  0.5758150000000  0.5548340000000  0.5061760000000 1.0
C      1  0.5777330000000  0.4450370000000  0.5091860000000 1.0
C      1  0.5720400000000  0.5558650000000  0.4820660000000 1.0
C      1  0.4438220000000  0.4352930000000  0.5128650000000 1.0
C      1  0.4416610000000  0.5612610000000  0.4879850000000 1.0
C      1  0.4439900000000  0.4349720000000  0.4859890000000 1.0
C      1  0.4422390000000  0.5619740000000  0.5150450000000 1.0
C      1  0.5230980000000  0.4758810000000  0.4861280000000 1.0
C      1  0.5186800000000  0.5391290000000  0.5159960000000 1.0
C      1  0.5181800000000  0.4627890000000  0.5156310000000 1.0
C      1  0.5239010000000  0.5276940000000  0.4859900000000 1.0
C      1  0.5124820000000  0.4179350000000  0.4978940000000 1.0
C      1  0.5130110000000  0.5817390000000  0.4965830000000 1.0
C      1  0.5091870000000  0.5012910000000  0.4819210000000 1.0
END
