TITL C-2441169-1362-434 0.0970297236849736 125000 -16761.5344121956 0 0 132 (C1) n - 1
REM
REM in /home/bkarasulu/work/CARBON/AIRSS/Generating-Clusters/ReaxFF-fromJPCA2015/Units_Real/with-SteepDescent/Higher-Symm
REM
REM
REM
REM
REM
REM ./C.cell (1df0a924f5614ab8850e4351716899ee)
REM
REM compiler GCC version 9.2.1 20190827 (Red Hat 9.2.1-1)
REM options -cpp -mtune=generic -march=x86-64 -g -O0 -fpre-include=/usr/include/finclude/math-vector-fortran.h
REM seed -1578697440 761678679 -1246149644 -214644130 633694624 -198167333 -187079621 -1990324952 -481344471 -292005388 1328500974 -690986844 -583330412 921750246 935677149 1072531987 503026028 2137648036 -636645185 -697843665 -1632195831 1300608900 -1297417008 -1017423935 -400197032 267026508 1629944486 1742505224 472531629 -2093813561 1865339917 1750254526 173117120
REM
CELL 1.54180   50.00000   50.00000   50.00000   90.00000   90.00000   90.00000
LATT -1
SFAC C  
C      1  0.4746930000000  0.5426220000000  0.5759670000000 1.0
C      1  0.4722840000000  0.4559270000000  0.4233320000000 1.0
C      1  0.5267430000000  0.4559200000000  0.5760700000000 1.0
C      1  0.5141980000000  0.5576640000000  0.4309820000000 1.0
C      1  0.4720130000000  0.5769240000000  0.5439590000000 1.0
C      1  0.4729610000000  0.4226200000000  0.4562370000000 1.0
C      1  0.5324610000000  0.5754370000000  0.4467630000000 1.0
C      1  0.5262460000000  0.4240780000000  0.5402900000000 1.0
C      1  0.5432350000000  0.4505280000000  0.5136620000000 1.0
C      1  0.5423770000000  0.5567550000000  0.4818180000000 1.0
C      1  0.4557990000000  0.5518450000000  0.5151540000000 1.0
C      1  0.4535230000000  0.4435300000000  0.4851650000000 1.0
C      1  0.5424450000000  0.5207860000000  0.4376180000000 1.0
C      1  0.5505460000000  0.4837800000000  0.5576390000000 1.0
C      1  0.4507530000000  0.5153030000000  0.5566150000000 1.0
C      1  0.4561240000000  0.4879270000000  0.4485570000000 1.0
C      1  0.5260180000000  0.4760900000000  0.4154420000000 1.0
C      1  0.5248700000000  0.5243210000000  0.5839520000000 1.0
C      1  0.4767060000000  0.5287170000000  0.4172750000000 1.0
C      1  0.4747210000000  0.4752760000000  0.5849090000000 1.0
C      1  0.5301830000000  0.4146700000000  0.4782530000000 1.0
C      1  0.5237910000000  0.5822490000000  0.5247120000000 1.0
C      1  0.4733900000000  0.4154560000000  0.5252840000000 1.0
C      1  0.4755040000000  0.5821390000000  0.4750350000000 1.0
C      1  0.4273520000000  0.4831570000000  0.5674510000000 1.0
C      1  0.4270450000000  0.5191420000000  0.4339960000000 1.0
C      1  0.5750220000000  0.5188130000000  0.5689700000000 1.0
C      1  0.5687010000000  0.4790830000000  0.4350090000000 1.0
C      1  0.4321090000000  0.5638370000000  0.4768740000000 1.0
C      1  0.4242420000000  0.4340250000000  0.5160290000000 1.0
C      1  0.5683080000000  0.5653370000000  0.5227030000000 1.0
C      1  0.5733410000000  0.4371990000000  0.4813590000000 1.0
C      1  0.4138510000000  0.4678840000000  0.4915820000000 1.0
C      1  0.4150660000000  0.5286940000000  0.5076890000000 1.0
C      1  0.5853240000000  0.5312370000000  0.4922170000000 1.0
C      1  0.5866460000000  0.4737840000000  0.5085330000000 1.0
C      1  0.4162050000000  0.4903170000000  0.4731190000000 1.0
C      1  0.4116380000000  0.5088950000000  0.5291770000000 1.0
C      1  0.5881300000000  0.4923810000000  0.5305700000000 1.0
C      1  0.5823600000000  0.5148550000000  0.4667930000000 1.0
C      1  0.5459280000000  0.5751410000000  0.5073150000000 1.0
C      1  0.5506820000000  0.4261900000000  0.4975870000000 1.0
C      1  0.4516060000000  0.4229490000000  0.5054390000000 1.0
C      1  0.4543620000000  0.5726470000000  0.4930070000000 1.0
C      1  0.5489610000000  0.5050930000000  0.5774890000000 1.0
C      1  0.5469900000000  0.4951520000000  0.4240460000000 1.0
C      1  0.4523790000000  0.5074710000000  0.4247140000000 1.0
C      1  0.4534620000000  0.4957190000000  0.5783380000000 1.0
C      1  0.5583280000000  0.5418620000000  0.5621530000000 1.0
C      1  0.5568620000000  0.4518120000000  0.4307560000000 1.0
C      1  0.4415700000000  0.4591470000000  0.5623900000000 1.0
C      1  0.4403270000000  0.5455850000000  0.4336470000000 1.0
C      1  0.5574590000000  0.5682970000000  0.5496950000000 1.0
C      1  0.5591500000000  0.4377230000000  0.4563980000000 1.0
C      1  0.4403780000000  0.5705360000000  0.4493780000000 1.0
C      1  0.4396630000000  0.4395480000000  0.5401920000000 1.0
C      1  0.4918210000000  0.4785670000000  0.6094990000000 1.0
C      1  0.4978060000000  0.5177810000000  0.3838590000000 1.0
C      1  0.5087080000000  0.5203730000000  0.6105460000000 1.0
C      1  0.5054060000000  0.4818450000000  0.3906180000000 1.0
C      1  0.4952800000000  0.6059220000000  0.4769500000000 1.0
C      1  0.4916980000000  0.3870990000000  0.5225220000000 1.0
C      1  0.5072090000000  0.6105460000000  0.5207980000000 1.0
C      1  0.5090650000000  0.3938400000000  0.4800120000000 1.0
C      1  0.5154330000000  0.5470580000000  0.5666940000000 1.0
C      1  0.5276190000000  0.4498540000000  0.4273110000000 1.0
C      1  0.4863280000000  0.4520400000000  0.5681800000000 1.0
C      1  0.4846190000000  0.5555920000000  0.4287500000000 1.0
C      1  0.5284260000000  0.5698270000000  0.5509810000000 1.0
C      1  0.5187550000000  0.4337490000000  0.4570100000000 1.0
C      1  0.4694320000000  0.5725310000000  0.4479230000000 1.0
C      1  0.4788950000000  0.4309890000000  0.5488300000000 1.0
C      1  0.4586880000000  0.5341550000000  0.4521180000000 1.0
C      1  0.4636480000000  0.4730540000000  0.5414510000000 1.0
C      1  0.5370620000000  0.4847410000000  0.4659760000000 1.0
C      1  0.5453880000000  0.5243620000000  0.5421100000000 1.0
C      1  0.4535380000000  0.4588150000000  0.5229100000000 1.0
C      1  0.4683570000000  0.5358600000000  0.4731410000000 1.0
C      1  0.5373890000000  0.4548040000000  0.4690960000000 1.0
C      1  0.5407580000000  0.5343900000000  0.5171690000000 1.0
C      1  0.4474410000000  0.4377450000000  0.4572860000000 1.0
C      1  0.4462330000000  0.5628160000000  0.5418780000000 1.0
C      1  0.5564030000000  0.5606640000000  0.4553110000000 1.0
C      1  0.5531110000000  0.4366840000000  0.5382270000000 1.0
C      1  0.4482930000000  0.4598260000000  0.4390410000000 1.0
C      1  0.4479840000000  0.5432090000000  0.5633670000000 1.0
C      1  0.5521820000000  0.4553240000000  0.5610750000000 1.0
C      1  0.5656340000000  0.5338860000000  0.4487090000000 1.0
C      1  0.4854390000000  0.5537230000000  0.5306680000000 1.0
C      1  0.4933740000000  0.4433620000000  0.4654280000000 1.0
C      1  0.5135970000000  0.4484620000000  0.5265060000000 1.0
C      1  0.5160720000000  0.5467480000000  0.4737080000000 1.0
C      1  0.4930330000000  0.5339030000000  0.5523580000000 1.0
C      1  0.4934690000000  0.4622870000000  0.4433770000000 1.0
C      1  0.5167950000000  0.5332120000000  0.4477800000000 1.0
C      1  0.5081810000000  0.4654510000000  0.5528890000000 1.0
C      1  0.4780200000000  0.4722820000000  0.3999190000000 1.0
C      1  0.4841160000000  0.5229820000000  0.5946860000000 1.0
C      1  0.5041860000000  0.5242770000000  0.4098210000000 1.0
C      1  0.5193560000000  0.4746010000000  0.5974570000000 1.0
C      1  0.4802040000000  0.4003310000000  0.4742120000000 1.0
C      1  0.4844540000000  0.5954860000000  0.5269520000000 1.0
C      1  0.5124790000000  0.4025330000000  0.5312290000000 1.0
C      1  0.5196340000000  0.5925590000000  0.4668860000000 1.0
C      1  0.4132920000000  0.5173320000000  0.4603320000000 1.0
C      1  0.4130480000000  0.4819580000000  0.5411190000000 1.0
C      1  0.5837760000000  0.4850430000000  0.4594130000000 1.0
C      1  0.5882730000000  0.5190370000000  0.5413330000000 1.0
C      1  0.4104030000000  0.4608420000000  0.5192640000000 1.0
C      1  0.4155300000000  0.5390130000000  0.4804070000000 1.0
C      1  0.5865900000000  0.4648590000000  0.4808120000000 1.0
C      1  0.5850300000000  0.5399480000000  0.5199500000000 1.0
C      1  0.5141380000000  0.4976610000000  0.4761180000000 1.0
C      1  0.5168170000000  0.4995320000000  0.5214650000000 1.0
C      1  0.4869750000000  0.4980160000000  0.4778320000000 1.0
C      1  0.4780230000000  0.4933220000000  0.5287500000000 1.0
C      1  0.5136900000000  0.4806850000000  0.4996390000000 1.0
C      1  0.5173940000000  0.5253950000000  0.5122240000000 1.0
C      1  0.4844450000000  0.4797560000000  0.5010860000000 1.0
C      1  0.4803010000000  0.5234740000000  0.4915930000000 1.0
C      1  0.4412310000000  0.5087060000000  0.5304520000000 1.0
C      1  0.4441870000000  0.4948390000000  0.4788710000000 1.0
C      1  0.5579070000000  0.4947990000000  0.5333380000000 1.0
C      1  0.5542800000000  0.4984840000000  0.4850430000000 1.0
C      1  0.4444660000000  0.5239010000000  0.5064440000000 1.0
C      1  0.4455040000000  0.4694500000000  0.4960480000000 1.0
C      1  0.5556670000000  0.5279380000000  0.4936470000000 1.0
C      1  0.5568830000000  0.4798140000000  0.5085830000000 1.0
C      1  0.4852360000000  0.4885370000000  0.4508240000000 1.0
C      1  0.5014750000000  0.4985320000000  0.5459360000000 1.0
C      1  0.4987250000000  0.4536910000000  0.4993440000000 1.0
C      1  0.5006670000000  0.5412200000000  0.4976040000000 1.0
END
