TITL C-2441159-1093-890 0.00107733152082884 125000 -5151.84892710352 0 0 38 (C1) n - 1
REM
REM in /home/bkarasulu/work/CARBON/AIRSS/Generating-Clusters/ReaxFF-fromJPCA2015/Units_Real/with-SteepDescent/Higher-Symm
REM
REM
REM
REM
REM
REM ./C.cell (1df0a924f5614ab8850e4351716899ee)
REM
REM compiler GCC version 9.2.1 20190827 (Red Hat 9.2.1-1)
REM options -cpp -mtune=generic -march=x86-64 -g -O0 -fpre-include=/usr/include/finclude/math-vector-fortran.h
REM seed 1917582365 1272554323 -317368586 -1157717729 34356981 -975895 -1991849897 2055968334 -320409429 1791364155 -2035903845 -1474820277 478328818 22034229 -2070206422 1771064175 -631586645 -42035418 860929396 1025895884 1596127418 -357039754 -374318293 -587891616 -2007769211 -2046137103 -1712145940 -2095786996 418870897 -440572185 -1125124414 -1971892078 1974127963
REM
CELL 1.54180   50.00000   50.00000   50.00000   90.00000   90.00000   90.00000
LATT -1
SFAC C  
C      1  0.5112530000000  0.5316080000000  0.5427220000000 1.0
C      1  0.5290980000000  0.5285600000000  0.4667120000000 1.0
C      1  0.4554220000000  0.5282000000000  0.4893040000000 1.0
C      1  0.5283240000000  0.4578350000000  0.4999130000000 1.0
C      1  0.4860730000000  0.4581370000000  0.4735320000000 1.0
C      1  0.4837610000000  0.4583370000000  0.5233720000000 1.0
C      1  0.4730810000000  0.4683000000000  0.4513920000000 1.0
C      1  0.4716690000000  0.4689500000000  0.5459170000000 1.0
C      1  0.5541740000000  0.4672530000000  0.4979920000000 1.0
C      1  0.5629970000000  0.4918720000000  0.4879170000000 1.0
C      1  0.4593770000000  0.4925640000000  0.4483560000000 1.0
C      1  0.4754190000000  0.4936660000000  0.5589720000000 1.0
C      1  0.5244180000000  0.5488420000000  0.4879040000000 1.0
C      1  0.4754550000000  0.5493300000000  0.4829980000000 1.0
C      1  0.4947730000000  0.5496500000000  0.5270980000000 1.0
C      1  0.4860890000000  0.5198710000000  0.5534980000000 1.0
C      1  0.5513430000000  0.5176510000000  0.4820770000000 1.0
C      1  0.4579210000000  0.5179350000000  0.4620770000000 1.0
C      1  0.4717360000000  0.5348990000000  0.5325640000000 1.0
C      1  0.5415220000000  0.5326830000000  0.5054380000000 1.0
C      1  0.4827700000000  0.5334050000000  0.4595840000000 1.0
C      1  0.4481360000000  0.4388810000000  0.4948600000000 1.0
C      1  0.5213160000000  0.4387760000000  0.5456970000000 1.0
C      1  0.5284430000000  0.4387670000000  0.4566510000000 1.0
C      1  0.5247900000000  0.5157210000000  0.5223650000000 1.0
C      1  0.5053820000000  0.5154920000000  0.4681750000000 1.0
C      1  0.4688800000000  0.5157220000000  0.5094700000000 1.0
C      1  0.5448900000000  0.5009170000000  0.5288580000000 1.0
C      1  0.5060590000000  0.5029400000000  0.4461920000000 1.0
C      1  0.4498430000000  0.5029220000000  0.5200130000000 1.0
C      1  0.5638970000000  0.4857540000000  0.5167660000000 1.0
C      1  0.4852480000000  0.4879460000000  0.4353770000000 1.0
C      1  0.4512450000000  0.4880770000000  0.5434530000000 1.0
C      1  0.4707700000000  0.4538820000000  0.4976510000000 1.0
C      1  0.5125930000000  0.4538180000000  0.5245220000000 1.0
C      1  0.5146680000000  0.4535680000000  0.4750060000000 1.0
C      1  0.4985580000000  0.5554460000000  0.4997190000000 1.0
C      1  0.5005000000000  0.5044880000000  0.5008650000000 1.0
END
