TITL C-2441159-1093-1255 0.073622414540347 125000 -25950.4488867341 0 0 182 (C1) n - 1
REM
REM in /home/bkarasulu/work/CARBON/AIRSS/Generating-Clusters/ReaxFF-fromJPCA2015/Units_Real/with-SteepDescent/Higher-Symm
REM
REM
REM
REM
REM
REM ./C.cell (1df0a924f5614ab8850e4351716899ee)
REM
REM compiler GCC version 9.2.1 20190827 (Red Hat 9.2.1-1)
REM options -cpp -mtune=generic -march=x86-64 -g -O0 -fpre-include=/usr/include/finclude/math-vector-fortran.h
REM seed -141782909 946202947 -1919752110 -1727976493 520067816 974368851 2071936734 1035703306 1405960074 -1407509109 -387824305 1587594815 1923403008 984326683 -79491214 946463210 2028090206 -1285410179 709310505 89624425 -2142399821 1233380264 -2092401906 -216143802 -1607549354 1145867995 2122519074 -553507163 -20354698 -1195513650 1240409100 973235185 -1824541914
REM
CELL 1.54180   50.00000   50.00000   50.00000   90.00000   90.00000   90.00000
LATT -1
SFAC C  
C      1  0.5069950000000  0.4823150000000  0.4832350000000 1.0
C      1  0.5105080000000  0.5116820000000  0.4767590000000 1.0
C      1  0.4956280000000  0.5243980000000  0.4991500000000 1.0
C      1  0.5040630000000  0.5045100000000  0.5231020000000 1.0
C      1  0.5008570000000  0.4790610000000  0.5105270000000 1.0
C      1  0.5004640000000  0.5255660000000  0.4526670000000 1.0
C      1  0.4992010000000  0.5523200000000  0.5037610000000 1.0
C      1  0.4962500000000  0.5149970000000  0.5488500000000 1.0
C      1  0.4998380000000  0.4565750000000  0.5287860000000 1.0
C      1  0.5033260000000  0.4603610000000  0.4661320000000 1.0
C      1  0.4731320000000  0.5816870000000  0.5878950000000 1.0
C      1  0.4751000000000  0.4280540000000  0.5981260000000 1.0
C      1  0.4810670000000  0.3949770000000  0.4615520000000 1.0
C      1  0.4678510000000  0.5119760000000  0.3869580000000 1.0
C      1  0.4759950000000  0.6159370000000  0.4712590000000 1.0
C      1  0.4735710000000  0.5304510000000  0.5405030000000 1.0
C      1  0.4749740000000  0.4687410000000  0.5430640000000 1.0
C      1  0.4779090000000  0.4476170000000  0.4734740000000 1.0
C      1  0.4906680000000  0.5090050000000  0.4328860000000 1.0
C      1  0.4887390000000  0.5660320000000  0.4809210000000 1.0
C      1  0.4106480000000  0.4459800000000  0.4823910000000 1.0
C      1  0.4084360000000  0.5023060000000  0.4458760000000 1.0
C      1  0.4146200000000  0.5479200000000  0.4844510000000 1.0
C      1  0.4076870000000  0.5266510000000  0.5440970000000 1.0
C      1  0.4114490000000  0.4660260000000  0.5412730000000 1.0
C      1  0.4897380000000  0.4183700000000  0.4758940000000 1.0
C      1  0.4890470000000  0.5198860000000  0.4052680000000 1.0
C      1  0.4920140000000  0.5938540000000  0.4779200000000 1.0
C      1  0.4813760000000  0.5377960000000  0.5948040000000 1.0
C      1  0.4927710000000  0.4095500000000  0.5750040000000 1.0
C      1  0.4483420000000  0.4049210000000  0.5334740000000 1.0
C      1  0.4484750000000  0.4521410000000  0.4255640000000 1.0
C      1  0.4417200000000  0.5577190000000  0.4092600000000 1.0
C      1  0.4501380000000  0.5913840000000  0.5451640000000 1.0
C      1  0.4466900000000  0.5030520000000  0.5994040000000 1.0
C      1  0.5551830000000  0.5715570000000  0.4331080000000 1.0
C      1  0.5368350000000  0.5818250000000  0.5450680000000 1.0
C      1  0.5491290000000  0.4622420000000  0.5869760000000 1.0
C      1  0.5559290000000  0.4075210000000  0.5068160000000 1.0
C      1  0.5571080000000  0.4629340000000  0.4120580000000 1.0
C      1  0.5738980000000  0.4377020000000  0.4635430000000 1.0
C      1  0.5722080000000  0.5139160000000  0.4302070000000 1.0
C      1  0.5772060000000  0.5640290000000  0.5196170000000 1.0
C      1  0.5793980000000  0.5092210000000  0.5665760000000 1.0
C      1  0.5746450000000  0.4472730000000  0.5440120000000 1.0
C      1  0.5296960000000  0.4531990000000  0.4049120000000 1.0
C      1  0.5292480000000  0.5775110000000  0.4209160000000 1.0
C      1  0.5378910000000  0.6073760000000  0.5283790000000 1.0
C      1  0.5257510000000  0.4786290000000  0.5978680000000 1.0
C      1  0.5298570000000  0.3982290000000  0.5136190000000 1.0
C      1  0.4343310000000  0.5558100000000  0.4599740000000 1.0
C      1  0.4166350000000  0.5544140000000  0.5500270000000 1.0
C      1  0.4192250000000  0.4707310000000  0.5707710000000 1.0
C      1  0.4214680000000  0.4208660000000  0.4942730000000 1.0
C      1  0.4188510000000  0.4822550000000  0.4264560000000 1.0
C      1  0.5347930000000  0.4188340000000  0.4660840000000 1.0
C      1  0.5369910000000  0.5042460000000  0.4090950000000 1.0
C      1  0.5431100000000  0.5870550000000  0.4790660000000 1.0
C      1  0.5383810000000  0.5480150000000  0.5782280000000 1.0
C      1  0.5320080000000  0.4432160000000  0.5718170000000 1.0
C      1  0.4601830000000  0.4842770000000  0.3912660000000 1.0
C      1  0.4613550000000  0.5991570000000  0.4506330000000 1.0
C      1  0.4485150000000  0.5788460000000  0.5724840000000 1.0
C      1  0.4568970000000  0.4497810000000  0.6008610000000 1.0
C      1  0.4617750000000  0.3863660000000  0.4824930000000 1.0
C      1  0.4517430000000  0.5121130000000  0.4705270000000 1.0
C      1  0.4650890000000  0.5197660000000  0.4944350000000 1.0
C      1  0.4550550000000  0.5130560000000  0.5204230000000 1.0
C      1  0.4584410000000  0.4801310000000  0.5183090000000 1.0
C      1  0.4565630000000  0.4661080000000  0.4928090000000 1.0
C      1  0.5380140000000  0.6078090000000  0.4991150000000 1.0
C      1  0.5417800000000  0.5224690000000  0.5923740000000 1.0
C      1  0.5386440000000  0.4211480000000  0.5532260000000 1.0
C      1  0.5363270000000  0.4267130000000  0.4379370000000 1.0
C      1  0.5377120000000  0.5332010000000  0.4121290000000 1.0
C      1  0.4762300000000  0.6057040000000  0.5474080000000 1.0
C      1  0.4702710000000  0.4967570000000  0.6156250000000 1.0
C      1  0.4713640000000  0.3868920000000  0.5333230000000 1.0
C      1  0.4682550000000  0.4394890000000  0.4067390000000 1.0
C      1  0.4693310000000  0.5669090000000  0.4101420000000 1.0
C      1  0.5540550000000  0.5404990000000  0.4373870000000 1.0
C      1  0.5483440000000  0.5659960000000  0.5226040000000 1.0
C      1  0.5532040000000  0.5013450000000  0.5756750000000 1.0
C      1  0.5536590000000  0.4311440000000  0.5291650000000 1.0
C      1  0.5567230000000  0.4513640000000  0.4402010000000 1.0
C      1  0.5507770000000  0.4800430000000  0.4515040000000 1.0
C      1  0.5457060000000  0.5403510000000  0.4666700000000 1.0
C      1  0.5391420000000  0.5424750000000  0.5339060000000 1.0
C      1  0.5363510000000  0.4872000000000  0.5535450000000 1.0
C      1  0.5389450000000  0.4483710000000  0.5048760000000 1.0
C      1  0.5556620000000  0.5671710000000  0.5652190000000 1.0
C      1  0.5719850000000  0.4629400000000  0.5679770000000 1.0
C      1  0.5620460000000  0.4141780000000  0.4778860000000 1.0
C      1  0.5644850000000  0.4922150000000  0.4098040000000 1.0
C      1  0.5646670000000  0.5837640000000  0.4578200000000 1.0
C      1  0.5955210000000  0.5248910000000  0.5210590000000 1.0
C      1  0.6057090000000  0.4803750000000  0.5382200000000 1.0
C      1  0.6008150000000  0.4448740000000  0.5000740000000 1.0
C      1  0.5961410000000  0.4814910000000  0.4554480000000 1.0
C      1  0.5876980000000  0.5360830000000  0.4720210000000 1.0
C      1  0.4759860000000  0.5613450000000  0.6111800000000 1.0
C      1  0.4682260000000  0.4226560000000  0.5715880000000 1.0
C      1  0.4707240000000  0.4075550000000  0.4372100000000 1.0
C      1  0.4477480000000  0.5327070000000  0.3958920000000 1.0
C      1  0.4652380000000  0.6156010000000  0.4993880000000 1.0
C      1  0.4406240000000  0.4529980000000  0.5763210000000 1.0
C      1  0.4413160000000  0.4074760000000  0.4777610000000 1.0
C      1  0.4428750000000  0.4921240000000  0.4139590000000 1.0
C      1  0.4484360000000  0.5808210000000  0.4693260000000 1.0
C      1  0.4378120000000  0.5526190000000  0.5694630000000 1.0
C      1  0.4209960000000  0.4143560000000  0.5236960000000 1.0
C      1  0.4181570000000  0.4527940000000  0.4290580000000 1.0
C      1  0.4214250000000  0.5540900000000  0.4316400000000 1.0
C      1  0.4184850000000  0.5750190000000  0.5295500000000 1.0
C      1  0.4191440000000  0.4958110000000  0.5878940000000 1.0
C      1  0.4133210000000  0.5206440000000  0.4925130000000 1.0
C      1  0.4212590000000  0.5128470000000  0.5188840000000 1.0
C      1  0.4234900000000  0.4831720000000  0.5192450000000 1.0
C      1  0.4272490000000  0.4721800000000  0.4904140000000 1.0
C      1  0.4225520000000  0.5009280000000  0.4736740000000 1.0
C      1  0.5055320000000  0.4697840000000  0.4077710000000 1.0
C      1  0.5053850000000  0.5795340000000  0.4373550000000 1.0
C      1  0.5054240000000  0.5687350000000  0.5498130000000 1.0
C      1  0.4985070000000  0.4746650000000  0.5887110000000 1.0
C      1  0.5002730000000  0.4071520000000  0.5015680000000 1.0
C      1  0.4879560000000  0.4210440000000  0.4176400000000 1.0
C      1  0.4917620000000  0.5488690000000  0.4018420000000 1.0
C      1  0.4851060000000  0.6153120000000  0.5215880000000 1.0
C      1  0.4924810000000  0.5152940000000  0.6099090000000 1.0
C      1  0.4947330000000  0.3947180000000  0.5514900000000 1.0
C      1  0.5181130000000  0.5415130000000  0.5563450000000 1.0
C      1  0.5240670000000  0.4614050000000  0.5511570000000 1.0
C      1  0.5247430000000  0.4423430000000  0.4805090000000 1.0
C      1  0.5296900000000  0.4909230000000  0.4349360000000 1.0
C      1  0.5301080000000  0.5609880000000  0.4784810000000 1.0
C      1  0.5173470000000  0.4285040000000  0.4172530000000 1.0
C      1  0.5200720000000  0.5546660000000  0.4040730000000 1.0
C      1  0.5140010000000  0.6165950000000  0.5156210000000 1.0
C      1  0.5208100000000  0.5067270000000  0.6058830000000 1.0
C      1  0.5226910000000  0.3994790000000  0.5415510000000 1.0
C      1  0.4550370000000  0.4495590000000  0.4541590000000 1.0
C      1  0.4525260000000  0.5311060000000  0.4489970000000 1.0
C      1  0.4573540000000  0.5737490000000  0.5220330000000 1.0
C      1  0.4578960000000  0.5032180000000  0.5730450000000 1.0
C      1  0.4605500000000  0.4297260000000  0.5252190000000 1.0
C      1  0.4527980000000  0.5887730000000  0.4970920000000 1.0
C      1  0.4616830000000  0.5330790000000  0.5685880000000 1.0
C      1  0.4588170000000  0.4460400000000  0.5525350000000 1.0
C      1  0.4487760000000  0.4207620000000  0.4529470000000 1.0
C      1  0.4480920000000  0.5192650000000  0.4224790000000 1.0
C      1  0.5900840000000  0.4842550000000  0.5616550000000 1.0
C      1  0.5941920000000  0.4172660000000  0.5006590000000 1.0
C      1  0.5930570000000  0.4742620000000  0.4283690000000 1.0
C      1  0.5820720000000  0.5618210000000  0.4631860000000 1.0
C      1  0.5786390000000  0.5589460000000  0.5492800000000 1.0
C      1  0.5018550000000  0.4799150000000  0.4361890000000 1.0
C      1  0.5049410000000  0.5562870000000  0.4577210000000 1.0
C      1  0.4832430000000  0.5578320000000  0.5277040000000 1.0
C      1  0.4841600000000  0.4905340000000  0.5648300000000 1.0
C      1  0.4873550000000  0.4313640000000  0.5154990000000 1.0
C      1  0.5916300000000  0.4562810000000  0.4733620000000 1.0
C      1  0.5808580000000  0.5081090000000  0.4566500000000 1.0
C      1  0.5900520000000  0.5448370000000  0.5003580000000 1.0
C      1  0.5821180000000  0.5301990000000  0.5467370000000 1.0
C      1  0.5948100000000  0.4568920000000  0.5275350000000 1.0
C      1  0.4159780000000  0.5633230000000  0.5065320000000 1.0
C      1  0.4119390000000  0.5119350000000  0.5662640000000 1.0
C      1  0.4149880000000  0.4401780000000  0.5329290000000 1.0
C      1  0.4107900000000  0.4471530000000  0.4553340000000 1.0
C      1  0.4101220000000  0.5286700000000  0.4365840000000 1.0
C      1  0.5313790000000  0.5009710000000  0.5292230000000 1.0
C      1  0.5532320000000  0.4715660000000  0.5052290000000 1.0
C      1  0.5416480000000  0.4794330000000  0.4788060000000 1.0
C      1  0.5417900000000  0.5194870000000  0.4864280000000 1.0
C      1  0.5428120000000  0.5224490000000  0.5164540000000 1.0
C      1  0.4784500000000  0.3844000000000  0.5057490000000 1.0
C      1  0.4804610000000  0.4630380000000  0.3941010000000 1.0
C      1  0.4786290000000  0.5874090000000  0.4292960000000 1.0
C      1  0.4914550000000  0.5889520000000  0.5662520000000 1.0
C      1  0.4782740000000  0.4690160000000  0.6093920000000 1.0
C      1  0.6135190000000  0.5008880000000  0.5179040000000 1.0
C      1  0.5581600000000  0.4964380000000  0.4910960000000 1.0
END
