TITL C-2441168-9922-1002 0.00383672726759531 125000 -10891.2984486129 0 0 73 (C1) n - 1
REM
REM in /home/bkarasulu/work/CARBON/AIRSS/Generating-Clusters/ReaxFF-fromJPCA2015/Units_Real/with-SteepDescent/Higher-Symm
REM
REM
REM
REM
REM
REM ./C.cell (1df0a924f5614ab8850e4351716899ee)
REM
REM compiler GCC version 9.2.1 20190827 (Red Hat 9.2.1-1)
REM options -cpp -mtune=generic -march=x86-64 -g -O0 -fpre-include=/usr/include/finclude/math-vector-fortran.h
REM seed -1977898778 -1015857932 1650750177 -652295346 -1763201212 1080814025 -48607884 704125881 -1888696365 425850178 390896808 -1597804356 -1324774753 -1537840597 1023145857 -1600200571 -1732766338 260744305 -1669695209 -1215797819 196920838 831705680 -2008101252 -1868863551 -1433428276 -1105527900 -1732478585 2073600620 -1637924405 -545232872 -1580971147 -941717446 -1633225358
REM
CELL 1.54180   50.00000   50.00000   50.00000   90.00000   90.00000   90.00000
LATT -1
SFAC C  
C      1  0.5671860000000  0.5202770000000  0.4619610000000 1.0
C      1  0.5086140000000  0.4182500000000  0.5120130000000 1.0
C      1  0.5434660000000  0.5532960000000  0.4953710000000 1.0
C      1  0.5464790000000  0.5670360000000  0.5255030000000 1.0
C      1  0.4671780000000  0.4387720000000  0.5302470000000 1.0
C      1  0.5288820000000  0.4883220000000  0.4948590000000 1.0
C      1  0.5036590000000  0.5290730000000  0.4229360000000 1.0
C      1  0.4150300000000  0.5160800000000  0.5268350000000 1.0
C      1  0.5400910000000  0.4515250000000  0.4494150000000 1.0
C      1  0.4143140000000  0.4921180000000  0.5410390000000 1.0
C      1  0.5742100000000  0.4911710000000  0.4640890000000 1.0
C      1  0.5604800000000  0.5281140000000  0.4887920000000 1.0
C      1  0.4603910000000  0.4313430000000  0.5024650000000 1.0
C      1  0.5165230000000  0.4570240000000  0.4358620000000 1.0
C      1  0.5175090000000  0.4977880000000  0.4441180000000 1.0
C      1  0.4484260000000  0.4523530000000  0.4852810000000 1.0
C      1  0.5587610000000  0.5032590000000  0.5376900000000 1.0
C      1  0.5688850000000  0.4583710000000  0.5023330000000 1.0
C      1  0.4642080000000  0.5612790000000  0.4751080000000 1.0
C      1  0.5231550000000  0.5357260000000  0.5079610000000 1.0
C      1  0.5486370000000  0.5466610000000  0.5434010000000 1.0
C      1  0.4847540000000  0.4868590000000  0.5687920000000 1.0
C      1  0.5579980000000  0.4759380000000  0.4459920000000 1.0
C      1  0.4349020000000  0.5020750000000  0.5604160000000 1.0
C      1  0.4761600000000  0.5701850000000  0.5001830000000 1.0
C      1  0.4868630000000  0.5080680000000  0.4780920000000 1.0
C      1  0.5078110000000  0.5194540000000  0.5239310000000 1.0
C      1  0.4529620000000  0.5286700000000  0.5175210000000 1.0
C      1  0.4601550000000  0.4874360000000  0.5477330000000 1.0
C      1  0.4463650000000  0.5269930000000  0.5716770000000 1.0
C      1  0.4660200000000  0.5550650000000  0.5229500000000 1.0
C      1  0.5562320000000  0.4362270000000  0.5130210000000 1.0
C      1  0.5209350000000  0.5685590000000  0.4774340000000 1.0
C      1  0.5154190000000  0.5168910000000  0.5516890000000 1.0
C      1  0.4661770000000  0.5034190000000  0.5231110000000 1.0
C      1  0.4266460000000  0.4704170000000  0.5238060000000 1.0
C      1  0.5434800000000  0.5220240000000  0.5553370000000 1.0
C      1  0.5047050000000  0.5794010000000  0.4988160000000 1.0
C      1  0.4709920000000  0.4523360000000  0.4668750000000 1.0
C      1  0.5258330000000  0.4386230000000  0.4723000000000 1.0
C      1  0.4688090000000  0.4978460000000  0.4535230000000 1.0
C      1  0.4436660000000  0.5122950000000  0.4602130000000 1.0
C      1  0.5077840000000  0.4725330000000  0.5060490000000 1.0
C      1  0.4987010000000  0.4493310000000  0.4820540000000 1.0
C      1  0.5539760000000  0.4772320000000  0.5403560000000 1.0
C      1  0.5331990000000  0.4254460000000  0.4970750000000 1.0
C      1  0.5262490000000  0.5428230000000  0.4336580000000 1.0
C      1  0.5559760000000  0.5035010000000  0.5052490000000 1.0
C      1  0.5093430000000  0.5551530000000  0.4550310000000 1.0
C      1  0.5149370000000  0.4567860000000  0.5354130000000 1.0
C      1  0.5138620000000  0.4989910000000  0.4723830000000 1.0
C      1  0.4494210000000  0.4599510000000  0.5384170000000 1.0
C      1  0.5507820000000  0.5256550000000  0.4383180000000 1.0
C      1  0.4266820000000  0.5244050000000  0.5027240000000 1.0
C      1  0.4707620000000  0.4693570000000  0.4432810000000 1.0
C      1  0.4940690000000  0.4688570000000  0.4259740000000 1.0
C      1  0.4950180000000  0.5141650000000  0.5702100000000 1.0
C      1  0.4786330000000  0.5582630000000  0.5498220000000 1.0
C      1  0.5021360000000  0.4649090000000  0.5629250000000 1.0
C      1  0.4831850000000  0.5397730000000  0.4648080000000 1.0
C      1  0.5763120000000  0.4829020000000  0.4924180000000 1.0
C      1  0.4917540000000  0.5029130000000  0.4270760000000 1.0
C      1  0.4871620000000  0.4235760000000  0.4929930000000 1.0
C      1  0.4750220000000  0.5349470000000  0.5697790000000 1.0
C      1  0.4534710000000  0.5399720000000  0.4588060000000 1.0
C      1  0.5444860000000  0.4980010000000  0.4321950000000 1.0
C      1  0.5202020000000  0.5823100000000  0.5246080000000 1.0
C      1  0.4964890000000  0.4334240000000  0.5342890000000 1.0
C      1  0.4318530000000  0.4747090000000  0.4951250000000 1.0
C      1  0.5467900000000  0.4511820000000  0.5373280000000 1.0
C      1  0.4882820000000  0.4990290000000  0.5066650000000 1.0
C      1  0.4296330000000  0.5018140000000  0.4834060000000 1.0
C      1  0.5008620000000  0.5714680000000  0.5408680000000 1.0
END
