TITL C-2441159-1093-884 0.113674739660852 125000 -15737.6847134185 0 0 127 (C1) n - 1
REM
REM in /home/bkarasulu/work/CARBON/AIRSS/Generating-Clusters/ReaxFF-fromJPCA2015/Units_Real/with-SteepDescent/Higher-Symm
REM
REM
REM
REM
REM
REM ./C.cell (1df0a924f5614ab8850e4351716899ee)
REM
REM compiler GCC version 9.2.1 20190827 (Red Hat 9.2.1-1)
REM options -cpp -mtune=generic -march=x86-64 -g -O0 -fpre-include=/usr/include/finclude/math-vector-fortran.h
REM seed 1491897430 1641079758 -1982678104 -1123288554 1328913437 -410544903 -2008702256 441558590 -912014412 -1182258235 -138481553 -1748327613 -996550067 1251854111 728736288 -1795483275 -328879394 -787066984 -267464391 2142411477 -589812659 -625028032 -358611833 -1868874364 1122769327 1904587176 374033726 -1254551779 903005635 806640707 237945369 151987510 -1943623785
REM
CELL 1.54180   50.00000   50.00000   50.00000   90.00000   90.00000   90.00000
LATT -1
SFAC C  
C      1  0.4771780000000  0.4439220000000  0.5523960000000 1.0
C      1  0.4993250000000  0.5796750000000  0.4555160000000 1.0
C      1  0.5266010000000  0.5113970000000  0.5026160000000 1.0
C      1  0.5176580000000  0.4801330000000  0.5418340000000 1.0
C      1  0.5589370000000  0.4317630000000  0.4994420000000 1.0
C      1  0.5903150000000  0.5087820000000  0.4855840000000 1.0
C      1  0.5190790000000  0.5217620000000  0.4121320000000 1.0
C      1  0.4325090000000  0.4332660000000  0.4565820000000 1.0
C      1  0.5538790000000  0.4502180000000  0.4492050000000 1.0
C      1  0.4248740000000  0.5521690000000  0.5079400000000 1.0
C      1  0.5695380000000  0.4764170000000  0.4431990000000 1.0
C      1  0.5180460000000  0.4138840000000  0.4865960000000 1.0
C      1  0.4729360000000  0.4118090000000  0.4644160000000 1.0
C      1  0.5660840000000  0.5371290000000  0.4341470000000 1.0
C      1  0.5486560000000  0.5535050000000  0.5618410000000 1.0
C      1  0.5225440000000  0.4885060000000  0.4650260000000 1.0
C      1  0.4345390000000  0.4413430000000  0.5313000000000 1.0
C      1  0.4864890000000  0.4241630000000  0.4428170000000 1.0
C      1  0.4722020000000  0.5452570000000  0.5564390000000 1.0
C      1  0.4897330000000  0.4091790000000  0.4882630000000 1.0
C      1  0.5362170000000  0.5823130000000  0.4920950000000 1.0
C      1  0.5057520000000  0.4376530000000  0.4278870000000 1.0
C      1  0.4519790000000  0.5767490000000  0.4856920000000 1.0
C      1  0.5366070000000  0.4635420000000  0.4710460000000 1.0
C      1  0.5006240000000  0.5198340000000  0.4773000000000 1.0
C      1  0.4475570000000  0.4278020000000  0.5054520000000 1.0
C      1  0.5686580000000  0.5287060000000  0.5219500000000 1.0
C      1  0.5129510000000  0.5714200000000  0.5321480000000 1.0
C      1  0.5241250000000  0.4087750000000  0.5463260000000 1.0
C      1  0.4527620000000  0.4758860000000  0.5688470000000 1.0
C      1  0.4949400000000  0.4653180000000  0.4284060000000 1.0
C      1  0.4348290000000  0.4598000000000  0.4937880000000 1.0
C      1  0.5744280000000  0.5339480000000  0.4823970000000 1.0
C      1  0.5111830000000  0.5130310000000  0.5980970000000 1.0
C      1  0.4849680000000  0.5084890000000  0.5155270000000 1.0
C      1  0.4677810000000  0.4811560000000  0.4579600000000 1.0
C      1  0.4153690000000  0.4822390000000  0.5384900000000 1.0
C      1  0.4552250000000  0.4930720000000  0.4159410000000 1.0
C      1  0.4237700000000  0.5370800000000  0.4814950000000 1.0
C      1  0.4757730000000  0.4852390000000  0.5848080000000 1.0
C      1  0.5676280000000  0.5564620000000  0.5139200000000 1.0
C      1  0.5173070000000  0.4322200000000  0.5299100000000 1.0
C      1  0.4657580000000  0.5033540000000  0.4957660000000 1.0
C      1  0.4247900000000  0.4614770000000  0.4629100000000 1.0
C      1  0.5613440000000  0.5287350000000  0.5540850000000 1.0
C      1  0.4342730000000  0.5460160000000  0.4553610000000 1.0
C      1  0.5080450000000  0.4872970000000  0.4398570000000 1.0
C      1  0.4903790000000  0.4903110000000  0.5380260000000 1.0
C      1  0.5057820000000  0.4669620000000  0.5047760000000 1.0
C      1  0.5620980000000  0.4719260000000  0.5274560000000 1.0
C      1  0.4653140000000  0.4697060000000  0.4302400000000 1.0
C      1  0.4732480000000  0.5399690000000  0.5836030000000 1.0
C      1  0.4697980000000  0.5970260000000  0.5004080000000 1.0
C      1  0.4431370000000  0.5170870000000  0.5309330000000 1.0
C      1  0.5692770000000  0.5524950000000  0.4568590000000 1.0
C      1  0.4975950000000  0.4664210000000  0.5873060000000 1.0
C      1  0.5525430000000  0.4556710000000  0.5740340000000 1.0
C      1  0.5484840000000  0.4819110000000  0.5831060000000 1.0
C      1  0.4794540000000  0.4682340000000  0.5214420000000 1.0
C      1  0.5297480000000  0.4830660000000  0.5162380000000 1.0
C      1  0.4635090000000  0.5831970000000  0.5267440000000 1.0
C      1  0.4628850000000  0.5494910000000  0.4891000000000 1.0
C      1  0.5343930000000  0.5365700000000  0.4671610000000 1.0
C      1  0.4716070000000  0.5771760000000  0.4446040000000 1.0
C      1  0.4755050000000  0.4204250000000  0.5095440000000 1.0
C      1  0.5102680000000  0.4477220000000  0.4803330000000 1.0
C      1  0.5484950000000  0.5249980000000  0.4159480000000 1.0
C      1  0.4489430000000  0.5274790000000  0.5549030000000 1.0
C      1  0.4887010000000  0.4282920000000  0.5312880000000 1.0
C      1  0.5197960000000  0.5483930000000  0.5650160000000 1.0
C      1  0.4661830000000  0.5188690000000  0.4190480000000 1.0
C      1  0.5332310000000  0.4303970000000  0.4387850000000 1.0
C      1  0.5537460000000  0.5196580000000  0.4970610000000 1.0
C      1  0.5823760000000  0.4851390000000  0.4677240000000 1.0
C      1  0.5272930000000  0.4548650000000  0.5517560000000 1.0
C      1  0.4606960000000  0.5387620000000  0.5146520000000 1.0
C      1  0.4316940000000  0.5002140000000  0.4312730000000 1.0
C      1  0.5809910000000  0.4916580000000  0.5366290000000 1.0
C      1  0.4128740000000  0.5089540000000  0.5261250000000 1.0
C      1  0.5430250000000  0.5087200000000  0.4607460000000 1.0
C      1  0.4899270000000  0.5881510000000  0.5343800000000 1.0
C      1  0.5598660000000  0.4274330000000  0.4707930000000 1.0
C      1  0.5105690000000  0.4174560000000  0.5661950000000 1.0
C      1  0.5044930000000  0.5565040000000  0.5071880000000 1.0
C      1  0.4834360000000  0.4615570000000  0.4716660000000 1.0
C      1  0.4945160000000  0.4387270000000  0.5763830000000 1.0
C      1  0.5069250000000  0.5343710000000  0.4541250000000 1.0
C      1  0.4815780000000  0.5144280000000  0.5925770000000 1.0
C      1  0.5575230000000  0.5684830000000  0.5369940000000 1.0
C      1  0.4105680000000  0.4961770000000  0.5010380000000 1.0
C      1  0.4210780000000  0.5079870000000  0.4785240000000 1.0
C      1  0.4723710000000  0.5243660000000  0.4748290000000 1.0
C      1  0.5250120000000  0.5356410000000  0.5890450000000 1.0
C      1  0.4905720000000  0.5340960000000  0.4144180000000 1.0
C      1  0.5361880000000  0.4143110000000  0.4622810000000 1.0
C      1  0.5219780000000  0.4934540000000  0.4158170000000 1.0
C      1  0.4981680000000  0.5991500000000  0.4969510000000 1.0
C      1  0.4380260000000  0.4891880000000  0.4588320000000 1.0
C      1  0.5164730000000  0.5603850000000  0.4420270000000 1.0
C      1  0.4416280000000  0.4529350000000  0.4396740000000 1.0
C      1  0.5617300000000  0.4721610000000  0.4834900000000 1.0
C      1  0.5705910000000  0.4570530000000  0.5051330000000 1.0
C      1  0.5670530000000  0.5002310000000  0.5630890000000 1.0
C      1  0.5559180000000  0.4514820000000  0.5466700000000 1.0
C      1  0.4855120000000  0.5358600000000  0.5184540000000 1.0
C      1  0.4450590000000  0.5728240000000  0.4581150000000 1.0
C      1  0.5419050000000  0.5093650000000  0.5534810000000 1.0
C      1  0.4479130000000  0.4487950000000  0.5563100000000 1.0
C      1  0.5279410000000  0.5544000000000  0.4910870000000 1.0
C      1  0.4578030000000  0.4763370000000  0.5029600000000 1.0
C      1  0.4372890000000  0.5656130000000  0.5305580000000 1.0
C      1  0.4982130000000  0.4849580000000  0.4818150000000 1.0
C      1  0.4448020000000  0.5545850000000  0.5577000000000 1.0
C      1  0.5151380000000  0.5961790000000  0.4752340000000 1.0
C      1  0.4468490000000  0.4197100000000  0.4772110000000 1.0
C      1  0.4438490000000  0.4884420000000  0.5445630000000 1.0
C      1  0.5380500000000  0.5835440000000  0.5217150000000 1.0
C      1  0.5202840000000  0.4852620000000  0.5891350000000 1.0
C      1  0.5436750000000  0.5650760000000  0.4513690000000 1.0
C      1  0.4164690000000  0.4599440000000  0.5182120000000 1.0
C      1  0.5511200000000  0.4973620000000  0.4340700000000 1.0
C      1  0.5339650000000  0.4215380000000  0.5093940000000 1.0
C      1  0.5904050000000  0.5072050000000  0.5147610000000 1.0
C      1  0.4788980000000  0.5574060000000  0.4257290000000 1.0
C      1  0.5229730000000  0.5287180000000  0.5249240000000 1.0
C      1  0.4411730000000  0.5278290000000  0.4328590000000 1.0
C      1  0.5156930000000  0.5196670000000  0.5506040000000 1.0
END
