TITL C-2441159-1093-15 0.162900443476018 125000 -22472.2494765847 0 0 179 (C1) n - 1
REM
REM in /home/bkarasulu/work/CARBON/AIRSS/Generating-Clusters/ReaxFF-fromJPCA2015/Units_Real/with-SteepDescent/Higher-Symm
REM
REM
REM
REM
REM
REM ./C.cell (1df0a924f5614ab8850e4351716899ee)
REM
REM compiler GCC version 9.2.1 20190827 (Red Hat 9.2.1-1)
REM options -cpp -mtune=generic -march=x86-64 -g -O0 -fpre-include=/usr/include/finclude/math-vector-fortran.h
REM seed 180898954 62469992 -1125657532 -1453418556 905690871 6321763 -792980303 364950963 881594813 1407812565 1281731879 1937698992 1680835085 968557489 818786216 1973315060 -581867262 2095691540 1068764664 -158890758 -1648118808 -572805148 1409757074 -1282586782 -544259389 818251367 -1625413503 -1735754856 1059908033 -711974515 1823441853 -1537833587 -1512844949
REM
CELL 1.54180   50.00000   50.00000   50.00000   90.00000   90.00000   90.00000
LATT -1
SFAC C  
C      1  0.4339480000000  0.5342010000000  0.4228670000000 1.0
C      1  0.4367540000000  0.4707550000000  0.4120790000000 1.0
C      1  0.4117800000000  0.4619970000000  0.4982550000000 1.0
C      1  0.3999450000000  0.5370020000000  0.5006360000000 1.0
C      1  0.4342950000000  0.5720100000000  0.5173340000000 1.0
C      1  0.4398850000000  0.4327570000000  0.5185710000000 1.0
C      1  0.5284800000000  0.5425730000000  0.4974910000000 1.0
C      1  0.5303890000000  0.4624860000000  0.5010830000000 1.0
C      1  0.5640430000000  0.5407260000000  0.5613700000000 1.0
C      1  0.5667020000000  0.4600440000000  0.5603640000000 1.0
C      1  0.4538390000000  0.4085130000000  0.4762630000000 1.0
C      1  0.4440160000000  0.5896000000000  0.4756500000000 1.0
C      1  0.4868490000000  0.4417460000000  0.4734720000000 1.0
C      1  0.4808130000000  0.5561540000000  0.4691480000000 1.0
C      1  0.4760000000000  0.4040830000000  0.5262620000000 1.0
C      1  0.4758980000000  0.5976200000000  0.5244830000000 1.0
C      1  0.5869020000000  0.5459310000000  0.4711760000000 1.0
C      1  0.5851520000000  0.4563910000000  0.4648970000000 1.0
C      1  0.4628550000000  0.4644750000000  0.5912390000000 1.0
C      1  0.4759160000000  0.5331780000000  0.5916840000000 1.0
C      1  0.4097520000000  0.5195510000000  0.4536490000000 1.0
C      1  0.4099860000000  0.4784190000000  0.4530440000000 1.0
C      1  0.4335600000000  0.4536790000000  0.5641710000000 1.0
C      1  0.4324010000000  0.5500460000000  0.5639040000000 1.0
C      1  0.5672240000000  0.4250060000000  0.4971140000000 1.0
C      1  0.5663250000000  0.5744230000000  0.4968550000000 1.0
C      1  0.4960310000000  0.4174630000000  0.4883440000000 1.0
C      1  0.4868170000000  0.5724360000000  0.4940110000000 1.0
C      1  0.5846890000000  0.4718870000000  0.4892720000000 1.0
C      1  0.5729870000000  0.5289140000000  0.4926690000000 1.0
C      1  0.5416140000000  0.4717880000000  0.5502920000000 1.0
C      1  0.5416600000000  0.5236370000000  0.5545310000000 1.0
C      1  0.5286050000000  0.4549360000000  0.5304180000000 1.0
C      1  0.5249390000000  0.5501010000000  0.5229090000000 1.0
C      1  0.4806560000000  0.5474600000000  0.5301150000000 1.0
C      1  0.4822040000000  0.4501510000000  0.5346280000000 1.0
C      1  0.5298000000000  0.4207030000000  0.5263050000000 1.0
C      1  0.5280020000000  0.5791680000000  0.5260970000000 1.0
C      1  0.5034800000000  0.5812080000000  0.5593910000000 1.0
C      1  0.5012300000000  0.4196930000000  0.5617040000000 1.0
C      1  0.4398950000000  0.4405040000000  0.4160930000000 1.0
C      1  0.4357180000000  0.5624050000000  0.4222720000000 1.0
C      1  0.4590160000000  0.4656670000000  0.5645840000000 1.0
C      1  0.4593840000000  0.5469560000000  0.5721570000000 1.0
C      1  0.5516030000000  0.4293270000000  0.4475530000000 1.0
C      1  0.5563780000000  0.5690800000000  0.4430670000000 1.0
C      1  0.5857690000000  0.5451780000000  0.5387750000000 1.0
C      1  0.5867960000000  0.4563470000000  0.5360480000000 1.0
C      1  0.5033140000000  0.4678230000000  0.5406200000000 1.0
C      1  0.5049260000000  0.5336620000000  0.5353540000000 1.0
C      1  0.4565400000000  0.5340760000000  0.4709960000000 1.0
C      1  0.4599260000000  0.4713700000000  0.4773740000000 1.0
C      1  0.5387320000000  0.4265480000000  0.4980430000000 1.0
C      1  0.5392420000000  0.5665840000000  0.4878150000000 1.0
C      1  0.4826750000000  0.5482240000000  0.4128570000000 1.0
C      1  0.4774630000000  0.4570210000000  0.4110970000000 1.0
C      1  0.4930150000000  0.4588470000000  0.5909530000000 1.0
C      1  0.5030920000000  0.5507860000000  0.5981130000000 1.0
C      1  0.4323200000000  0.4282710000000  0.4706190000000 1.0
C      1  0.4226910000000  0.5719250000000  0.4743690000000 1.0
C      1  0.5260410000000  0.5833080000000  0.4674630000000 1.0
C      1  0.5261480000000  0.4102910000000  0.4785600000000 1.0
C      1  0.5033210000000  0.4621800000000  0.4839280000000 1.0
C      1  0.5085220000000  0.5255990000000  0.4854870000000 1.0
C      1  0.5032810000000  0.5752900000000  0.5862860000000 1.0
C      1  0.5089400000000  0.4347540000000  0.5858970000000 1.0
C      1  0.5730900000000  0.5701630000000  0.5253850000000 1.0
C      1  0.5756490000000  0.4294520000000  0.5243210000000 1.0
C      1  0.4381770000000  0.5281260000000  0.5284050000000 1.0
C      1  0.4195380000000  0.4678220000000  0.5247130000000 1.0
C      1  0.4780630000000  0.4330630000000  0.5557350000000 1.0
C      1  0.4753610000000  0.5626390000000  0.5538580000000 1.0
C      1  0.4970880000000  0.4294580000000  0.4475620000000 1.0
C      1  0.4868290000000  0.5820470000000  0.4542020000000 1.0
C      1  0.5745630000000  0.5255690000000  0.5198310000000 1.0
C      1  0.5743770000000  0.4740090000000  0.5158890000000 1.0
C      1  0.3946550000000  0.4759650000000  0.4783200000000 1.0
C      1  0.3911040000000  0.5248000000000  0.4758300000000 1.0
C      1  0.4456240000000  0.4351510000000  0.4454740000000 1.0
C      1  0.4413740000000  0.5703160000000  0.4511510000000 1.0
C      1  0.4591520000000  0.4553300000000  0.5197360000000 1.0
C      1  0.4612680000000  0.5379240000000  0.5119320000000 1.0
C      1  0.5037770000000  0.5942740000000  0.5335500000000 1.0
C      1  0.5038120000000  0.4085770000000  0.5353660000000 1.0
C      1  0.4589990000000  0.5840760000000  0.5019800000000 1.0
C      1  0.4569340000000  0.4118030000000  0.5053830000000 1.0
C      1  0.4185130000000  0.5282890000000  0.5500190000000 1.0
C      1  0.4155790000000  0.4741180000000  0.5519490000000 1.0
C      1  0.4599780000000  0.4138270000000  0.5489560000000 1.0
C      1  0.4600770000000  0.5865720000000  0.5461000000000 1.0
C      1  0.5021730000000  0.4475250000000  0.4232220000000 1.0
C      1  0.5099150000000  0.5560270000000  0.4223000000000 1.0
C      1  0.6094280000000  0.5213750000000  0.5417130000000 1.0
C      1  0.6099780000000  0.4804010000000  0.5398440000000 1.0
C      1  0.5027540000000  0.4807240000000  0.4610960000000 1.0
C      1  0.4982830000000  0.5320760000000  0.4583490000000 1.0
C      1  0.5004370000000  0.5921880000000  0.4773010000000 1.0
C      1  0.4970600000000  0.3904290000000  0.4835830000000 1.0
C      1  0.4346330000000  0.5731440000000  0.5455890000000 1.0
C      1  0.4357650000000  0.4292420000000  0.5477360000000 1.0
C      1  0.5093400000000  0.4734400000000  0.4336710000000 1.0
C      1  0.5158580000000  0.5301850000000  0.4344580000000 1.0
C      1  0.5824590000000  0.4655490000000  0.4360360000000 1.0
C      1  0.5889180000000  0.5353150000000  0.4435950000000 1.0
C      1  0.5413840000000  0.5275790000000  0.4454710000000 1.0
C      1  0.5466010000000  0.4731310000000  0.4549370000000 1.0
C      1  0.4631510000000  0.5877000000000  0.4395020000000 1.0
C      1  0.4665800000000  0.4152700000000  0.4505160000000 1.0
C      1  0.5154040000000  0.5270440000000  0.5618070000000 1.0
C      1  0.5073210000000  0.4744620000000  0.5705660000000 1.0
C      1  0.4185180000000  0.5585180000000  0.4985500000000 1.0
C      1  0.4360870000000  0.4557830000000  0.4809280000000 1.0
C      1  0.4629800000000  0.5693120000000  0.4170960000000 1.0
C      1  0.4660680000000  0.4312720000000  0.4100000000000 1.0
C      1  0.4794130000000  0.4719920000000  0.4992600000000 1.0
C      1  0.4814430000000  0.5187030000000  0.4993250000000 1.0
C      1  0.5254420000000  0.4198120000000  0.4528760000000 1.0
C      1  0.5273740000000  0.5730890000000  0.4397090000000 1.0
C      1  0.5549040000000  0.4552000000000  0.4343220000000 1.0
C      1  0.5626260000000  0.5424980000000  0.4327320000000 1.0
C      1  0.5519620000000  0.5777670000000  0.5441950000000 1.0
C      1  0.5553990000000  0.4216040000000  0.5430070000000 1.0
C      1  0.5351440000000  0.4474970000000  0.5888290000000 1.0
C      1  0.5319000000000  0.5465490000000  0.5918770000000 1.0
C      1  0.5401640000000  0.5185210000000  0.6004330000000 1.0
C      1  0.5393400000000  0.4760520000000  0.5982890000000 1.0
C      1  0.5548450000000  0.4351520000000  0.5693070000000 1.0
C      1  0.5496160000000  0.5631910000000  0.5705450000000 1.0
C      1  0.5720950000000  0.4314860000000  0.4690230000000 1.0
C      1  0.5744490000000  0.5715510000000  0.4679820000000 1.0
C      1  0.4601560000000  0.4741750000000  0.4291460000000 1.0
C      1  0.4509830000000  0.5242540000000  0.4439020000000 1.0
C      1  0.4506050000000  0.4893400000000  0.6017420000000 1.0
C      1  0.5198640000000  0.5005580000000  0.4785540000000 1.0
C      1  0.4674940000000  0.5079810000000  0.4783900000000 1.0
C      1  0.5381590000000  0.4991920000000  0.5398460000000 1.0
C      1  0.3830420000000  0.5001750000000  0.4892210000000 1.0
C      1  0.5995970000000  0.5087140000000  0.4401820000000 1.0
C      1  0.5080040000000  0.4968060000000  0.3892230000000 1.0
C      1  0.4631300000000  0.4933420000000  0.5577960000000 1.0
C      1  0.5370540000000  0.4993770000000  0.3864970000000 1.0
C      1  0.4051390000000  0.4994700000000  0.4329100000000 1.0
C      1  0.5400540000000  0.4984420000000  0.4141090000000 1.0
C      1  0.6166920000000  0.5019180000000  0.5214120000000 1.0
C      1  0.5608240000000  0.4971510000000  0.4613830000000 1.0
C      1  0.4336180000000  0.4986640000000  0.4935280000000 1.0
C      1  0.4470590000000  0.5027910000000  0.5370860000000 1.0
C      1  0.4642580000000  0.4999480000000  0.4386430000000 1.0
C      1  0.5751200000000  0.4984100000000  0.5637760000000 1.0
C      1  0.5376490000000  0.4905450000000  0.4985490000000 1.0
C      1  0.5638640000000  0.5000370000000  0.4008630000000 1.0
C      1  0.6219740000000  0.5051750000000  0.4919340000000 1.0
C      1  0.5830960000000  0.4918020000000  0.4227590000000 1.0
C      1  0.4243000000000  0.4994620000000  0.5911020000000 1.0
C      1  0.4723910000000  0.5229390000000  0.4013360000000 1.0
C      1  0.4219830000000  0.5101160000000  0.4100810000000 1.0
C      1  0.4267860000000  0.4991630000000  0.4668700000000 1.0
C      1  0.5239470000000  0.4975170000000  0.6143010000000 1.0
C      1  0.4795690000000  0.5101000000000  0.5729560000000 1.0
C      1  0.4840950000000  0.5028060000000  0.4578980000000 1.0
C      1  0.6043470000000  0.4998970000000  0.5612850000000 1.0
C      1  0.4959170000000  0.5019210000000  0.6160780000000 1.0
C      1  0.5352860000000  0.5023580000000  0.4553160000000 1.0
C      1  0.4493460000000  0.4940330000000  0.5127530000000 1.0
C      1  0.5076260000000  0.4952820000000  0.5307320000000 1.0
C      1  0.4700100000000  0.5091120000000  0.6122990000000 1.0
C      1  0.5592340000000  0.5047960000000  0.4872100000000 1.0
C      1  0.4859320000000  0.4961840000000  0.5131090000000 1.0
C      1  0.4445200000000  0.4954400000000  0.3978120000000 1.0
C      1  0.5568490000000  0.4976110000000  0.5872970000000 1.0
C      1  0.6146680000000  0.4999670000000  0.4642910000000 1.0
C      1  0.5980610000000  0.4962610000000  0.4851690000000 1.0
C      1  0.4130600000000  0.5022030000000  0.5643470000000 1.0
C      1  0.5675010000000  0.4992340000000  0.5308020000000 1.0
C      1  0.5114940000000  0.4990690000000  0.4185710000000 1.0
C      1  0.4791060000000  0.5018250000000  0.3880150000000 1.0
C      1  0.3985050000000  0.5120690000000  0.5182150000000 1.0
C      1  0.5057050000000  0.5025210000000  0.5743390000000 1.0
C      1  0.3776480000000  0.4985450000000  0.5276970000000 1.0
END
