TITL C-2441167-4473-6 0.00907623964275038 125000 -2386.3780775542 0 0 22 (S4) n - 1
REM
REM in /home/bkarasulu/work/CARBON/AIRSS/Generating-Clusters/ReaxFF-fromJPCA2015/Units_Real/with-SteepDescent/Higher-Symm
REM
REM
REM
REM
REM
REM ./C.cell (1df0a924f5614ab8850e4351716899ee)
REM
REM compiler GCC version 9.2.1 20190827 (Red Hat 9.2.1-1)
REM options -cpp -mtune=generic -march=x86-64 -g -O0 -fpre-include=/usr/include/finclude/math-vector-fortran.h
REM seed -331784967 1918547930 2051014509 -311778778 2135794790 -2116428235 -1793549922 1101407601 1132743533 -976178848 1314599971 1202908833 88999129 1149563856 1106682696 1649095116 671536688 810977598 2083352769 -1337643953 -287305289 -1729771275 1026876222 -580106383 -295315272 -285179110 -1692425424 2018690319 -1483628524 -1397771592 1197214012 644849311 -672649765
REM
CELL 1.54180   50.00000   50.00000   50.00000   90.00000   90.00000   90.00000
LATT -1
SFAC C  
C      1  0.5134400000000  0.4742550000000  0.4891240000000 1.0
C      1  0.5250110000000  0.5164660000000  0.5108730000000 1.0
C      1  0.4828010000000  0.5280340000000  0.4891240000000 1.0
C      1  0.4712300000000  0.4858220000000  0.5108730000000 1.0
C      1  0.5103860000000  0.5176200000000  0.4849750000000 1.0
C      1  0.4816610000000  0.5133980000000  0.5150260000000 1.0
C      1  0.4858550000000  0.4846680000000  0.4849750000000 1.0
C      1  0.5145800000000  0.4888900000000  0.5150260000000 1.0
C      1  0.4753310000000  0.5544450000000  0.4855710000000 1.0
C      1  0.4448200000000  0.4783550000000  0.5144290000000 1.0
C      1  0.5209100000000  0.4478440000000  0.4855710000000 1.0
C      1  0.5514210000000  0.5239330000000  0.5144290000000 1.0
C      1  0.5017990000000  0.4762070000000  0.5392620000000 1.0
C      1  0.5230570000000  0.5048250000000  0.4607390000000 1.0
C      1  0.4944420000000  0.5260810000000  0.5392620000000 1.0
C      1  0.4731840000000  0.4974630000000  0.4607390000000 1.0
C      1  0.5471260000000  0.4897380000000  0.4649050000000 1.0
C      1  0.5095260000000  0.5501510000000  0.5350950000000 1.0
C      1  0.4491140000000  0.5125500000000  0.4649050000000 1.0
C      1  0.4867150000000  0.4521370000000  0.5350950000000 1.0
C      1  0.4981210000000  0.5011440000000  0.4437410000000 1.0
C      1  0.4981210000000  0.5011440000000  0.5562610000000 1.0
END
