TITL C-2441169-1362-1311 0.0228830214726551 125000 -13369.4135071106 0 0 97 (C1) n - 1
REM
REM in /home/bkarasulu/work/CARBON/AIRSS/Generating-Clusters/ReaxFF-fromJPCA2015/Units_Real/with-SteepDescent/Higher-Symm
REM
REM
REM
REM
REM
REM ./C.cell (1df0a924f5614ab8850e4351716899ee)
REM
REM compiler GCC version 9.2.1 20190827 (Red Hat 9.2.1-1)
REM options -cpp -mtune=generic -march=x86-64 -g -O0 -fpre-include=/usr/include/finclude/math-vector-fortran.h
REM seed 1240557812 -1407930577 353445116 -882869286 1615598407 -807576604 1211810020 -1429223614 -2591369 842884498 873548610 -115717886 867302603 -1369480693 -2023363830 618424381 829073844 -992936543 -196958351 -1588493484 -1424358048 1750096778 -2118337011 451486277 2017136132 -1868196157 -301909002 754457717 369464121 -1492357251 -822802565 823407324 -130769644
REM
CELL 1.54180   50.00000   50.00000   50.00000   90.00000   90.00000   90.00000
LATT -1
SFAC C  
C      1  0.5585680000000  0.5553600000000  0.5108230000000 1.0
C      1  0.5598410000000  0.5433080000000  0.4634120000000 1.0
C      1  0.5610500000000  0.4988440000000  0.4454480000000 1.0
C      1  0.5616910000000  0.4543800000000  0.4662800000000 1.0
C      1  0.5624730000000  0.4433020000000  0.5151200000000 1.0
C      1  0.5628840000000  0.4771550000000  0.5513580000000 1.0
C      1  0.5626890000000  0.5276050000000  0.5524090000000 1.0
C      1  0.5144800000000  0.5683840000000  0.4988210000000 1.0
C      1  0.5142940000000  0.5389000000000  0.4488810000000 1.0
C      1  0.5168940000000  0.4928880000000  0.4331760000000 1.0
C      1  0.5153980000000  0.4333070000000  0.4666990000000 1.0
C      1  0.5161720000000  0.4405510000000  0.5269410000000 1.0
C      1  0.5191480000000  0.4797470000000  0.5633550000000 1.0
C      1  0.5153370000000  0.5466670000000  0.5596360000000 1.0
C      1  0.5475340000000  0.5710120000000  0.5324260000000 1.0
C      1  0.5486150000000  0.5694360000000  0.4644080000000 1.0
C      1  0.5510440000000  0.5144500000000  0.4241040000000 1.0
C      1  0.5501320000000  0.4510600000000  0.4401740000000 1.0
C      1  0.5497190000000  0.4213930000000  0.5008940000000 1.0
C      1  0.5509320000000  0.4538560000000  0.5621810000000 1.0
C      1  0.5505590000000  0.5185720000000  0.5766390000000 1.0
C      1  0.4494270000000  0.5020110000000  0.5782980000000 1.0
C      1  0.4468310000000  0.5626210000000  0.5472450000000 1.0
C      1  0.4479070000000  0.5762640000000  0.4815630000000 1.0
C      1  0.4468030000000  0.5331660000000  0.4294030000000 1.0
C      1  0.4492310000000  0.4649540000000  0.4305570000000 1.0
C      1  0.4472170000000  0.4244220000000  0.4857330000000 1.0
C      1  0.4472230000000  0.4418390000000  0.5474550000000 1.0
C      1  0.5086960000000  0.5388400000000  0.5025160000000 1.0
C      1  0.5092930000000  0.5226510000000  0.4729360000000 1.0
C      1  0.5124170000000  0.4892100000000  0.4624400000000 1.0
C      1  0.5114660000000  0.4615460000000  0.4821300000000 1.0
C      1  0.5216070000000  0.4606730000000  0.5078080000000 1.0
C      1  0.5167180000000  0.4968280000000  0.5379940000000 1.0
C      1  0.5124250000000  0.5265430000000  0.5337020000000 1.0
C      1  0.4365250000000  0.4456510000000  0.5016190000000 1.0
C      1  0.4345450000000  0.4670160000000  0.5455670000000 1.0
C      1  0.4388420000000  0.5145170000000  0.5550880000000 1.0
C      1  0.4377740000000  0.5514820000000  0.5232710000000 1.0
C      1  0.4386410000000  0.5503650000000  0.4746440000000 1.0
C      1  0.4387720000000  0.5111140000000  0.4454260000000 1.0
C      1  0.4392110000000  0.4638810000000  0.4571640000000 1.0
C      1  0.4301050000000  0.5615490000000  0.4986030000000 1.0
C      1  0.4300010000000  0.5367110000000  0.4521260000000 1.0
C      1  0.4313260000000  0.4847680000000  0.4406960000000 1.0
C      1  0.4300050000000  0.4444950000000  0.4747900000000 1.0
C      1  0.4272960000000  0.4469520000000  0.5277570000000 1.0
C      1  0.4299760000000  0.4891130000000  0.5617780000000 1.0
C      1  0.4301670000000  0.5397060000000  0.5471310000000 1.0
C      1  0.4935920000000  0.4231690000000  0.5276410000000 1.0
C      1  0.4940510000000  0.4755870000000  0.5776310000000 1.0
C      1  0.4888040000000  0.5480710000000  0.5721870000000 1.0
C      1  0.4923780000000  0.5844790000000  0.5086750000000 1.0
C      1  0.4927580000000  0.5566250000000  0.4416110000000 1.0
C      1  0.4925260000000  0.4899470000000  0.4170920000000 1.0
C      1  0.4879970000000  0.4256460000000  0.4554610000000 1.0
C      1  0.4832450000000  0.4868590000000  0.4677180000000 1.0
C      1  0.4829650000000  0.4674040000000  0.4898820000000 1.0
C      1  0.4772150000000  0.4689040000000  0.5181520000000 1.0
C      1  0.4849610000000  0.4914980000000  0.5330640000000 1.0
C      1  0.4838570000000  0.5203270000000  0.5322510000000 1.0
C      1  0.4799540000000  0.5344240000000  0.5085390000000 1.0
C      1  0.4807610000000  0.5147120000000  0.4710690000000 1.0
C      1  0.4760210000000  0.4442070000000  0.5412090000000 1.0
C      1  0.4779430000000  0.4991210000000  0.5840020000000 1.0
C      1  0.4749380000000  0.5655650000000  0.5542040000000 1.0
C      1  0.4760650000000  0.5834070000000  0.4839180000000 1.0
C      1  0.4749240000000  0.5394960000000  0.4241560000000 1.0
C      1  0.4775560000000  0.4652950000000  0.4235620000000 1.0
C      1  0.4751300000000  0.4188960000000  0.4801440000000 1.0
C      1  0.5235040000000  0.5271840000000  0.5812270000000 1.0
C      1  0.5218140000000  0.5718820000000  0.5455140000000 1.0
C      1  0.5219390000000  0.5782760000000  0.4725770000000 1.0
C      1  0.5216610000000  0.5226210000000  0.4244140000000 1.0
C      1  0.5231260000000  0.4414160000000  0.4398180000000 1.0
C      1  0.5239760000000  0.4161800000000  0.4892980000000 1.0
C      1  0.5206970000000  0.4499340000000  0.5573090000000 1.0
C      1  0.5670450000000  0.5506070000000  0.5367110000000 1.0
C      1  0.5667650000000  0.5599820000000  0.4843650000000 1.0
C      1  0.5689290000000  0.5252580000000  0.4440120000000 1.0
C      1  0.5685510000000  0.4723490000000  0.4463540000000 1.0
C      1  0.5686850000000  0.4388170000000  0.4885000000000 1.0
C      1  0.5697160000000  0.4527350000000  0.5405890000000 1.0
C      1  0.5691610000000  0.5021250000000  0.5618360000000 1.0
C      1  0.4911680000000  0.5186260000000  0.4125170000000 1.0
C      1  0.4946430000000  0.4444700000000  0.4341650000000 1.0
C      1  0.4969490000000  0.4141390000000  0.5006300000000 1.0
C      1  0.4921450000000  0.4492220000000  0.5665530000000 1.0
C      1  0.4947020000000  0.5226830000000  0.5845800000000 1.0
C      1  0.4948910000000  0.5787500000000  0.5374020000000 1.0
C      1  0.4943210000000  0.5783140000000  0.4615520000000 1.0
C      1  0.4155150000000  0.4972420000000  0.5018780000000 1.0
C      1  0.4632980000000  0.5169900000000  0.4933540000000 1.0
C      1  0.4375440000000  0.5058620000000  0.4980450000000 1.0
C      1  0.5309860000000  0.4860310000000  0.5145870000000 1.0
C      1  0.5759060000000  0.5032920000000  0.4973210000000 1.0
C      1  0.5545030000000  0.4953570000000  0.5056320000000 1.0
END
