TITL C-2441165-58-274 0.0934707474972107 125000 -14408.7614360114 0 0 116 (C1) n - 1
REM
REM in /home/bkarasulu/work/CARBON/AIRSS/Generating-Clusters/ReaxFF-fromJPCA2015/Units_Real/with-SteepDescent/Higher-Symm
REM
REM
REM
REM
REM
REM ./C.cell (1df0a924f5614ab8850e4351716899ee)
REM
REM compiler GCC version 9.2.1 20190827 (Red Hat 9.2.1-1)
REM options -cpp -mtune=generic -march=x86-64 -g -O0 -fpre-include=/usr/include/finclude/math-vector-fortran.h
REM seed 1106391240 -1763930424 -671395729 -632838928 1997594329 -504181381 102560144 1393051985 -205967876 -628214784 590932926 -1720105917 245343528 -673695544 -2066718036 1047335906 929569854 1674046659 -2016795030 2003906774 373323680 1444437466 -1200825050 -1921027028 982609602 -1091121793 2146840247 1848240068 -1333458345 -1159681142 1262729548 2105116957 1108091012
REM
CELL 1.54180   50.00000   50.00000   50.00000   90.00000   90.00000   90.00000
LATT -1
SFAC C  
C      1  0.5344900000000  0.5897330000000  0.5071070000000 1.0
C      1  0.5177140000000  0.5887190000000  0.4689710000000 1.0
C      1  0.4893280000000  0.5870210000000  0.4623480000000 1.0
C      1  0.4710900000000  0.5892690000000  0.4849440000000 1.0
C      1  0.4716660000000  0.5885000000000  0.5136880000000 1.0
C      1  0.4917700000000  0.5891840000000  0.5340630000000 1.0
C      1  0.5208590000000  0.5873640000000  0.5329470000000 1.0
C      1  0.4184530000000  0.4903280000000  0.4667640000000 1.0
C      1  0.4235930000000  0.4902620000000  0.5429980000000 1.0
C      1  0.4870580000000  0.4922920000000  0.5888190000000 1.0
C      1  0.5616800000000  0.4898870000000  0.5662910000000 1.0
C      1  0.5912050000000  0.4907040000000  0.4957250000000 1.0
C      1  0.5532880000000  0.4926570000000  0.4233660000000 1.0
C      1  0.4740690000000  0.4924340000000  0.4127820000000 1.0
C      1  0.5157160000000  0.5249760000000  0.4115000000000 1.0
C      1  0.4425510000000  0.5203850000000  0.4359370000000 1.0
C      1  0.4148350000000  0.5200230000000  0.5047770000000 1.0
C      1  0.4477810000000  0.5201490000000  0.5704010000000 1.0
C      1  0.5251740000000  0.5215250000000  0.5840810000000 1.0
C      1  0.5814780000000  0.5195230000000  0.5337800000000 1.0
C      1  0.5814920000000  0.5256520000000  0.4569100000000 1.0
C      1  0.4447430000000  0.5438390000000  0.4806990000000 1.0
C      1  0.4494350000000  0.5445760000000  0.5304370000000 1.0
C      1  0.4874370000000  0.5467230000000  0.5612250000000 1.0
C      1  0.5460700000000  0.5440900000000  0.5421930000000 1.0
C      1  0.5598580000000  0.5437020000000  0.4939020000000 1.0
C      1  0.5326410000000  0.5431370000000  0.4506290000000 1.0
C      1  0.4805790000000  0.5429240000000  0.4435600000000 1.0
C      1  0.5723850000000  0.4625720000000  0.4608350000000 1.0
C      1  0.5145650000000  0.4602880000000  0.4215920000000 1.0
C      1  0.4433230000000  0.4541600000000  0.4360790000000 1.0
C      1  0.4128530000000  0.4532960000000  0.5056450000000 1.0
C      1  0.4497960000000  0.4547210000000  0.5735620000000 1.0
C      1  0.5261140000000  0.4540930000000  0.5848390000000 1.0
C      1  0.5797890000000  0.4513380000000  0.5317590000000 1.0
C      1  0.5181820000000  0.4211510000000  0.4671270000000 1.0
C      1  0.4896340000000  0.4254140000000  0.4662730000000 1.0
C      1  0.4626110000000  0.4252890000000  0.5033260000000 1.0
C      1  0.4729800000000  0.4262780000000  0.5300970000000 1.0
C      1  0.5018290000000  0.4272040000000  0.5372100000000 1.0
C      1  0.5261790000000  0.4260710000000  0.5216720000000 1.0
C      1  0.5311850000000  0.4176490000000  0.4937400000000 1.0
C      1  0.5295680000000  0.4994830000000  0.5175300000000 1.0
C      1  0.5345680000000  0.4946730000000  0.4840220000000 1.0
C      1  0.5116210000000  0.4949310000000  0.4653100000000 1.0
C      1  0.4823460000000  0.4971830000000  0.4718790000000 1.0
C      1  0.4663770000000  0.4965250000000  0.4969470000000 1.0
C      1  0.4769510000000  0.4956060000000  0.5239260000000 1.0
C      1  0.5068950000000  0.4975790000000  0.5338690000000 1.0
C      1  0.5577960000000  0.4849660000000  0.4695120000000 1.0
C      1  0.5128560000000  0.4832530000000  0.4386320000000 1.0
C      1  0.4670920000000  0.4777990000000  0.4589360000000 1.0
C      1  0.4458870000000  0.4763500000000  0.4991270000000 1.0
C      1  0.4674310000000  0.4778680000000  0.5448510000000 1.0
C      1  0.5148970000000  0.4775460000000  0.5530790000000 1.0
C      1  0.5492770000000  0.4773900000000  0.5228210000000 1.0
C      1  0.4140440000000  0.4618070000000  0.4770210000000 1.0
C      1  0.4272790000000  0.4630490000000  0.5556580000000 1.0
C      1  0.4986840000000  0.4641650000000  0.5920040000000 1.0
C      1  0.5700100000000  0.4613680000000  0.5570260000000 1.0
C      1  0.5874850000000  0.4628290000000  0.4851510000000 1.0
C      1  0.5434940000000  0.4631490000000  0.4214930000000 1.0
C      1  0.4646540000000  0.4628620000000  0.4181570000000 1.0
C      1  0.5331200000000  0.4933330000000  0.5705540000000 1.0
C      1  0.5743310000000  0.4924710000000  0.5202330000000 1.0
C      1  0.5667720000000  0.5012220000000  0.4476270000000 1.0
C      1  0.5008080000000  0.5000970000000  0.4186360000000 1.0
C      1  0.4428850000000  0.4928420000000  0.4507710000000 1.0
C      1  0.4271450000000  0.4933670000000  0.5141910000000 1.0
C      1  0.4645430000000  0.4939940000000  0.5695940000000 1.0
C      1  0.4598330000000  0.4520520000000  0.5337060000000 1.0
C      1  0.4997970000000  0.4517730000000  0.5530310000000 1.0
C      1  0.5387520000000  0.4507950000000  0.5322990000000 1.0
C      1  0.5464280000000  0.4411730000000  0.4889700000000 1.0
C      1  0.5336510000000  0.4456300000000  0.4637030000000 1.0
C      1  0.4803630000000  0.4510940000000  0.4550250000000 1.0
C      1  0.4518910000000  0.4491310000000  0.4892490000000 1.0
C      1  0.4200680000000  0.5143050000000  0.5614220000000 1.0
C      1  0.5002270000000  0.5161260000000  0.6007840000000 1.0
C      1  0.5797130000000  0.5135700000000  0.5634080000000 1.0
C      1  0.5982370000000  0.5140650000000  0.4789900000000 1.0
C      1  0.5443490000000  0.5156370000000  0.4072030000000 1.0
C      1  0.4554610000000  0.5153200000000  0.4089020000000 1.0
C      1  0.4036290000000  0.5141830000000  0.4774810000000 1.0
C      1  0.5228160000000  0.5567680000000  0.5271900000000 1.0
C      1  0.5333140000000  0.5584730000000  0.4996620000000 1.0
C      1  0.5195370000000  0.5574420000000  0.4739380000000 1.0
C      1  0.4908950000000  0.5566070000000  0.4683480000000 1.0
C      1  0.4708170000000  0.5572330000000  0.4874270000000 1.0
C      1  0.4729660000000  0.5566140000000  0.5153180000000 1.0
C      1  0.4946450000000  0.5582870000000  0.5341900000000 1.0
C      1  0.5106190000000  0.5468170000000  0.4292600000000 1.0
C      1  0.4496110000000  0.5450470000000  0.4483980000000 1.0
C      1  0.4285410000000  0.5451090000000  0.5087980000000 1.0
C      1  0.4576580000000  0.5457700000000  0.5599890000000 1.0
C      1  0.5263920000000  0.5472170000000  0.5725290000000 1.0
C      1  0.5715590000000  0.5450880000000  0.5252800000000 1.0
C      1  0.5632960000000  0.5468490000000  0.4635450000000 1.0
C      1  0.5724540000000  0.4466560000000  0.5040340000000 1.0
C      1  0.5545460000000  0.4475190000000  0.4432800000000 1.0
C      1  0.4886140000000  0.4482740000000  0.4270730000000 1.0
C      1  0.4363650000000  0.4470020000000  0.4634050000000 1.0
C      1  0.4297210000000  0.4485230000000  0.5298630000000 1.0
C      1  0.4793840000000  0.4493160000000  0.5748420000000 1.0
C      1  0.5442120000000  0.4473870000000  0.5619190000000 1.0
C      1  0.5202710000000  0.5192510000000  0.4562490000000 1.0
C      1  0.4791460000000  0.5197740000000  0.4576850000000 1.0
C      1  0.4549190000000  0.5206370000000  0.4911630000000 1.0
C      1  0.4743950000000  0.5204640000000  0.5346260000000 1.0
C      1  0.4959490000000  0.5205530000000  0.5512750000000 1.0
C      1  0.5400000000000  0.5211910000000  0.5290340000000 1.0
C      1  0.5467770000000  0.5192040000000  0.4880520000000 1.0
C      1  0.4976960000000  0.4484870000000  0.4992760000000 1.0
C      1  0.5104120000000  0.5979490000000  0.4947690000000 1.0
C      1  0.4888000000000  0.4216300000000  0.4939130000000 1.0
C      1  0.5026840000000  0.4715590000000  0.5024140000000 1.0
END
