TITL C-2441160-1326-550 0.148401461078735 125000 -20641.8719254271 0 0 164 (C1) n - 1
REM
REM in /home/bkarasulu/work/CARBON/AIRSS/Generating-Clusters/ReaxFF-fromJPCA2015/Units_Real/with-SteepDescent/Higher-Symm
REM
REM
REM
REM
REM
REM ./C.cell (1df0a924f5614ab8850e4351716899ee)
REM
REM compiler GCC version 9.2.1 20190827 (Red Hat 9.2.1-1)
REM options -cpp -mtune=generic -march=x86-64 -g -O0 -fpre-include=/usr/include/finclude/math-vector-fortran.h
REM seed 1880312066 -1939821517 79226214 -490846831 -1893206495 -1295018717 -1674749598 -182019678 -1812749494 -2106614610 -2143485834 149872290 766142281 1643500182 -1082736171 -1300117271 585523951 1610457071 993038710 -1630489951 -1624748615 -1040397970 1040254538 -1367635742 -440601043 -324416272 -406316277 -1067671553 1947212049 1020411292 -92685719 850897100 -2063461580
REM
CELL 1.54180   50.00000   50.00000   50.00000   90.00000   90.00000   90.00000
LATT -1
SFAC C  
C      1  0.5991640000000  0.5187630000000  0.4896980000000 1.0
C      1  0.5769760000000  0.5181460000000  0.4389410000000 1.0
C      1  0.5322900000000  0.5175380000000  0.4068120000000 1.0
C      1  0.4763820000000  0.5193880000000  0.4067970000000 1.0
C      1  0.4292200000000  0.5190400000000  0.4335870000000 1.0
C      1  0.4024540000000  0.5180490000000  0.4820820000000 1.0
C      1  0.4075340000000  0.5161060000000  0.5376120000000 1.0
C      1  0.4429100000000  0.5178840000000  0.5796620000000 1.0
C      1  0.4942170000000  0.5211040000000  0.5980310000000 1.0
C      1  0.5457630000000  0.5046450000000  0.5859340000000 1.0
C      1  0.5953430000000  0.5109910000000  0.5461230000000 1.0
C      1  0.4683320000000  0.4052840000000  0.5431310000000 1.0
C      1  0.4961990000000  0.4032850000000  0.5450780000000 1.0
C      1  0.5212900000000  0.4025010000000  0.5393340000000 1.0
C      1  0.5396320000000  0.4027890000000  0.5208740000000 1.0
C      1  0.5533250000000  0.4027490000000  0.4958390000000 1.0
C      1  0.5345730000000  0.4016510000000  0.4750300000000 1.0
C      1  0.5140350000000  0.4024480000000  0.4596860000000 1.0
C      1  0.4876980000000  0.4055550000000  0.4479280000000 1.0
C      1  0.4674820000000  0.4037850000000  0.4670230000000 1.0
C      1  0.4564730000000  0.4017810000000  0.4908660000000 1.0
C      1  0.4581220000000  0.4026050000000  0.5166490000000 1.0
C      1  0.5391960000000  0.5464570000000  0.5861320000000 1.0
C      1  0.5713690000000  0.5426640000000  0.5431780000000 1.0
C      1  0.5912610000000  0.5459840000000  0.4941110000000 1.0
C      1  0.5765790000000  0.5464740000000  0.4435520000000 1.0
C      1  0.5327480000000  0.5448520000000  0.4129760000000 1.0
C      1  0.4799760000000  0.5469910000000  0.4105270000000 1.0
C      1  0.4338750000000  0.5468540000000  0.4350200000000 1.0
C      1  0.4047030000000  0.5463330000000  0.4799880000000 1.0
C      1  0.4188370000000  0.5422440000000  0.5297370000000 1.0
C      1  0.4437010000000  0.5449590000000  0.5746370000000 1.0
C      1  0.4912670000000  0.5488580000000  0.5950170000000 1.0
C      1  0.4356730000000  0.5700740000000  0.5042240000000 1.0
C      1  0.4536170000000  0.5733000000000  0.5436490000000 1.0
C      1  0.4763850000000  0.5718420000000  0.5586400000000 1.0
C      1  0.5162400000000  0.5735090000000  0.5586470000000 1.0
C      1  0.5415160000000  0.5691520000000  0.5471610000000 1.0
C      1  0.5611620000000  0.5769210000000  0.5141920000000 1.0
C      1  0.5593430000000  0.5712510000000  0.4814560000000 1.0
C      1  0.5386390000000  0.5708670000000  0.4479470000000 1.0
C      1  0.5143970000000  0.5737690000000  0.4373950000000 1.0
C      1  0.4679680000000  0.5800880000000  0.4407910000000 1.0
C      1  0.4397970000000  0.5730630000000  0.4774620000000 1.0
C      1  0.4489770000000  0.5998700000000  0.4811270000000 1.0
C      1  0.4480230000000  0.5970190000000  0.5104030000000 1.0
C      1  0.4606530000000  0.5993620000000  0.5350230000000 1.0
C      1  0.4938900000000  0.5933900000000  0.5521410000000 1.0
C      1  0.5208800000000  0.6020800000000  0.5466560000000 1.0
C      1  0.5443930000000  0.5927060000000  0.5317500000000 1.0
C      1  0.5557990000000  0.5966720000000  0.4930210000000 1.0
C      1  0.5430850000000  0.5912260000000  0.4673670000000 1.0
C      1  0.5100980000000  0.5977240000000  0.4472440000000 1.0
C      1  0.4851630000000  0.6021960000000  0.4442810000000 1.0
C      1  0.4632890000000  0.6011480000000  0.4582570000000 1.0
C      1  0.4512860000000  0.5091650000000  0.4177890000000 1.0
C      1  0.4130500000000  0.5074370000000  0.4562960000000 1.0
C      1  0.4016270000000  0.5080740000000  0.5105710000000 1.0
C      1  0.4226820000000  0.5060180000000  0.5614480000000 1.0
C      1  0.4685610000000  0.5087460000000  0.5917840000000 1.0
C      1  0.5247030000000  0.5216750000000  0.5922260000000 1.0
C      1  0.5738420000000  0.5094780000000  0.5663760000000 1.0
C      1  0.6014050000000  0.5062580000000  0.5160570000000 1.0
C      1  0.5906370000000  0.5078790000000  0.4625750000000 1.0
C      1  0.5560660000000  0.5064430000000  0.4197430000000 1.0
C      1  0.5035520000000  0.5070400000000  0.4039840000000 1.0
C      1  0.4489350000000  0.4955680000000  0.5115060000000 1.0
C      1  0.4636010000000  0.5011380000000  0.5376200000000 1.0
C      1  0.4900580000000  0.4999820000000  0.5500820000000 1.0
C      1  0.5191280000000  0.5021600000000  0.5433900000000 1.0
C      1  0.5446560000000  0.4957970000000  0.5318150000000 1.0
C      1  0.5561320000000  0.5015470000000  0.5050050000000 1.0
C      1  0.5470250000000  0.4973770000000  0.4772130000000 1.0
C      1  0.5222830000000  0.5009150000000  0.4499600000000 1.0
C      1  0.4933580000000  0.5039170000000  0.4513520000000 1.0
C      1  0.4708110000000  0.4893890000000  0.4584360000000 1.0
C      1  0.4517460000000  0.4990060000000  0.4815730000000 1.0
C      1  0.5686880000000  0.4269890000000  0.4862670000000 1.0
C      1  0.5431950000000  0.4366660000000  0.4521150000000 1.0
C      1  0.5193680000000  0.4366610000000  0.4331120000000 1.0
C      1  0.4758420000000  0.4299640000000  0.4370140000000 1.0
C      1  0.4351440000000  0.4369460000000  0.4624070000000 1.0
C      1  0.4278490000000  0.4369430000000  0.5064600000000 1.0
C      1  0.4471830000000  0.4455790000000  0.5411070000000 1.0
C      1  0.4629160000000  0.4320370000000  0.5565270000000 1.0
C      1  0.5129840000000  0.4386950000000  0.5724550000000 1.0
C      1  0.5507780000000  0.4362420000000  0.5486720000000 1.0
C      1  0.5648190000000  0.4443260000000  0.5093060000000 1.0
C      1  0.4085020000000  0.4693300000000  0.4871970000000 1.0
C      1  0.4152730000000  0.4700570000000  0.5416250000000 1.0
C      1  0.4557550000000  0.4710260000000  0.5801410000000 1.0
C      1  0.5039450000000  0.4722280000000  0.5949200000000 1.0
C      1  0.5535710000000  0.4649180000000  0.5780220000000 1.0
C      1  0.5844350000000  0.4681520000000  0.5365180000000 1.0
C      1  0.5943500000000  0.4673930000000  0.4827410000000 1.0
C      1  0.5681410000000  0.4688640000000  0.4355540000000 1.0
C      1  0.5238660000000  0.4694360000000  0.4047290000000 1.0
C      1  0.4702870000000  0.4688050000000  0.4092330000000 1.0
C      1  0.4268830000000  0.4715420000000  0.4389820000000 1.0
C      1  0.5407490000000  0.5295420000000  0.4761200000000 1.0
C      1  0.5247420000000  0.5302230000000  0.4530480000000 1.0
C      1  0.4939740000000  0.5332720000000  0.4525860000000 1.0
C      1  0.4736390000000  0.5390090000000  0.4703680000000 1.0
C      1  0.4523940000000  0.5293690000000  0.4852310000000 1.0
C      1  0.4467150000000  0.5314580000000  0.5144370000000 1.0
C      1  0.4650160000000  0.5297310000000  0.5361470000000 1.0
C      1  0.4915320000000  0.5325700000000  0.5462670000000 1.0
C      1  0.5195950000000  0.5301200000000  0.5420860000000 1.0
C      1  0.5455030000000  0.5340190000000  0.5294560000000 1.0
C      1  0.5509480000000  0.5297670000000  0.5020240000000 1.0
C      1  0.4655790000000  0.4444730000000  0.5823450000000 1.0
C      1  0.4929820000000  0.4459570000000  0.5919400000000 1.0
C      1  0.5419110000000  0.4388700000000  0.5757760000000 1.0
C      1  0.5768300000000  0.4406310000000  0.5360410000000 1.0
C      1  0.5923970000000  0.4399550000000  0.4806600000000 1.0
C      1  0.5682860000000  0.4414030000000  0.4397080000000 1.0
C      1  0.5237260000000  0.4411600000000  0.4059540000000 1.0
C      1  0.4727640000000  0.4422410000000  0.4154060000000 1.0
C      1  0.4289730000000  0.4441280000000  0.4358600000000 1.0
C      1  0.4130900000000  0.4417510000000  0.4821840000000 1.0
C      1  0.4195600000000  0.4423880000000  0.5342970000000 1.0
C      1  0.4368770000000  0.4805710000000  0.5588930000000 1.0
C      1  0.4806940000000  0.4859420000000  0.5805410000000 1.0
C      1  0.5324070000000  0.4798570000000  0.5894170000000 1.0
C      1  0.5650550000000  0.4825230000000  0.5543220000000 1.0
C      1  0.5863500000000  0.4817710000000  0.5101050000000 1.0
C      1  0.5760170000000  0.4823040000000  0.4633550000000 1.0
C      1  0.5415510000000  0.4822510000000  0.4281630000000 1.0
C      1  0.4968440000000  0.4802730000000  0.4058060000000 1.0
C      1  0.4537630000000  0.4836810000000  0.4284810000000 1.0
C      1  0.4234200000000  0.4837010000000  0.4674820000000 1.0
C      1  0.4162340000000  0.4824020000000  0.5130370000000 1.0
C      1  0.5094770000000  0.4559260000000  0.5488910000000 1.0
C      1  0.5330180000000  0.4529150000000  0.5341660000000 1.0
C      1  0.5426360000000  0.4592470000000  0.5102580000000 1.0
C      1  0.5315230000000  0.4741730000000  0.4887280000000 1.0
C      1  0.5284970000000  0.4551350000000  0.4682200000000 1.0
C      1  0.5072320000000  0.4559930000000  0.4519790000000 1.0
C      1  0.4798620000000  0.4630060000000  0.4598430000000 1.0
C      1  0.4598940000000  0.4479010000000  0.4744860000000 1.0
C      1  0.4521540000000  0.4497600000000  0.5002900000000 1.0
C      1  0.4619230000000  0.4616690000000  0.5242980000000 1.0
C      1  0.4848340000000  0.4559610000000  0.5392050000000 1.0
C      1  0.5537950000000  0.5567730000000  0.4292330000000 1.0
C      1  0.5067230000000  0.5571690000000  0.4155370000000 1.0
C      1  0.4586280000000  0.5587860000000  0.4253280000000 1.0
C      1  0.4230390000000  0.5578960000000  0.4596720000000 1.0
C      1  0.4104990000000  0.5573390000000  0.5061180000000 1.0
C      1  0.4314510000000  0.5567240000000  0.5522060000000 1.0
C      1  0.4679190000000  0.5579450000000  0.5813060000000 1.0
C      1  0.5157220000000  0.5617330000000  0.5862100000000 1.0
C      1  0.5577340000000  0.5558690000000  0.5657770000000 1.0
C      1  0.5819160000000  0.5569560000000  0.5194450000000 1.0
C      1  0.5813580000000  0.5572300000000  0.4700420000000 1.0
C      1  0.4998890000000  0.4010430000000  0.5016910000000 1.0
C      1  0.4992630000000  0.5104050000000  0.4999330000000 1.0
C      1  0.5031930000000  0.4830330000000  0.4986320000000 1.0
C      1  0.5008010000000  0.5370400000000  0.5009130000000 1.0
C      1  0.4998230000000  0.3760240000000  0.4972350000000 1.0
C      1  0.5000210000000  0.6143480000000  0.4998880000000 1.0
C      1  0.4992520000000  0.4293240000000  0.4999300000000 1.0
C      1  0.4976760000000  0.4551550000000  0.5004530000000 1.0
C      1  0.4998530000000  0.5894580000000  0.4997010000000 1.0
C      1  0.4997150000000  0.5632880000000  0.4996000000000 1.0
END
