TITL C-2441163-1170-797 0.0332046807949066 125000 -10806.769689235 0 0 79 (C1) n - 1
REM
REM in /home/bkarasulu/work/CARBON/AIRSS/Generating-Clusters/ReaxFF-fromJPCA2015/Units_Real/with-SteepDescent/Higher-Symm
REM
REM
REM
REM
REM
REM ./C.cell (1df0a924f5614ab8850e4351716899ee)
REM
REM compiler GCC version 9.2.1 20190827 (Red Hat 9.2.1-1)
REM options -cpp -mtune=generic -march=x86-64 -g -O0 -fpre-include=/usr/include/finclude/math-vector-fortran.h
REM seed 1445961348 -542388013 580273095 -1453927690 1285088491 209039289 -1207857353 -928353023 337311221 -1196763509 -1483005196 -499876227 -428967050 394521996 -1317507743 -2096433930 941734632 -1054256737 -1807607459 634609119 -1997544076 2007678405 1231847131 886716875 1780916699 756111245 -1499498666 -226619804 2055693032 2145005035 -786898351 1494432802 680940765
REM
CELL 1.54180   50.00000   50.00000   50.00000   90.00000   90.00000   90.00000
LATT -1
SFAC C  
C      1  0.4474470000000  0.4518590000000  0.5255810000000 1.0
C      1  0.5583540000000  0.5562160000000  0.4685240000000 1.0
C      1  0.4463100000000  0.5483740000000  0.4742830000000 1.0
C      1  0.5544350000000  0.4560300000000  0.5284910000000 1.0
C      1  0.5729360000000  0.4797970000000  0.5274710000000 1.0
C      1  0.4341280000000  0.5151040000000  0.4762110000000 1.0
C      1  0.5432120000000  0.5841020000000  0.4945390000000 1.0
C      1  0.4560180000000  0.4149360000000  0.5049400000000 1.0
C      1  0.5606570000000  0.5317290000000  0.5374970000000 1.0
C      1  0.4373630000000  0.4696790000000  0.4657420000000 1.0
C      1  0.5055360000000  0.4894500000000  0.4592830000000 1.0
C      1  0.5043870000000  0.4953200000000  0.5418860000000 1.0
C      1  0.5494260000000  0.5094320000000  0.4642140000000 1.0
C      1  0.4534500000000  0.4901030000000  0.5374570000000 1.0
C      1  0.4773520000000  0.5342840000000  0.5434830000000 1.0
C      1  0.5299100000000  0.4697860000000  0.4551220000000 1.0
C      1  0.5013390000000  0.4526050000000  0.5445400000000 1.0
C      1  0.4986780000000  0.5431020000000  0.4570840000000 1.0
C      1  0.4639950000000  0.5111520000000  0.4743410000000 1.0
C      1  0.5415170000000  0.5023170000000  0.5110610000000 1.0
C      1  0.5097240000000  0.5704450000000  0.4632460000000 1.0
C      1  0.4890090000000  0.4271170000000  0.5372950000000 1.0
C      1  0.5685650000000  0.5479770000000  0.5178370000000 1.0
C      1  0.4277720000000  0.4490000000000  0.4802890000000 1.0
C      1  0.4296020000000  0.4958300000000  0.4540350000000 1.0
C      1  0.5687850000000  0.5033270000000  0.5441210000000 1.0
C      1  0.5021430000000  0.4168570000000  0.5133600000000 1.0
C      1  0.4966470000000  0.5822660000000  0.4865610000000 1.0
C      1  0.4837230000000  0.4677420000000  0.4628310000000 1.0
C      1  0.5056210000000  0.5238860000000  0.5392930000000 1.0
C      1  0.4473760000000  0.5011070000000  0.4317300000000 1.0
C      1  0.5543140000000  0.4979410000000  0.5705660000000 1.0
C      1  0.5221280000000  0.5412510000000  0.5723770000000 1.0
C      1  0.4754630000000  0.4572330000000  0.4252810000000 1.0
C      1  0.4416200000000  0.4678260000000  0.5486320000000 1.0
C      1  0.5588520000000  0.5330160000000  0.4525780000000 1.0
C      1  0.4383340000000  0.5111780000000  0.5255560000000 1.0
C      1  0.5662640000000  0.4865690000000  0.4751080000000 1.0
C      1  0.5143950000000  0.4841260000000  0.5143900000000 1.0
C      1  0.4831590000000  0.5189130000000  0.4950280000000 1.0
C      1  0.5335810000000  0.4544300000000  0.5496740000000 1.0
C      1  0.4661860000000  0.5463760000000  0.4537450000000 1.0
C      1  0.4606040000000  0.4263470000000  0.5310870000000 1.0
C      1  0.5372400000000  0.5737310000000  0.4694100000000 1.0
C      1  0.4620390000000  0.4810320000000  0.5639810000000 1.0
C      1  0.5374120000000  0.5198170000000  0.4385760000000 1.0
C      1  0.5090010000000  0.5810810000000  0.5344390000000 1.0
C      1  0.4907310000000  0.4196440000000  0.4654280000000 1.0
C      1  0.4963630000000  0.4619150000000  0.5172720000000 1.0
C      1  0.5046850000000  0.5373460000000  0.4860760000000 1.0
C      1  0.5376330000000  0.4769370000000  0.5641280000000 1.0
C      1  0.4665110000000  0.5183180000000  0.4468170000000 1.0
C      1  0.4755940000000  0.5614280000000  0.5503350000000 1.0
C      1  0.5217290000000  0.4433270000000  0.4519360000000 1.0
C      1  0.5273490000000  0.4251660000000  0.5012440000000 1.0
C      1  0.4702410000000  0.5754490000000  0.4975000000000 1.0
C      1  0.4594620000000  0.5301410000000  0.5192300000000 1.0
C      1  0.5497080000000  0.4634510000000  0.4765410000000 1.0
C      1  0.5663410000000  0.5653160000000  0.4959910000000 1.0
C      1  0.4324350000000  0.4318920000000  0.5012700000000 1.0
C      1  0.5169980000000  0.5872980000000  0.5069700000000 1.0
C      1  0.4823260000000  0.4129540000000  0.4923610000000 1.0
C      1  0.4636550000000  0.4677660000000  0.4809200000000 1.0
C      1  0.5308220000000  0.5399610000000  0.5327500000000 1.0
C      1  0.4510890000000  0.5541370000000  0.5013880000000 1.0
C      1  0.5464030000000  0.4466760000000  0.5022210000000 1.0
C      1  0.5687500000000  0.4955790000000  0.5026860000000 1.0
C      1  0.4223440000000  0.5031610000000  0.5036620000000 1.0
C      1  0.5328050000000  0.5158200000000  0.5746470000000 1.0
C      1  0.4621380000000  0.4782430000000  0.4234440000000 1.0
C      1  0.5178520000000  0.4248790000000  0.4730090000000 1.0
C      1  0.4824300000000  0.5724850000000  0.5254180000000 1.0
C      1  0.4824330000000  0.4429890000000  0.4490380000000 1.0
C      1  0.5242270000000  0.5615140000000  0.5515480000000 1.0
C      1  0.5103070000000  0.5162950000000  0.4455120000000 1.0
C      1  0.4901550000000  0.4782290000000  0.5593910000000 1.0
C      1  0.4688850000000  0.4669390000000  0.5088010000000 1.0
C      1  0.5274770000000  0.5177310000000  0.4901170000000 1.0
C      1  0.5049400000000  0.4976650000000  0.4910930000000 1.0
END
