TITL C-2441160-1326-998 0.00234188710813467 125000 -8480.74719929353 0 0 59 (C1) n - 1
REM
REM in /home/bkarasulu/work/CARBON/AIRSS/Generating-Clusters/ReaxFF-fromJPCA2015/Units_Real/with-SteepDescent/Higher-Symm
REM
REM
REM
REM
REM
REM ./C.cell (1df0a924f5614ab8850e4351716899ee)
REM
REM compiler GCC version 9.2.1 20190827 (Red Hat 9.2.1-1)
REM options -cpp -mtune=generic -march=x86-64 -g -O0 -fpre-include=/usr/include/finclude/math-vector-fortran.h
REM seed -291202194 1862560807 -1514322166 -34052373 1980363545 -402751370 624141838 1249950642 921601842 56009432 2000540068 1402794292 53325814 2051210125 721086931 36472704 1845182926 -2104066882 -64845018 -1978318772 1366233558 -848995161 -1335450072 1627206980 -669367756 -918483185 1368378329 -1124473035 -773956280 -2077218609 -229657739 -199013923 423229500
REM
CELL 1.54180   50.00000   50.00000   50.00000   90.00000   90.00000   90.00000
LATT -1
SFAC C  
C      1  0.4804440000000  0.4678120000000  0.4416360000000 1.0
C      1  0.4394940000000  0.4815950000000  0.4680220000000 1.0
C      1  0.4662770000000  0.4410920000000  0.4820660000000 1.0
C      1  0.4807240000000  0.5315000000000  0.5583150000000 1.0
C      1  0.5159920000000  0.5306930000000  0.4415790000000 1.0
C      1  0.5155190000000  0.4671660000000  0.5582190000000 1.0
C      1  0.4400480000000  0.5167160000000  0.5319280000000 1.0
C      1  0.5564700000000  0.5171240000000  0.4677540000000 1.0
C      1  0.5562610000000  0.4819100000000  0.5318880000000 1.0
C      1  0.4662590000000  0.5576410000000  0.5175120000000 1.0
C      1  0.5300230000000  0.5579880000000  0.4820380000000 1.0
C      1  0.5303310000000  0.4412470000000  0.5173900000000 1.0
C      1  0.4495720000000  0.5080330000000  0.4622370000000 1.0
C      1  0.4606460000000  0.4499910000000  0.5087550000000 1.0
C      1  0.5070970000000  0.4621670000000  0.4509960000000 1.0
C      1  0.4495980000000  0.4906130000000  0.5374450000000 1.0
C      1  0.5471410000000  0.4905730000000  0.4619280000000 1.0
C      1  0.5470330000000  0.5081090000000  0.5373950000000 1.0
C      1  0.4609000000000  0.5478290000000  0.4914000000000 1.0
C      1  0.5359070000000  0.5481570000000  0.5085770000000 1.0
C      1  0.5358700000000  0.4508720000000  0.4912100000000 1.0
C      1  0.5068930000000  0.5374710000000  0.5491680000000 1.0
C      1  0.4894090000000  0.5363460000000  0.4506570000000 1.0
C      1  0.4895160000000  0.4612590000000  0.5486840000000 1.0
C      1  0.5101940000000  0.5486240000000  0.5223280000000 1.0
C      1  0.5211770000000  0.5121690000000  0.5507840000000 1.0
C      1  0.5477430000000  0.5212300000000  0.5115410000000 1.0
C      1  0.5101170000000  0.4504110000000  0.4779590000000 1.0
C      1  0.4863400000000  0.4496890000000  0.5219800000000 1.0
C      1  0.4866190000000  0.5480910000000  0.4777900000000 1.0
C      1  0.5201360000000  0.4882290000000  0.4500730000000 1.0
C      1  0.4750460000000  0.4866410000000  0.5509170000000 1.0
C      1  0.4765680000000  0.5103790000000  0.4501340000000 1.0
C      1  0.5474580000000  0.4774130000000  0.4878490000000 1.0
C      1  0.4491530000000  0.4771340000000  0.5116320000000 1.0
C      1  0.4491930000000  0.5215940000000  0.4880090000000 1.0
C      1  0.5113320000000  0.4933640000000  0.5714910000000 1.0
C      1  0.5698600000000  0.5125020000000  0.4937160000000 1.0
C      1  0.4921840000000  0.5709140000000  0.5129830000000 1.0
C      1  0.5116370000000  0.5053820000000  0.4269640000000 1.0
C      1  0.4848920000000  0.5054200000000  0.5719700000000 1.0
C      1  0.4849250000000  0.4931990000000  0.4270970000000 1.0
C      1  0.5695940000000  0.4858200000000  0.5055310000000 1.0
C      1  0.4273320000000  0.4866040000000  0.4940040000000 1.0
C      1  0.4267100000000  0.5125750000000  0.5059230000000 1.0
C      1  0.4925250000000  0.4281480000000  0.4863710000000 1.0
C      1  0.5041260000000  0.4278220000000  0.5131310000000 1.0
C      1  0.5041140000000  0.5702710000000  0.4870240000000 1.0
C      1  0.4984410000000  0.4993930000000  0.4649590000000 1.0
C      1  0.4973920000000  0.4995400000000  0.5332070000000 1.0
C      1  0.4672200000000  0.4995670000000  0.4980970000000 1.0
C      1  0.4977790000000  0.4665820000000  0.5004430000000 1.0
C      1  0.5312070000000  0.4993200000000  0.4990860000000 1.0
C      1  0.5002210000000  0.5301230000000  0.5000530000000 1.0
C      1  0.4599020000000  0.5377010000000  0.5384400000000 1.0
C      1  0.5365810000000  0.5377980000000  0.4612320000000 1.0
C      1  0.5365650000000  0.4609190000000  0.5384560000000 1.0
C      1  0.4597240000000  0.4609450000000  0.4613060000000 1.0
C      1  0.4944580000000  0.5027170000000  0.5054790000000 1.0
END
