TITL C-2441154-10-325 0.000593698852562264 125000 -1970.65591210876 0 0 15 (C1) n - 1
REM
REM in /home/bkarasulu/work/CARBON/AIRSS/Generating-Clusters/ReaxFF-fromJPCA2015/Units_Real/with-SteepDescent/Higher-Symm
REM
REM
REM
REM
REM
REM ./C.cell (1df0a924f5614ab8850e4351716899ee)
REM
REM compiler GCC version 9.2.1 20190827 (Red Hat 9.2.1-1)
REM options -cpp -mtune=generic -march=x86-64 -g -O0 -fpre-include=/usr/include/finclude/math-vector-fortran.h
REM seed 1218201066 -1327775711 -2078747148 -1609474297 1290784428 -290628154 23625586 1903930387 737864473 1019473173 -1803759428 173881201 -2014344689 -214174301 -1027446968 -1190230371 -1504745584 1332941032 1955511425 -1382479097 -1458031391 1034515365 995014724 369170030 -1027644150 802134699 63076487 -763130680 -1112923369 -581342363 1277853594 -528586890 1664516537
REM
CELL 1.54180   50.00000   50.00000   50.00000   90.00000   90.00000   90.00000
LATT -1
SFAC C  
C      1  0.5228760000000  0.4501280000000  0.4976760000000 1.0
C      1  0.4751390000000  0.5569440000000  0.5016880000000 1.0
C      1  0.4642150000000  0.5372920000000  0.5224890000000 1.0
C      1  0.5316970000000  0.4771530000000  0.4807230000000 1.0
C      1  0.5126430000000  0.5292880000000  0.4669420000000 1.0
C      1  0.4885200000000  0.4736010000000  0.5317360000000 1.0
C      1  0.4868070000000  0.5339280000000  0.4813030000000 1.0
C      1  0.5072850000000  0.4533750000000  0.5243570000000 1.0
C      1  0.5274490000000  0.4269600000000  0.4889920000000 1.0
C      1  0.4805480000000  0.5820460000000  0.5036990000000 1.0
C      1  0.4606350000000  0.5174630000000  0.5331150000000 1.0
C      1  0.5545060000000  0.4784680000000  0.4693710000000 1.0
C      1  0.5112730000000  0.5001400000000  0.4777990000000 1.0
C      1  0.4754350000000  0.4978470000000  0.5183210000000 1.0
C      1  0.4866820000000  0.5064130000000  0.4918250000000 1.0
END
