TITL C-2441163-1170-1030 0.187299585372744 125000 -24995.3516728454 0 0 198 (C1) n - 1
REM
REM in /home/bkarasulu/work/CARBON/AIRSS/Generating-Clusters/ReaxFF-fromJPCA2015/Units_Real/with-SteepDescent/Higher-Symm
REM
REM
REM
REM
REM
REM ./C.cell (1df0a924f5614ab8850e4351716899ee)
REM
REM compiler GCC version 9.2.1 20190827 (Red Hat 9.2.1-1)
REM options -cpp -mtune=generic -march=x86-64 -g -O0 -fpre-include=/usr/include/finclude/math-vector-fortran.h
REM seed -1499899540 1019195771 1483095724 1183420608 279642609 -1305126556 -1253961378 -1743765258 310923319 -137826749 175993285 1234623798 -1359699662 1050490834 -1256388360 428230133 -77454432 -215006598 1663098956 1242947422 1822720450 -327003898 538215669 -1571439241 149984456 -1777725661 -197628396 62392857 -1582631860 1615614520 720353060 1846981368 1210678299
REM
CELL 1.54180   50.00000   50.00000   50.00000   90.00000   90.00000   90.00000
LATT -1
SFAC C  
C      1  0.5133680000000  0.5570000000000  0.4569500000000 1.0
C      1  0.5133890000000  0.4618260000000  0.4430090000000 1.0
C      1  0.5146780000000  0.4456880000000  0.5445390000000 1.0
C      1  0.5150650000000  0.5440540000000  0.5528850000000 1.0
C      1  0.4853030000000  0.5539320000000  0.4521800000000 1.0
C      1  0.4851250000000  0.4627130000000  0.4423600000000 1.0
C      1  0.4825590000000  0.4453830000000  0.5446150000000 1.0
C      1  0.4852660000000  0.5436280000000  0.5571390000000 1.0
C      1  0.5460090000000  0.4527980000000  0.5825920000000 1.0
C      1  0.5442270000000  0.5818060000000  0.5478950000000 1.0
C      1  0.5451710000000  0.5528050000000  0.4159980000000 1.0
C      1  0.5440600000000  0.4194090000000  0.4537220000000 1.0
C      1  0.4540710000000  0.4488030000000  0.5843940000000 1.0
C      1  0.4517390000000  0.5857800000000  0.5503860000000 1.0
C      1  0.4533240000000  0.5514020000000  0.4157570000000 1.0
C      1  0.4548420000000  0.4179960000000  0.4510160000000 1.0
C      1  0.5142470000000  0.4898310000000  0.5693010000000 1.0
C      1  0.5259620000000  0.5638330000000  0.5065490000000 1.0
C      1  0.5195620000000  0.5111500000000  0.4317470000000 1.0
C      1  0.5240320000000  0.4331910000000  0.4936930000000 1.0
C      1  0.4841300000000  0.4897450000000  0.5690800000000 1.0
C      1  0.4866350000000  0.5693420000000  0.5135160000000 1.0
C      1  0.4891850000000  0.5113170000000  0.4285120000000 1.0
C      1  0.4844770000000  0.4293670000000  0.4899270000000 1.0
C      1  0.5675790000000  0.4412260000000  0.5369360000000 1.0
C      1  0.5654450000000  0.5306410000000  0.5570810000000 1.0
C      1  0.5677370000000  0.5607270000000  0.4637900000000 1.0
C      1  0.5673010000000  0.4534360000000  0.4451220000000 1.0
C      1  0.4306930000000  0.4433840000000  0.5319380000000 1.0
C      1  0.4349110000000  0.5442430000000  0.5544840000000 1.0
C      1  0.4326960000000  0.5591650000000  0.4662240000000 1.0
C      1  0.4332460000000  0.4633080000000  0.4422250000000 1.0
C      1  0.5328710000000  0.4404820000000  0.4350600000000 1.0
C      1  0.5353690000000  0.4343280000000  0.5613400000000 1.0
C      1  0.5338810000000  0.5621670000000  0.5675440000000 1.0
C      1  0.5356030000000  0.5683430000000  0.4403710000000 1.0
C      1  0.4665590000000  0.4402040000000  0.4349910000000 1.0
C      1  0.4663170000000  0.4303680000000  0.5655120000000 1.0
C      1  0.4668810000000  0.5643940000000  0.5669790000000 1.0
C      1  0.4700710000000  0.5691200000000  0.4324670000000 1.0
C      1  0.4308150000000  0.4205460000000  0.4693730000000 1.0
C      1  0.4310370000000  0.4684380000000  0.5803040000000 1.0
C      1  0.4282660000000  0.5806260000000  0.5314850000000 1.0
C      1  0.4285040000000  0.5337020000000  0.4214160000000 1.0
C      1  0.5688170000000  0.4192700000000  0.4695710000000 1.0
C      1  0.5696100000000  0.4702420000000  0.5808100000000 1.0
C      1  0.5689020000000  0.5816020000000  0.5315250000000 1.0
C      1  0.5694120000000  0.5350180000000  0.4186440000000 1.0
C      1  0.3951160000000  0.5393950000000  0.5275140000000 1.0
C      1  0.3922360000000  0.5244120000000  0.4590610000000 1.0
C      1  0.3940660000000  0.4588510000000  0.4725750000000 1.0
C      1  0.3938280000000  0.4738250000000  0.5434110000000 1.0
C      1  0.6055040000000  0.5436650000000  0.5269470000000 1.0
C      1  0.6048950000000  0.5272720000000  0.4567580000000 1.0
C      1  0.6029840000000  0.4594220000000  0.4737920000000 1.0
C      1  0.6058070000000  0.4731390000000  0.5407140000000 1.0
C      1  0.5696420000000  0.5133840000000  0.5130870000000 1.0
C      1  0.5700150000000  0.5126890000000  0.4839390000000 1.0
C      1  0.5642570000000  0.4849540000000  0.4854280000000 1.0
C      1  0.5632660000000  0.4845130000000  0.5127440000000 1.0
C      1  0.4350260000000  0.5153100000000  0.5143150000000 1.0
C      1  0.4350020000000  0.5145620000000  0.4859980000000 1.0
C      1  0.4343670000000  0.4861690000000  0.4851780000000 1.0
C      1  0.4303290000000  0.4870030000000  0.5148980000000 1.0
C      1  0.5653160000000  0.5978060000000  0.5078720000000 1.0
C      1  0.5557930000000  0.5142130000000  0.4084230000000 1.0
C      1  0.5667060000000  0.4031770000000  0.4933480000000 1.0
C      1  0.5636100000000  0.4948580000000  0.5945820000000 1.0
C      1  0.4463960000000  0.5825720000000  0.5091140000000 1.0
C      1  0.4404770000000  0.5128060000000  0.4091690000000 1.0
C      1  0.4428420000000  0.4138350000000  0.4910020000000 1.0
C      1  0.4446710000000  0.4884120000000  0.5904520000000 1.0
C      1  0.5120540000000  0.5555510000000  0.4836640000000 1.0
C      1  0.5220520000000  0.4881940000000  0.4499610000000 1.0
C      1  0.5111680000000  0.4430280000000  0.5173900000000 1.0
C      1  0.5095480000000  0.5125770000000  0.5509900000000 1.0
C      1  0.4866800000000  0.5496160000000  0.4911510000000 1.0
C      1  0.4772920000000  0.4907820000000  0.4453330000000 1.0
C      1  0.4841720000000  0.4402150000000  0.5157190000000 1.0
C      1  0.4794550000000  0.5154730000000  0.5539350000000 1.0
C      1  0.5984390000000  0.5378450000000  0.5537960000000 1.0
C      1  0.5969660000000  0.5549560000000  0.4619330000000 1.0
C      1  0.5939320000000  0.4633380000000  0.4454540000000 1.0
C      1  0.5972420000000  0.4452700000000  0.5376210000000 1.0
C      1  0.4072480000000  0.5374970000000  0.5547870000000 1.0
C      1  0.3993130000000  0.5516270000000  0.4642260000000 1.0
C      1  0.4036810000000  0.4615150000000  0.4451250000000 1.0
C      1  0.3999200000000  0.4466440000000  0.5370670000000 1.0
C      1  0.4568450000000  0.6003240000000  0.4675530000000 1.0
C      1  0.4539560000000  0.4649160000000  0.3933960000000 1.0
C      1  0.4560220000000  0.4051730000000  0.5286490000000 1.0
C      1  0.4535950000000  0.5255640000000  0.6029370000000 1.0
C      1  0.5508160000000  0.5992650000000  0.4829750000000 1.0
C      1  0.5447560000000  0.4672390000000  0.4013080000000 1.0
C      1  0.5520220000000  0.3999780000000  0.5185740000000 1.0
C      1  0.5482960000000  0.5192010000000  0.5985190000000 1.0
C      1  0.4857270000000  0.4842040000000  0.6103610000000 1.0
C      1  0.4859970000000  0.6031300000000  0.5116910000000 1.0
C      1  0.4860480000000  0.5131910000000  0.3960950000000 1.0
C      1  0.4853070000000  0.3966380000000  0.4897880000000 1.0
C      1  0.5138100000000  0.4869460000000  0.6114310000000 1.0
C      1  0.5146140000000  0.6077860000000  0.5115640000000 1.0
C      1  0.5150680000000  0.5123050000000  0.3913610000000 1.0
C      1  0.5134080000000  0.3910730000000  0.4898110000000 1.0
C      1  0.5561850000000  0.5310330000000  0.5303400000000 1.0
C      1  0.5553150000000  0.5334980000000  0.4653680000000 1.0
C      1  0.5539900000000  0.4652440000000  0.4667500000000 1.0
C      1  0.5528420000000  0.4662610000000  0.5326510000000 1.0
C      1  0.4507130000000  0.5318300000000  0.5333740000000 1.0
C      1  0.4455430000000  0.5333310000000  0.4671350000000 1.0
C      1  0.4470780000000  0.4669820000000  0.4675890000000 1.0
C      1  0.4442010000000  0.4693610000000  0.5319700000000 1.0
C      1  0.5298850000000  0.5411540000000  0.5252220000000 1.0
C      1  0.5376640000000  0.5256060000000  0.4474130000000 1.0
C      1  0.5296610000000  0.4566250000000  0.4797050000000 1.0
C      1  0.5335600000000  0.4824990000000  0.5484060000000 1.0
C      1  0.4620230000000  0.5576180000000  0.5214430000000 1.0
C      1  0.4717200000000  0.5302070000000  0.4580910000000 1.0
C      1  0.4702310000000  0.4527390000000  0.4797750000000 1.0
C      1  0.4703040000000  0.4725880000000  0.5431250000000 1.0
C      1  0.4451860000000  0.5796350000000  0.4803890000000 1.0
C      1  0.4484150000000  0.4863380000000  0.4111700000000 1.0
C      1  0.4415140000000  0.4198570000000  0.5162920000000 1.0
C      1  0.4386300000000  0.5133250000000  0.5831070000000 1.0
C      1  0.5493530000000  0.5757740000000  0.4975450000000 1.0
C      1  0.5614460000000  0.4874480000000  0.4137420000000 1.0
C      1  0.5485030000000  0.4230940000000  0.5035390000000 1.0
C      1  0.5498000000000  0.5093700000000  0.5705760000000 1.0
C      1  0.6050330000000  0.5106290000000  0.4817290000000 1.0
C      1  0.6127960000000  0.4820970000000  0.4891500000000 1.0
C      1  0.6133880000000  0.4888680000000  0.5172250000000 1.0
C      1  0.6041150000000  0.5171880000000  0.5123310000000 1.0
C      1  0.3861570000000  0.5090420000000  0.4836460000000 1.0
C      1  0.3877060000000  0.4811500000000  0.4894440000000 1.0
C      1  0.3948120000000  0.4882160000000  0.5174330000000 1.0
C      1  0.3881950000000  0.5163100000000  0.5116010000000 1.0
C      1  0.4747700000000  0.6099560000000  0.4857120000000 1.0
C      1  0.4758360000000  0.4793100000000  0.4027720000000 1.0
C      1  0.4759670000000  0.3926500000000  0.5214370000000 1.0
C      1  0.4766880000000  0.5115560000000  0.6011720000000 1.0
C      1  0.5243290000000  0.6075100000000  0.4843950000000 1.0
C      1  0.5231160000000  0.4844450000000  0.3967270000000 1.0
C      1  0.5248350000000  0.3920800000000  0.5169960000000 1.0
C      1  0.5218840000000  0.5154100000000  0.6094530000000 1.0
C      1  0.4865680000000  0.4855140000000  0.5248730000000 1.0
C      1  0.4851000000000  0.5266360000000  0.5084880000000 1.0
C      1  0.4840720000000  0.5084880000000  0.4684580000000 1.0
C      1  0.4872370000000  0.4740750000000  0.4870950000000 1.0
C      1  0.5138510000000  0.4936420000000  0.5293590000000 1.0
C      1  0.5136940000000  0.5214640000000  0.5116280000000 1.0
C      1  0.5113450000000  0.5067240000000  0.4696340000000 1.0
C      1  0.5148530000000  0.4749760000000  0.4927300000000 1.0
C      1  0.4088230000000  0.5627610000000  0.4876880000000 1.0
C      1  0.4142390000000  0.4858620000000  0.4339900000000 1.0
C      1  0.4090730000000  0.4427440000000  0.5110580000000 1.0
C      1  0.4137820000000  0.5120810000000  0.5686330000000 1.0
C      1  0.5860950000000  0.5659730000000  0.4863980000000 1.0
C      1  0.5863620000000  0.4879840000000  0.4304390000000 1.0
C      1  0.5856250000000  0.4339640000000  0.5139600000000 1.0
C      1  0.5908330000000  0.5134850000000  0.5648310000000 1.0
C      1  0.5219630000000  0.5981130000000  0.5379450000000 1.0
C      1  0.5234690000000  0.5397150000000  0.4006620000000 1.0
C      1  0.5209860000000  0.4016040000000  0.4615340000000 1.0
C      1  0.5226120000000  0.4591510000000  0.5992820000000 1.0
C      1  0.4736960000000  0.6021430000000  0.5407910000000 1.0
C      1  0.4748170000000  0.5409890000000  0.3987730000000 1.0
C      1  0.4779570000000  0.4014060000000  0.4578780000000 1.0
C      1  0.4793240000000  0.4562630000000  0.5987560000000 1.0
C      1  0.5855610000000  0.4387260000000  0.4849130000000 1.0
C      1  0.5884960000000  0.4843360000000  0.5615810000000 1.0
C      1  0.5866180000000  0.5633420000000  0.5160950000000 1.0
C      1  0.5875100000000  0.5165830000000  0.4365390000000 1.0
C      1  0.4102680000000  0.4382890000000  0.4831380000000 1.0
C      1  0.4115040000000  0.4838980000000  0.5633810000000 1.0
C      1  0.4099660000000  0.5612420000000  0.5167950000000 1.0
C      1  0.4120580000000  0.5146490000000  0.4394550000000 1.0
C      1  0.4870170000000  0.4103290000000  0.5712010000000 1.0
C      1  0.4912470000000  0.5784660000000  0.5778480000000 1.0
C      1  0.4942700000000  0.5799590000000  0.4197640000000 1.0
C      1  0.4849750000000  0.4305030000000  0.4136170000000 1.0
C      1  0.5164200000000  0.4115600000000  0.5685150000000 1.0
C      1  0.5148640000000  0.5647190000000  0.5893900000000 1.0
C      1  0.5171640000000  0.5908590000000  0.4347130000000 1.0
C      1  0.5143450000000  0.4320680000000  0.4135490000000 1.0
C      1  0.4790730000000  0.5395220000000  0.6059440000000 1.0
C      1  0.4822660000000  0.6105050000000  0.4589710000000 1.0
C      1  0.4790860000000  0.4515500000000  0.3935690000000 1.0
C      1  0.4874340000000  0.3891420000000  0.5482470000000 1.0
C      1  0.5073400000000  0.5411040000000  0.6056860000000 1.0
C      1  0.5107760000000  0.6059570000000  0.4587530000000 1.0
C      1  0.5192800000000  0.4552820000000  0.3955570000000 1.0
C      1  0.5152770000000  0.3940380000000  0.5445850000000 1.0
C      1  0.5021080000000  0.4416060000000  0.5908550000000 1.0
C      1  0.4988440000000  0.5564870000000  0.4026570000000 1.0
C      1  0.5005600000000  0.4090790000000  0.4434450000000 1.0
C      1  0.4977150000000  0.5966830000000  0.5552030000000 1.0
C      1  0.5247700000000  0.5022600000000  0.4930340000000 1.0
C      1  0.4739460000000  0.4994570000000  0.5018580000000 1.0
END
