TITL C-2441168-9922-1422 9.04026664222976e-07 125000 -5378.84140218814 0 0 35 (C5v) n - 1
REM
REM in /home/bkarasulu/work/CARBON/AIRSS/Generating-Clusters/ReaxFF-fromJPCA2015/Units_Real/with-SteepDescent/Higher-Symm
REM
REM
REM
REM
REM
REM ./C.cell (1df0a924f5614ab8850e4351716899ee)
REM
REM compiler GCC version 9.2.1 20190827 (Red Hat 9.2.1-1)
REM options -cpp -mtune=generic -march=x86-64 -g -O0 -fpre-include=/usr/include/finclude/math-vector-fortran.h
REM seed -1135109835 397432663 338099770 -1993412524 -1748102234 -1632531050 -895584004 -1245299323 1173950444 -1094242980 -1818447788 -1044526769 653342104 1673151699 1288648742 1033665636 427102888 -2043643929 1226231713 1788886753 92785317 2079387755 1503478900 150170276 1497474184 -1325179171 15657529 -1193627687 884195061 1148483430 -1644379377 1398690659 1271047343
REM
CELL 1.54180   50.00000   50.00000   50.00000   90.00000   90.00000   90.00000
LATT -1
SFAC C  
C      1  0.4913670000000  0.4769690000000  0.5378170000000 1.0
C      1  0.4754280000000  0.5010940000000  0.5378170000000 1.0
C      1  0.4934470000000  0.5237070000000  0.5378160000000 1.0
C      1  0.5205220000000  0.5135580000000  0.5378170000000 1.0
C      1  0.5192360000000  0.4846720000000  0.5378170000000 1.0
C      1  0.5591870000000  0.4973660000000  0.4621940000000 1.0
C      1  0.5157840000000  0.4429010000000  0.4621930000000 1.0
C      1  0.4505690000000  0.4673440000000  0.4621940000000 1.0
C      1  0.4536660000000  0.5369180000000  0.4621940000000 1.0
C      1  0.5207940000000  0.5554710000000  0.4621930000000 1.0
C      1  0.5017520000000  0.4398970000000  0.5079210000000 1.0
C      1  0.4433790000000  0.4797600000000  0.5079220000000 1.0
C      1  0.4632540000000  0.5475940000000  0.5079210000000 1.0
C      1  0.5339100000000  0.5496540000000  0.5079210000000 1.0
C      1  0.5577040000000  0.4830940000000  0.5079220000000 1.0
C      1  0.5429780000000  0.5464100000000  0.4803090000000 1.0
C      1  0.5574210000000  0.4734680000000  0.4803090000000 1.0
C      1  0.4925100000000  0.4371930000000  0.4803080000000 1.0
C      1  0.4379500000000  0.4877150000000  0.4803100000000 1.0
C      1  0.4691420000000  0.5552150000000  0.4803080000000 1.0
C      1  0.4869100000000  0.5473570000000  0.5235300000000 1.0
C      1  0.5409940000000  0.5270840000000  0.5235300000000 1.0
C      1  0.5384260000000  0.4693820000000  0.5235300000000 1.0
C      1  0.4827540000000  0.4539930000000  0.5235300000000 1.0
C      1  0.4509150000000  0.5021850000000  0.5235300000000 1.0
C      1  0.5386850000000  0.4499560000000  0.4803090000000 1.0
C      1  0.4643580000000  0.4477450000000  0.4803090000000 1.0
C      1  0.4392870000000  0.5177490000000  0.4803090000000 1.0
C      1  0.4981190000000  0.5632240000000  0.4803080000000 1.0
C      1  0.5595510000000  0.5213270000000  0.4803090000000 1.0
C      1  0.5070850000000  0.5597090000000  0.5079200000000 1.0
C      1  0.5589780000000  0.5117130000000  0.5079220000000 1.0
C      1  0.5293650000000  0.4475300000000  0.5079210000000 1.0
C      1  0.4591710000000  0.4558580000000  0.5079210000000 1.0
C      1  0.4454010000000  0.5251900000000  0.5079210000000 1.0
END
