TITL C-2441160-1326-123 0.170150706092336 125000 -20680.9587584576 0 0 169 (C1) n - 1
REM
REM in /home/bkarasulu/work/CARBON/AIRSS/Generating-Clusters/ReaxFF-fromJPCA2015/Units_Real/with-SteepDescent/Higher-Symm
REM
REM
REM
REM
REM
REM ./C.cell (1df0a924f5614ab8850e4351716899ee)
REM
REM compiler GCC version 9.2.1 20190827 (Red Hat 9.2.1-1)
REM options -cpp -mtune=generic -march=x86-64 -g -O0 -fpre-include=/usr/include/finclude/math-vector-fortran.h
REM seed 1984080929 1019884251 314766692 -1351141696 1750920962 391179129 -1316540557 2083353068 1406866892 1918536370 1510364974 1026790457 1992366377 1943934030 -1038353217 -1136996510 -1000968005 -390126890 544379166 -770259699 1749076765 -1837964018 -950542766 1472069504 -1921784138 -43184915 -217495750 784018012 974860944 -1162586839 -337538573 1684223583 -1207080593
REM
CELL 1.54180   50.00000   50.00000   50.00000   90.00000   90.00000   90.00000
LATT -1
SFAC C  
C      1  0.4823980000000  0.4388870000000  0.5755110000000 1.0
C      1  0.5509860000000  0.4405590000000  0.5612920000000 1.0
C      1  0.5764210000000  0.4388230000000  0.4954430000000 1.0
C      1  0.5482980000000  0.4395630000000  0.4385010000000 1.0
C      1  0.4792060000000  0.4390990000000  0.4264900000000 1.0
C      1  0.4292600000000  0.4380630000000  0.4653100000000 1.0
C      1  0.4295220000000  0.4394050000000  0.5339650000000 1.0
C      1  0.5418990000000  0.5673320000000  0.5478990000000 1.0
C      1  0.5600620000000  0.5722980000000  0.4920790000000 1.0
C      1  0.5455450000000  0.5690000000000  0.4430710000000 1.0
C      1  0.4853570000000  0.5682520000000  0.4431580000000 1.0
C      1  0.4416710000000  0.5658050000000  0.4773800000000 1.0
C      1  0.4349650000000  0.5685260000000  0.5322630000000 1.0
C      1  0.4882480000000  0.5676800000000  0.5578880000000 1.0
C      1  0.4432170000000  0.4893360000000  0.4975730000000 1.0
C      1  0.4599800000000  0.4944320000000  0.5442880000000 1.0
C      1  0.5128600000000  0.4818360000000  0.5588940000000 1.0
C      1  0.5522450000000  0.4900940000000  0.5282070000000 1.0
C      1  0.5539030000000  0.4811360000000  0.4746330000000 1.0
C      1  0.5143790000000  0.4847660000000  0.4439520000000 1.0
C      1  0.4643040000000  0.4807550000000  0.4545740000000 1.0
C      1  0.4505830000000  0.5312480000000  0.4553090000000 1.0
C      1  0.4321850000000  0.5275210000000  0.5126610000000 1.0
C      1  0.4629760000000  0.5266830000000  0.5587480000000 1.0
C      1  0.5240320000000  0.5303530000000  0.5588520000000 1.0
C      1  0.5615980000000  0.5394470000000  0.5141440000000 1.0
C      1  0.5596130000000  0.5283150000000  0.4597640000000 1.0
C      1  0.5090510000000  0.5297120000000  0.4327080000000 1.0
C      1  0.4508870000000  0.4741030000000  0.5956640000000 1.0
C      1  0.5391710000000  0.4732030000000  0.5989050000000 1.0
C      1  0.6045230000000  0.4737620000000  0.5261850000000 1.0
C      1  0.5874320000000  0.4740290000000  0.4335200000000 1.0
C      1  0.5016250000000  0.4750840000000  0.3930480000000 1.0
C      1  0.4165510000000  0.4772170000000  0.4351040000000 1.0
C      1  0.3917680000000  0.4739440000000  0.5227620000000 1.0
C      1  0.5457480000000  0.4875620000000  0.4059710000000 1.0
C      1  0.4505600000000  0.4834370000000  0.4088580000000 1.0
C      1  0.3994450000000  0.4847160000000  0.4835550000000 1.0
C      1  0.4166200000000  0.4882240000000  0.5646230000000 1.0
C      1  0.5120590000000  0.4832200000000  0.6053470000000 1.0
C      1  0.5837780000000  0.4842340000000  0.5676500000000 1.0
C      1  0.6000860000000  0.4838210000000  0.4754620000000 1.0
C      1  0.4934270000000  0.5158000000000  0.5264800000000 1.0
C      1  0.5196050000000  0.5268820000000  0.5279920000000 1.0
C      1  0.5279310000000  0.5159460000000  0.4975750000000 1.0
C      1  0.5160020000000  0.5224590000000  0.4715470000000 1.0
C      1  0.4898810000000  0.5122090000000  0.4727110000000 1.0
C      1  0.4671510000000  0.5252800000000  0.4788740000000 1.0
C      1  0.4681170000000  0.5235640000000  0.5133780000000 1.0
C      1  0.5092950000000  0.4767510000000  0.4709790000000 1.0
C      1  0.4841440000000  0.4865190000000  0.4761360000000 1.0
C      1  0.4700890000000  0.4773990000000  0.5005040000000 1.0
C      1  0.4783300000000  0.4798310000000  0.5275480000000 1.0
C      1  0.5035350000000  0.4888190000000  0.5311200000000 1.0
C      1  0.5288000000000  0.4798760000000  0.5165570000000 1.0
C      1  0.5296060000000  0.4877560000000  0.4895430000000 1.0
C      1  0.6060300000000  0.5018490000000  0.5310130000000 1.0
C      1  0.5883890000000  0.5025250000000  0.4350780000000 1.0
C      1  0.5055610000000  0.5041030000000  0.3905860000000 1.0
C      1  0.4149580000000  0.5172290000000  0.4208640000000 1.0
C      1  0.3897810000000  0.5031840000000  0.5199420000000 1.0
C      1  0.4480950000000  0.5032810000000  0.5972220000000 1.0
C      1  0.5464720000000  0.5135360000000  0.6065200000000 1.0
C      1  0.5385410000000  0.5959650000000  0.5447560000000 1.0
C      1  0.5473750000000  0.5978350000000  0.4965370000000 1.0
C      1  0.5368250000000  0.5954270000000  0.4503330000000 1.0
C      1  0.4878160000000  0.5967160000000  0.4508280000000 1.0
C      1  0.4472720000000  0.5935640000000  0.4817460000000 1.0
C      1  0.4440090000000  0.5939330000000  0.5245620000000 1.0
C      1  0.4898570000000  0.5960760000000  0.5496210000000 1.0
C      1  0.5226560000000  0.5564020000000  0.4304090000000 1.0
C      1  0.4579570000000  0.5554630000000  0.4402130000000 1.0
C      1  0.4262100000000  0.5555520000000  0.5012280000000 1.0
C      1  0.4504940000000  0.5552710000000  0.5533960000000 1.0
C      1  0.5122700000000  0.5543520000000  0.5713450000000 1.0
C      1  0.5663260000000  0.5538430000000  0.5387200000000 1.0
C      1  0.5660720000000  0.5573300000000  0.4660270000000 1.0
C      1  0.4734780000000  0.4373060000000  0.5211270000000 1.0
C      1  0.4978140000000  0.4351200000000  0.5332060000000 1.0
C      1  0.5291980000000  0.4526830000000  0.5130020000000 1.0
C      1  0.5297470000000  0.4411860000000  0.4883920000000 1.0
C      1  0.5097890000000  0.4501960000000  0.4725740000000 1.0
C      1  0.4833050000000  0.4407550000000  0.4763460000000 1.0
C      1  0.4647180000000  0.4492230000000  0.4960870000000 1.0
C      1  0.4100170000000  0.5041160000000  0.4456840000000 1.0
C      1  0.4033790000000  0.5070420000000  0.5453740000000 1.0
C      1  0.4764390000000  0.5075900000000  0.5934050000000 1.0
C      1  0.5622260000000  0.5078600000000  0.5847010000000 1.0
C      1  0.5937510000000  0.5089370000000  0.5056650000000 1.0
C      1  0.5654420000000  0.5065090000000  0.4185440000000 1.0
C      1  0.4824510000000  0.5091520000000  0.4063730000000 1.0
C      1  0.5185630000000  0.4135100000000  0.5334210000000 1.0
C      1  0.5375790000000  0.4096210000000  0.5112010000000 1.0
C      1  0.5316750000000  0.4125330000000  0.4806960000000 1.0
C      1  0.5036380000000  0.4085990000000  0.4621970000000 1.0
C      1  0.4751700000000  0.4112290000000  0.4735120000000 1.0
C      1  0.4597870000000  0.4059150000000  0.5029490000000 1.0
C      1  0.4704210000000  0.4084690000000  0.5297680000000 1.0
C      1  0.5186200000000  0.5124990000000  0.6018900000000 1.0
C      1  0.5910550000000  0.5093790000000  0.5542110000000 1.0
C      1  0.5878610000000  0.5143720000000  0.4631550000000 1.0
C      1  0.5256860000000  0.5168340000000  0.4091480000000 1.0
C      1  0.4425770000000  0.5119730000000  0.4157030000000 1.0
C      1  0.4045180000000  0.5136970000000  0.4957330000000 1.0
C      1  0.4359030000000  0.5157270000000  0.5733500000000 1.0
C      1  0.5423960000000  0.4858020000000  0.4484540000000 1.0
C      1  0.4863770000000  0.4902320000000  0.4315570000000 1.0
C      1  0.4396450000000  0.4879780000000  0.4689890000000 1.0
C      1  0.4382440000000  0.4874980000000  0.5260470000000 1.0
C      1  0.4861450000000  0.4884430000000  0.5726640000000 1.0
C      1  0.5418800000000  0.4889530000000  0.5553070000000 1.0
C      1  0.5698870000000  0.4910080000000  0.5042870000000 1.0
C      1  0.4359430000000  0.4218890000000  0.5109820000000 1.0
C      1  0.4661660000000  0.4241400000000  0.5572230000000 1.0
C      1  0.5274030000000  0.4251920000000  0.5586200000000 1.0
C      1  0.5624570000000  0.4243290000000  0.5158940000000 1.0
C      1  0.5553670000000  0.4254210000000  0.4622950000000 1.0
C      1  0.5022220000000  0.4251140000000  0.4375070000000 1.0
C      1  0.4519630000000  0.4251460000000  0.4545750000000 1.0
C      1  0.5288180000000  0.5952210000000  0.4768550000000 1.0
C      1  0.5125460000000  0.6073630000000  0.4597470000000 1.0
C      1  0.4743920000000  0.5965400000000  0.4757460000000 1.0
C      1  0.4654630000000  0.6082260000000  0.5006880000000 1.0
C      1  0.4718560000000  0.5952420000000  0.5271420000000 1.0
C      1  0.5136060000000  0.6080700000000  0.5384120000000 1.0
C      1  0.5312240000000  0.5986000000000  0.5189050000000 1.0
C      1  0.4221810000000  0.5280320000000  0.4599650000000 1.0
C      1  0.4185240000000  0.5300570000000  0.5385330000000 1.0
C      1  0.4775210000000  0.5338730000000  0.5838340000000 1.0
C      1  0.5518160000000  0.5278720000000  0.5676460000000 1.0
C      1  0.5871660000000  0.5369220000000  0.5007150000000 1.0
C      1  0.5574800000000  0.5300410000000  0.4309020000000 1.0
C      1  0.4856870000000  0.5350120000000  0.4148300000000 1.0
C      1  0.5231250000000  0.4444880000000  0.4276560000000 1.0
C      1  0.4584410000000  0.4483490000000  0.4401620000000 1.0
C      1  0.4254740000000  0.4418990000000  0.4926730000000 1.0
C      1  0.4458800000000  0.4443470000000  0.5557480000000 1.0
C      1  0.5109070000000  0.4469800000000  0.5704890000000 1.0
C      1  0.5686500000000  0.4413250000000  0.5401160000000 1.0
C      1  0.5681430000000  0.4490240000000  0.4721590000000 1.0
C      1  0.5039890000000  0.5380370000000  0.5940130000000 1.0
C      1  0.5771180000000  0.5346950000000  0.5569480000000 1.0
C      1  0.5937030000000  0.5421640000000  0.4733010000000 1.0
C      1  0.5406860000000  0.5432250000000  0.4109030000000 1.0
C      1  0.4574410000000  0.5389120000000  0.4158780000000 1.0
C      1  0.4079870000000  0.5407720000000  0.4817950000000 1.0
C      1  0.4255930000000  0.5433620000000  0.5640490000000 1.0
C      1  0.5196480000000  0.5503400000000  0.4772060000000 1.0
C      1  0.4942950000000  0.5601220000000  0.4694420000000 1.0
C      1  0.4705780000000  0.5541140000000  0.4842760000000 1.0
C      1  0.4740970000000  0.5512750000000  0.5134910000000 1.0
C      1  0.4940710000000  0.5598750000000  0.5306180000000 1.0
C      1  0.5220540000000  0.5555060000000  0.5262160000000 1.0
C      1  0.5373620000000  0.5546250000000  0.5009990000000 1.0
C      1  0.4002400000000  0.4608770000000  0.4984520000000 1.0
C      1  0.4349410000000  0.4669920000000  0.5731410000000 1.0
C      1  0.5184050000000  0.4559600000000  0.5977490000000 1.0
C      1  0.5873950000000  0.4638100000000  0.5464410000000 1.0
C      1  0.5937970000000  0.4622850000000  0.4586980000000 1.0
C      1  0.5251060000000  0.4659280000000  0.4062350000000 1.0
C      1  0.4365970000000  0.4628690000000  0.4212560000000 1.0
C      1  0.4788640000000  0.4653380000000  0.5895500000000 1.0
C      1  0.5542720000000  0.4694490000000  0.5736700000000 1.0
C      1  0.5913950000000  0.4681120000000  0.4999380000000 1.0
C      1  0.5581730000000  0.4684670000000  0.4299830000000 1.0
C      1  0.4780980000000  0.4678750000000  0.4107810000000 1.0
C      1  0.4179170000000  0.4676480000000  0.4617150000000 1.0
C      1  0.4178430000000  0.4680930000000  0.5363680000000 1.0
C      1  0.5044880000000  0.4506380000000  0.5171660000000 1.0
END
