TITL C-2441168-9922-187 0.0665098657399989 125000 -18809.8702989987 0 0 141 (C1) n - 1
REM
REM in /home/bkarasulu/work/CARBON/AIRSS/Generating-Clusters/ReaxFF-fromJPCA2015/Units_Real/with-SteepDescent/Higher-Symm
REM
REM
REM
REM
REM
REM ./C.cell (1df0a924f5614ab8850e4351716899ee)
REM
REM compiler GCC version 9.2.1 20190827 (Red Hat 9.2.1-1)
REM options -cpp -mtune=generic -march=x86-64 -g -O0 -fpre-include=/usr/include/finclude/math-vector-fortran.h
REM seed 374855368 -622983907 306057576 2046197643 1583313967 -1765635675 1181693489 -2002207762 958090622 -256761999 -1098967298 -507405646 -178294619 401981649 -1721616937 443538479 -2066422973 -893647725 -632630856 -296649715 -1332301662 1045798500 -1504012723 624967756 -237534273 1798602673 1671622527 1600757258 -1265686435 1810307022 -1967993802 -517237359 -1452591776
REM
CELL 1.54180   50.00000   50.00000   50.00000   90.00000   90.00000   90.00000
LATT -1
SFAC C  
C      1  0.4688460000000  0.4150810000000  0.4442780000000 1.0
C      1  0.5876500000000  0.5146390000000  0.4463930000000 1.0
C      1  0.4407010000000  0.5731770000000  0.4474400000000 1.0
C      1  0.4666300000000  0.4139160000000  0.5533640000000 1.0
C      1  0.5912330000000  0.5141990000000  0.5564570000000 1.0
C      1  0.4423890000000  0.5695550000000  0.5544730000000 1.0
C      1  0.4676270000000  0.5860380000000  0.4462900000000 1.0
C      1  0.5885740000000  0.4851330000000  0.4461940000000 1.0
C      1  0.4433090000000  0.4290930000000  0.4442670000000 1.0
C      1  0.4662650000000  0.5869500000000  0.5545320000000 1.0
C      1  0.5915370000000  0.4853130000000  0.5566530000000 1.0
C      1  0.4425580000000  0.4306990000000  0.5541980000000 1.0
C      1  0.4166540000000  0.4725090000000  0.5376940000000 1.0
C      1  0.5651100000000  0.4394670000000  0.5415900000000 1.0
C      1  0.5176580000000  0.5896870000000  0.5401480000000 1.0
C      1  0.4137630000000  0.4741200000000  0.4590880000000 1.0
C      1  0.5661820000000  0.4413360000000  0.4626510000000 1.0
C      1  0.5179460000000  0.5844560000000  0.4599560000000 1.0
C      1  0.4148910000000  0.5270420000000  0.5400440000000 1.0
C      1  0.5646740000000  0.5598320000000  0.5409490000000 1.0
C      1  0.5182030000000  0.4126930000000  0.5401630000000 1.0
C      1  0.4143710000000  0.5291350000000  0.4604110000000 1.0
C      1  0.5661710000000  0.5591410000000  0.4618020000000 1.0
C      1  0.5207890000000  0.4119020000000  0.4604290000000 1.0
C      1  0.4431810000000  0.4336130000000  0.5248780000000 1.0
C      1  0.5984190000000  0.4849820000000  0.5283670000000 1.0
C      1  0.4641810000000  0.5887130000000  0.5249010000000 1.0
C      1  0.4408700000000  0.4238730000000  0.4727580000000 1.0
C      1  0.5859530000000  0.4851180000000  0.4757670000000 1.0
C      1  0.4693400000000  0.5853480000000  0.4750960000000 1.0
C      1  0.4422680000000  0.5684610000000  0.5257540000000 1.0
C      1  0.5982320000000  0.5142100000000  0.5281860000000 1.0
C      1  0.4647590000000  0.4130250000000  0.5240690000000 1.0
C      1  0.4418970000000  0.5755890000000  0.4769370000000 1.0
C      1  0.5847250000000  0.5148640000000  0.4755070000000 1.0
C      1  0.4686700000000  0.4150820000000  0.4732940000000 1.0
C      1  0.4970560000000  0.4226070000000  0.5585790000000 1.0
C      1  0.5650230000000  0.5367800000000  0.5611880000000 1.0
C      1  0.4355300000000  0.5378430000000  0.5607330000000 1.0
C      1  0.5020930000000  0.4227440000000  0.4382020000000 1.0
C      1  0.5655970000000  0.5357870000000  0.4403540000000 1.0
C      1  0.4329350000000  0.5437010000000  0.4424500000000 1.0
C      1  0.4958430000000  0.5800740000000  0.5588560000000 1.0
C      1  0.5651240000000  0.4626920000000  0.5611260000000 1.0
C      1  0.4374050000000  0.4615950000000  0.5592800000000 1.0
C      1  0.4987670000000  0.5736570000000  0.4396560000000 1.0
C      1  0.5667960000000  0.4638250000000  0.4402850000000 1.0
C      1  0.4345410000000  0.4620980000000  0.4385510000000 1.0
C      1  0.5054540000000  0.5345850000000  0.5539070000000 1.0
C      1  0.4815360000000  0.4871440000000  0.5547520000000 1.0
C      1  0.5253090000000  0.4816700000000  0.5424030000000 1.0
C      1  0.4934590000000  0.5244060000000  0.4434160000000 1.0
C      1  0.4731910000000  0.4850710000000  0.4540650000000 1.0
C      1  0.5204330000000  0.4849850000000  0.4491290000000 1.0
C      1  0.5049710000000  0.4677600000000  0.5546840000000 1.0
C      1  0.4804200000000  0.5151690000000  0.5535170000000 1.0
C      1  0.5263750000000  0.5207980000000  0.5415490000000 1.0
C      1  0.4968080000000  0.4699030000000  0.4414970000000 1.0
C      1  0.4670100000000  0.5130800000000  0.4454440000000 1.0
C      1  0.5182530000000  0.5134580000000  0.4498230000000 1.0
C      1  0.4885870000000  0.4379390000000  0.4830220000000 1.0
C      1  0.5610710000000  0.5235220000000  0.4903920000000 1.0
C      1  0.4414200000000  0.5467440000000  0.4869140000000 1.0
C      1  0.4892060000000  0.4260910000000  0.5122450000000 1.0
C      1  0.5718640000000  0.5270300000000  0.5171090000000 1.0
C      1  0.4488120000000  0.5401450000000  0.5154280000000 1.0
C      1  0.4929780000000  0.5688910000000  0.4897820000000 1.0
C      1  0.5619510000000  0.4769750000000  0.4902440000000 1.0
C      1  0.4404760000000  0.4538010000000  0.4836130000000 1.0
C      1  0.4852250000000  0.5698790000000  0.5174140000000 1.0
C      1  0.5721040000000  0.4721520000000  0.5172470000000 1.0
C      1  0.4490370000000  0.4596510000000  0.5116960000000 1.0
C      1  0.5132230000000  0.5493780000000  0.5779240000000 1.0
C      1  0.4479500000000  0.4858670000000  0.5819130000000 1.0
C      1  0.5398220000000  0.4612080000000  0.5814480000000 1.0
C      1  0.5142040000000  0.5511680000000  0.4177440000000 1.0
C      1  0.4477430000000  0.4840280000000  0.4178460000000 1.0
C      1  0.5410850000000  0.4601040000000  0.4173620000000 1.0
C      1  0.5135080000000  0.4468220000000  0.5807410000000 1.0
C      1  0.4482720000000  0.5145960000000  0.5819290000000 1.0
C      1  0.5400500000000  0.5369830000000  0.5814630000000 1.0
C      1  0.5169450000000  0.4442810000000  0.4173670000000 1.0
C      1  0.4507570000000  0.5134080000000  0.4219130000000 1.0
C      1  0.5392940000000  0.5373050000000  0.4177450000000 1.0
C      1  0.4722180000000  0.4840000000000  0.4028220000000 1.0
C      1  0.5273840000000  0.4829200000000  0.4052360000000 1.0
C      1  0.5012790000000  0.5283980000000  0.4035800000000 1.0
C      1  0.4739530000000  0.4848070000000  0.5960920000000 1.0
C      1  0.5270350000000  0.4838310000000  0.5945410000000 1.0
C      1  0.5013860000000  0.5287700000000  0.5956860000000 1.0
C      1  0.4744890000000  0.5130900000000  0.4036580000000 1.0
C      1  0.5270820000000  0.5137670000000  0.4046170000000 1.0
C      1  0.5009050000000  0.4679130000000  0.4080510000000 1.0
C      1  0.4745970000000  0.5145410000000  0.5960590000000 1.0
C      1  0.5275210000000  0.5150750000000  0.5955260000000 1.0
C      1  0.5008230000000  0.4699050000000  0.5947950000000 1.0
C      1  0.4697700000000  0.5146830000000  0.5092120000000 1.0
C      1  0.4926110000000  0.4741700000000  0.5121850000000 1.0
C      1  0.5178380000000  0.5145580000000  0.5176200000000 1.0
C      1  0.4808530000000  0.5150130000000  0.4817700000000 1.0
C      1  0.5009320000000  0.4695470000000  0.4869400000000 1.0
C      1  0.5333240000000  0.5162160000000  0.4911510000000 1.0
C      1  0.4655640000000  0.4827790000000  0.5151730000000 1.0
C      1  0.4955260000000  0.5286340000000  0.5146540000000 1.0
C      1  0.5170730000000  0.4865520000000  0.5177030000000 1.0
C      1  0.4864550000000  0.4897530000000  0.4759070000000 1.0
C      1  0.5023370000000  0.5359670000000  0.4872750000000 1.0
C      1  0.5344220000000  0.4859280000000  0.4910140000000 1.0
C      1  0.5484750000000  0.4860910000000  0.4485570000000 1.0
C      1  0.4843930000000  0.5492460000000  0.4488440000000 1.0
C      1  0.4532590000000  0.4655030000000  0.4600820000000 1.0
C      1  0.5533080000000  0.4829390000000  0.5422060000000 1.0
C      1  0.4911930000000  0.5564880000000  0.5422000000000 1.0
C      1  0.4653470000000  0.4642820000000  0.5506780000000 1.0
C      1  0.5472650000000  0.5145670000000  0.4501430000000 1.0
C      1  0.4943130000000  0.4449280000000  0.4548280000000 1.0
C      1  0.4577820000000  0.5374220000000  0.4569710000000 1.0
C      1  0.5534430000000  0.5165830000000  0.5420710000000 1.0
C      1  0.4875960000000  0.4470010000000  0.5430210000000 1.0
C      1  0.4601140000000  0.5334950000000  0.5448470000000 1.0
C      1  0.5770390000000  0.4373170000000  0.4882850000000 1.0
C      1  0.5096050000000  0.5943830000000  0.4859770000000 1.0
C      1  0.4087460000000  0.4602820000000  0.4841080000000 1.0
C      1  0.5799050000000  0.4416870000000  0.5166650000000 1.0
C      1  0.5163160000000  0.5992650000000  0.5135650000000 1.0
C      1  0.4070650000000  0.4646230000000  0.5123980000000 1.0
C      1  0.5772580000000  0.5620620000000  0.4876010000000 1.0
C      1  0.5165930000000  0.4018620000000  0.4861910000000 1.0
C      1  0.4113000000000  0.5415190000000  0.4865860000000 1.0
C      1  0.5797350000000  0.5574650000000  0.5161200000000 1.0
C      1  0.5086270000000  0.4033280000000  0.5139880000000 1.0
C      1  0.4065670000000  0.5354060000000  0.5143580000000 1.0
C      1  0.5388320000000  0.4318180000000  0.5294630000000 1.0
C      1  0.5382610000000  0.4348350000000  0.4721830000000 1.0
C      1  0.5384680000000  0.5680260000000  0.5295070000000 1.0
C      1  0.4238540000000  0.4999630000000  0.5279810000000 1.0
C      1  0.5386390000000  0.5665250000000  0.4720310000000 1.0
C      1  0.4206450000000  0.5012370000000  0.4706720000000 1.0
C      1  0.5369650000000  0.4356080000000  0.5010000000000 1.0
C      1  0.5373320000000  0.5654290000000  0.5009680000000 1.0
C      1  0.4246450000000  0.5006070000000  0.4989600000000 1.0
END
