TITL C-2441158-471-1500 -1.65812834928082e-07 125000 -4842.271281143 0 0 35 (C5) n - 1
REM
REM in /home/bkarasulu/work/CARBON/AIRSS/Generating-Clusters/ReaxFF-fromJPCA2015/Units_Real/with-SteepDescent/Higher-Symm
REM
REM
REM
REM
REM
REM ./C.cell (1df0a924f5614ab8850e4351716899ee)
REM
REM compiler GCC version 9.2.1 20190827 (Red Hat 9.2.1-1)
REM options -cpp -mtune=generic -march=x86-64 -g -O0 -fpre-include=/usr/include/finclude/math-vector-fortran.h
REM seed 848928232 555415313 -2003691328 -100384704 -704560173 -1263453800 1833331516 -352692219 1297464133 863377443 -602764594 -812423218 -1820053020 -641741605 182934553 1286902368 184148913 933708653 1408034263 -1971856305 1505872303 391879052 -1874469742 1368297538 425524953 -497978410 1299059052 1618826352 -308471144 -927756257 1417582718 -960284706 -812608177
REM
CELL 1.54180   50.00000   50.00000   50.00000   90.00000   90.00000   90.00000
LATT -1
SFAC C  
C      1  0.5559490000000  0.4789380000000  0.4639010000000 1.0
C      1  0.4829630000000  0.4789120000000  0.4356410000000 1.0
C      1  0.4335320000000  0.4788920000000  0.4963230000000 1.0
C      1  0.4759690000000  0.4789050000000  0.5620850000000 1.0
C      1  0.5516260000000  0.4789340000000  0.5420470000000 1.0
C      1  0.5161980000000  0.4480860000000  0.4815010000000 1.0
C      1  0.4874260000000  0.4480760000000  0.4788950000000 1.0
C      1  0.4760570000000  0.4480710000000  0.5054540000000 1.0
C      1  0.4978020000000  0.4480780000000  0.5244740000000 1.0
C      1  0.5226110000000  0.4480880000000  0.5096700000000 1.0
C      1  0.4700470000000  0.5571970000000  0.5334770000000 1.0
C      1  0.5225670000000  0.5572170000000  0.5388130000000 1.0
C      1  0.5438710000000  0.5572260000000  0.4905130000000 1.0
C      1  0.5045180000000  0.5572120000000  0.4553260000000 1.0
C      1  0.4588920000000  0.5571950000000  0.4818790000000 1.0
C      1  0.5366390000000  0.5431510000000  0.5161730000000 1.0
C      1  0.5266920000000  0.5431490000000  0.4701380000000 1.0
C      1  0.4798350000000  0.5431320000000  0.4653720000000 1.0
C      1  0.4608240000000  0.5431230000000  0.5084630000000 1.0
C      1  0.4959310000000  0.5431350000000  0.5398600000000 1.0
C      1  0.5184580000000  0.5152860000000  0.4793830000000 1.0
C      1  0.4860920000000  0.5152740000000  0.4760690000000 1.0
C      1  0.4729380000000  0.5152690000000  0.5058270000000 1.0
C      1  0.4971750000000  0.5152770000000  0.5275330000000 1.0
C      1  0.5253080000000  0.5152880000000  0.5111900000000 1.0
C      1  0.4508260000000  0.4938420000000  0.5115610000000 1.0
C      1  0.4958020000000  0.4938570000000  0.5503420000000 1.0
C      1  0.5465820000000  0.4938770000000  0.5195510000000 1.0
C      1  0.5329910000000  0.4938740000000  0.4617410000000 1.0
C      1  0.4738100000000  0.4938520000000  0.4568030000000 1.0
C      1  0.5463630000000  0.4635340000000  0.5190280000000 1.0
C      1  0.5324340000000  0.4635310000000  0.4617980000000 1.0
C      1  0.4737010000000  0.4635090000000  0.4573610000000 1.0
C      1  0.4513310000000  0.4634990000000  0.5118480000000 1.0
C      1  0.4962390000000  0.4635150000000  0.5499600000000 1.0
END
