TITL C-2441168-9922-1381 0.213923326914576 125000 -17288.9187001578 0 0 154 (C1) n - 1
REM
REM in /home/bkarasulu/work/CARBON/AIRSS/Generating-Clusters/ReaxFF-fromJPCA2015/Units_Real/with-SteepDescent/Higher-Symm
REM
REM
REM
REM
REM
REM ./C.cell (1df0a924f5614ab8850e4351716899ee)
REM
REM compiler GCC version 9.2.1 20190827 (Red Hat 9.2.1-1)
REM options -cpp -mtune=generic -march=x86-64 -g -O0 -fpre-include=/usr/include/finclude/math-vector-fortran.h
REM seed 733964070 848321301 -1126112060 -1394272774 1216339130 540486985 1556570865 166258826 -394745471 -1134765606 122850803 -389637842 990865097 670122569 1945218510 136650207 1918271214 -1796046445 -483978952 -153311848 -880382019 1997601823 569066219 -262880469 -1860763028 -1871454511 -301430183 -1406290900 -1814568913 1136192698 1574936237 484501305 -339146984
REM
CELL 1.54180   50.00000   50.00000   50.00000   90.00000   90.00000   90.00000
LATT -1
SFAC C  
C      1  0.5242950000000  0.5800580000000  0.5537710000000 1.0
C      1  0.5207260000000  0.5633700000000  0.4250660000000 1.0
C      1  0.4118280000000  0.4885970000000  0.5165160000000 1.0
C      1  0.5062760000000  0.5142530000000  0.4081870000000 1.0
C      1  0.5720630000000  0.4787680000000  0.4372960000000 1.0
C      1  0.5434390000000  0.4729490000000  0.4338630000000 1.0
C      1  0.4761180000000  0.5527620000000  0.4689710000000 1.0
C      1  0.4714330000000  0.5399980000000  0.4144240000000 1.0
C      1  0.4421740000000  0.5460010000000  0.5008840000000 1.0
C      1  0.5173630000000  0.5508460000000  0.4947030000000 1.0
C      1  0.5468350000000  0.5592450000000  0.4353380000000 1.0
C      1  0.5715280000000  0.5123790000000  0.5208030000000 1.0
C      1  0.5279210000000  0.5987800000000  0.5107240000000 1.0
C      1  0.4292840000000  0.5467570000000  0.5586550000000 1.0
C      1  0.5301870000000  0.4992580000000  0.3994050000000 1.0
C      1  0.4564170000000  0.5803500000000  0.5225920000000 1.0
C      1  0.4199040000000  0.4559810000000  0.4305460000000 1.0
C      1  0.4276580000000  0.5037730000000  0.5505820000000 1.0
C      1  0.4390010000000  0.5666320000000  0.4592940000000 1.0
C      1  0.5311500000000  0.4986410000000  0.5380950000000 1.0
C      1  0.5728670000000  0.5500480000000  0.4424130000000 1.0
C      1  0.5366770000000  0.5764090000000  0.5278850000000 1.0
C      1  0.5023820000000  0.5091130000000  0.6004640000000 1.0
C      1  0.4881410000000  0.5164280000000  0.5499820000000 1.0
C      1  0.5055800000000  0.4928020000000  0.4926210000000 1.0
C      1  0.5580210000000  0.5015030000000  0.5853900000000 1.0
C      1  0.4811590000000  0.5226460000000  0.4983820000000 1.0
C      1  0.4104200000000  0.4928590000000  0.4656310000000 1.0
C      1  0.4563780000000  0.4247160000000  0.4483320000000 1.0
C      1  0.4479350000000  0.5426820000000  0.4312680000000 1.0
C      1  0.4915410000000  0.4487570000000  0.4140740000000 1.0
C      1  0.5318900000000  0.5021990000000  0.5991630000000 1.0
C      1  0.4887410000000  0.5877570000000  0.5168560000000 1.0
C      1  0.4901840000000  0.5588260000000  0.4272960000000 1.0
C      1  0.4129710000000  0.5427400000000  0.5350570000000 1.0
C      1  0.5260900000000  0.5271060000000  0.5338440000000 1.0
C      1  0.4896890000000  0.4936510000000  0.5285110000000 1.0
C      1  0.3965150000000  0.4957890000000  0.4925200000000 1.0
C      1  0.3959690000000  0.5242950000000  0.4921240000000 1.0
C      1  0.5001850000000  0.4272330000000  0.5480680000000 1.0
C      1  0.5491040000000  0.5012180000000  0.4722750000000 1.0
C      1  0.5386440000000  0.5235170000000  0.4592860000000 1.0
C      1  0.5028620000000  0.4888590000000  0.4451260000000 1.0
C      1  0.5046320000000  0.4139580000000  0.4795680000000 1.0
C      1  0.5713930000000  0.5217740000000  0.4317310000000 1.0
C      1  0.5545760000000  0.5872820000000  0.5042240000000 1.0
C      1  0.4776940000000  0.4052070000000  0.4521760000000 1.0
C      1  0.4601920000000  0.5082520000000  0.5018460000000 1.0
C      1  0.5331460000000  0.4692800000000  0.4072120000000 1.0
C      1  0.4155420000000  0.4428320000000  0.5164280000000 1.0
C      1  0.5069790000000  0.4141980000000  0.4519980000000 1.0
C      1  0.5338680000000  0.4947040000000  0.4935570000000 1.0
C      1  0.5613050000000  0.4344820000000  0.5532260000000 1.0
C      1  0.5236520000000  0.4584210000000  0.5221090000000 1.0
C      1  0.4600950000000  0.5333430000000  0.4555650000000 1.0
C      1  0.4870710000000  0.4297790000000  0.5215450000000 1.0
C      1  0.5761330000000  0.4538240000000  0.4513870000000 1.0
C      1  0.5893220000000  0.5442500000000  0.4988900000000 1.0
C      1  0.4436340000000  0.4758580000000  0.5162690000000 1.0
C      1  0.5819950000000  0.4432460000000  0.5337570000000 1.0
C      1  0.5879040000000  0.4841140000000  0.5495300000000 1.0
C      1  0.5008780000000  0.5402190000000  0.5412970000000 1.0
C      1  0.4984970000000  0.5513710000000  0.5731030000000 1.0
C      1  0.4988950000000  0.4473830000000  0.4540650000000 1.0
C      1  0.5462020000000  0.4561990000000  0.5649610000000 1.0
C      1  0.5678960000000  0.5414480000000  0.5187170000000 1.0
C      1  0.4732750000000  0.4909480000000  0.4074740000000 1.0
C      1  0.4805440000000  0.4001320000000  0.4807690000000 1.0
C      1  0.5672130000000  0.4316090000000  0.5136520000000 1.0
C      1  0.4456940000000  0.4456270000000  0.5181620000000 1.0
C      1  0.5263220000000  0.4137640000000  0.5472190000000 1.0
C      1  0.5272830000000  0.4213600000000  0.5207420000000 1.0
C      1  0.5038000000000  0.5065460000000  0.5719250000000 1.0
C      1  0.4750480000000  0.5577130000000  0.5845850000000 1.0
C      1  0.4704860000000  0.4129500000000  0.5048980000000 1.0
C      1  0.4488510000000  0.4752050000000  0.5776850000000 1.0
C      1  0.4525950000000  0.4368000000000  0.5471200000000 1.0
C      1  0.4882970000000  0.4329350000000  0.5795060000000 1.0
C      1  0.4734100000000  0.5113390000000  0.4256440000000 1.0
C      1  0.5525210000000  0.5438210000000  0.4763410000000 1.0
C      1  0.5228760000000  0.4882150000000  0.5751770000000 1.0
C      1  0.4654280000000  0.4804690000000  0.5351130000000 1.0
C      1  0.5316940000000  0.4262060000000  0.4358790000000 1.0
C      1  0.5260090000000  0.4176550000000  0.4938930000000 1.0
C      1  0.4657640000000  0.4613770000000  0.5575440000000 1.0
C      1  0.5800960000000  0.5518790000000  0.4716060000000 1.0
C      1  0.4054300000000  0.5502560000000  0.4867910000000 1.0
C      1  0.4455240000000  0.5247000000000  0.5496280000000 1.0
C      1  0.4663910000000  0.5787640000000  0.5505020000000 1.0
C      1  0.4977960000000  0.4518710000000  0.5111830000000 1.0
C      1  0.5392020000000  0.4417010000000  0.4811850000000 1.0
C      1  0.5184630000000  0.5881840000000  0.4405110000000 1.0
C      1  0.5673170000000  0.5214580000000  0.5673930000000 1.0
C      1  0.4492000000000  0.4943900000000  0.4242060000000 1.0
C      1  0.4194950000000  0.5602330000000  0.5123250000000 1.0
C      1  0.5209070000000  0.4590380000000  0.5794680000000 1.0
C      1  0.5387740000000  0.4656000000000  0.4983720000000 1.0
C      1  0.5038140000000  0.5977280000000  0.4957640000000 1.0
C      1  0.4782570000000  0.5744240000000  0.4489690000000 1.0
C      1  0.4263540000000  0.4764130000000  0.5597880000000 1.0
C      1  0.4971030000000  0.5152180000000  0.4754100000000 1.0
C      1  0.4893580000000  0.5444700000000  0.5146330000000 1.0
C      1  0.4655360000000  0.5194930000000  0.5646830000000 1.0
C      1  0.4154530000000  0.4566960000000  0.5415000000000 1.0
C      1  0.5132580000000  0.4808360000000  0.5358000000000 1.0
C      1  0.4377050000000  0.4292430000000  0.4717660000000 1.0
C      1  0.5417130000000  0.5351600000000  0.5627640000000 1.0
C      1  0.4599690000000  0.5005860000000  0.5855860000000 1.0
C      1  0.5676420000000  0.4306990000000  0.4854880000000 1.0
C      1  0.4298010000000  0.4718370000000  0.4735840000000 1.0
C      1  0.5182290000000  0.5180760000000  0.4352550000000 1.0
C      1  0.4814290000000  0.4879590000000  0.5995670000000 1.0
C      1  0.5205620000000  0.4436590000000  0.4145080000000 1.0
C      1  0.5422230000000  0.5700050000000  0.4835140000000 1.0
C      1  0.4073940000000  0.5125800000000  0.5326140000000 1.0
C      1  0.5913880000000  0.4687850000000  0.5244480000000 1.0
C      1  0.4573240000000  0.4836150000000  0.4914080000000 1.0
C      1  0.5572540000000  0.4325890000000  0.4460990000000 1.0
C      1  0.4724720000000  0.4468310000000  0.4368790000000 1.0
C      1  0.5519440000000  0.4151460000000  0.5321230000000 1.0
C      1  0.5904930000000  0.5144480000000  0.4986850000000 1.0
C      1  0.4486650000000  0.5108600000000  0.4648500000000 1.0
C      1  0.5773100000000  0.4993360000000  0.4779690000000 1.0
C      1  0.4525280000000  0.5797060000000  0.4806240000000 1.0
C      1  0.4952590000000  0.4675190000000  0.4917200000000 1.0
C      1  0.4723840000000  0.4200170000000  0.5596010000000 1.0
C      1  0.5458700000000  0.5159270000000  0.4182980000000 1.0
C      1  0.4403880000000  0.4683140000000  0.4395720000000 1.0
C      1  0.5853410000000  0.4522360000000  0.4789280000000 1.0
C      1  0.5666030000000  0.5689310000000  0.5235500000000 1.0
C      1  0.5254720000000  0.5519510000000  0.5834100000000 1.0
C      1  0.4193820000000  0.4470390000000  0.4857830000000 1.0
C      1  0.4959430000000  0.5833230000000  0.5439690000000 1.0
C      1  0.4583460000000  0.4368000000000  0.4916210000000 1.0
C      1  0.4634490000000  0.5549290000000  0.5128330000000 1.0
C      1  0.4512110000000  0.5632990000000  0.5711060000000 1.0
C      1  0.5047030000000  0.5429360000000  0.4694830000000 1.0
C      1  0.5003180000000  0.5919600000000  0.4654050000000 1.0
C      1  0.5834990000000  0.5019420000000  0.4482880000000 1.0
C      1  0.5414950000000  0.5619100000000  0.5654060000000 1.0
C      1  0.4229970000000  0.5150670000000  0.4504900000000 1.0
C      1  0.5838330000000  0.4740620000000  0.4970630000000 1.0
C      1  0.5296480000000  0.5876880000000  0.4651850000000 1.0
C      1  0.5215280000000  0.4674340000000  0.4536950000000 1.0
C      1  0.5850590000000  0.5129860000000  0.5464230000000 1.0
C      1  0.5644410000000  0.4789170000000  0.5676050000000 1.0
C      1  0.5317180000000  0.5275570000000  0.5051110000000 1.0
C      1  0.4914490000000  0.4612550000000  0.5852540000000 1.0
C      1  0.5559920000000  0.4905980000000  0.5294690000000 1.0
C      1  0.4362560000000  0.5194500000000  0.4937270000000 1.0
C      1  0.4714890000000  0.4849930000000  0.4639060000000 1.0
C      1  0.4188020000000  0.5453110000000  0.4601990000000 1.0
C      1  0.4800170000000  0.4573840000000  0.4738110000000 1.0
C      1  0.4951760000000  0.4771490000000  0.4188730000000 1.0
END
