TITL C-2441160-1326-313 0.0534664411601034 125000 -21824.271317257 0 0 149 (C1) n - 1
REM
REM in /home/bkarasulu/work/CARBON/AIRSS/Generating-Clusters/ReaxFF-fromJPCA2015/Units_Real/with-SteepDescent/Higher-Symm
REM
REM
REM
REM
REM
REM ./C.cell (1df0a924f5614ab8850e4351716899ee)
REM
REM compiler GCC version 9.2.1 20190827 (Red Hat 9.2.1-1)
REM options -cpp -mtune=generic -march=x86-64 -g -O0 -fpre-include=/usr/include/finclude/math-vector-fortran.h
REM seed -1627913738 787966219 -1769820421 2077801925 428072895 -437596217 -658966288 1866207824 -905142715 -1431088798 1721857097 -740621642 -733163170 1750003643 831250473 -798422596 564561455 71501241 -1394292677 -2051955398 99123134 -1111369485 -1846292943 2055941640 -1584404537 -885485243 1023639762 412974477 1828289138 -1078456932 -530324016 -995463839 1682420579
REM
CELL 1.54180   50.00000   50.00000   50.00000   90.00000   90.00000   90.00000
LATT -1
SFAC C  
C      1  0.4642540000000  0.5906410000000  0.5099810000000 1.0
C      1  0.5155790000000  0.4666590000000  0.5809380000000 1.0
C      1  0.5808100000000  0.5156190000000  0.4693540000000 1.0
C      1  0.5348520000000  0.5921320000000  0.4887900000000 1.0
C      1  0.4843420000000  0.4183920000000  0.4920220000000 1.0
C      1  0.5300980000000  0.4211530000000  0.5129500000000 1.0
C      1  0.4906030000000  0.4836470000000  0.4125540000000 1.0
C      1  0.5142690000000  0.5313830000000  0.4204480000000 1.0
C      1  0.4845840000000  0.5344630000000  0.5792420000000 1.0
C      1  0.4225530000000  0.5122150000000  0.5286380000000 1.0
C      1  0.5902920000000  0.5011610000000  0.5197110000000 1.0
C      1  0.4201430000000  0.4917620000000  0.4857910000000 1.0
C      1  0.5153160000000  0.4992300000000  0.4130560000000 1.0
C      1  0.4126580000000  0.5153560000000  0.5012680000000 1.0
C      1  0.5008500000000  0.4113140000000  0.5160520000000 1.0
C      1  0.4748350000000  0.5057540000000  0.5907590000000 1.0
C      1  0.5281590000000  0.4943480000000  0.5909870000000 1.0
C      1  0.4670710000000  0.4986570000000  0.4205100000000 1.0
C      1  0.5907180000000  0.5208720000000  0.4992150000000 1.0
C      1  0.4235910000000  0.4682790000000  0.5016580000000 1.0
C      1  0.5885500000000  0.4717820000000  0.5167990000000 1.0
C      1  0.5008950000000  0.4230720000000  0.4675850000000 1.0
C      1  0.5060790000000  0.5908300000000  0.4871690000000 1.0
C      1  0.4931900000000  0.5903390000000  0.5132500000000 1.0
C      1  0.4254190000000  0.4785620000000  0.4294750000000 1.0
C      1  0.4283260000000  0.4256540000000  0.4786280000000 1.0
C      1  0.4784020000000  0.4295590000000  0.4272370000000 1.0
C      1  0.5757660000000  0.4733020000000  0.5679560000000 1.0
C      1  0.4226210000000  0.5247460000000  0.5741790000000 1.0
C      1  0.5766600000000  0.5242750000000  0.4246720000000 1.0
C      1  0.5754770000000  0.4171890000000  0.5251040000000 1.0
C      1  0.4232230000000  0.5750560000000  0.5235870000000 1.0
C      1  0.5758300000000  0.5771030000000  0.4745120000000 1.0
C      1  0.5243530000000  0.4230260000000  0.5767930000000 1.0
C      1  0.4746160000000  0.5774540000000  0.5751990000000 1.0
C      1  0.5240180000000  0.5748820000000  0.4236610000000 1.0
C      1  0.4635320000000  0.5398400000000  0.4203680000000 1.0
C      1  0.4171550000000  0.4601790000000  0.5411490000000 1.0
C      1  0.5416100000000  0.4184710000000  0.4609790000000 1.0
C      1  0.5346370000000  0.5368950000000  0.5738000000000 1.0
C      1  0.4642600000000  0.4622390000000  0.5752850000000 1.0
C      1  0.5330510000000  0.4622590000000  0.4265910000000 1.0
C      1  0.5756770000000  0.4655060000000  0.4674820000000 1.0
C      1  0.4226210000000  0.5352940000000  0.4603160000000 1.0
C      1  0.5756090000000  0.5374430000000  0.5370520000000 1.0
C      1  0.4600970000000  0.4204140000000  0.5354430000000 1.0
C      1  0.5337960000000  0.5734600000000  0.5328200000000 1.0
C      1  0.4655550000000  0.5734560000000  0.4641900000000 1.0
C      1  0.5165250000000  0.5324030000000  0.4520700000000 1.0
C      1  0.4558980000000  0.5151820000000  0.5250000000000 1.0
C      1  0.5283530000000  0.4530220000000  0.5146300000000 1.0
C      1  0.4844000000000  0.5323380000000  0.5487510000000 1.0
C      1  0.5185620000000  0.4711470000000  0.5516760000000 1.0
C      1  0.4815490000000  0.4704640000000  0.4589890000000 1.0
C      1  0.5491720000000  0.5194780000000  0.4739530000000 1.0
C      1  0.4561940000000  0.4784690000000  0.4659780000000 1.0
C      1  0.5394030000000  0.4735900000000  0.5318280000000 1.0
C      1  0.4668860000000  0.4561040000000  0.4778220000000 1.0
C      1  0.5305890000000  0.5395930000000  0.4749570000000 1.0
C      1  0.4704730000000  0.5402370000000  0.5247070000000 1.0
C      1  0.5504750000000  0.5844330000000  0.5119860000000 1.0
C      1  0.5115850000000  0.5517520000000  0.5793780000000 1.0
C      1  0.5857540000000  0.5132450000000  0.5480360000000 1.0
C      1  0.4485490000000  0.5812740000000  0.4871150000000 1.0
C      1  0.5506200000000  0.4163730000000  0.4879830000000 1.0
C      1  0.4421220000000  0.4139500000000  0.5151260000000 1.0
C      1  0.4895710000000  0.5513520000000  0.4193960000000 1.0
C      1  0.5152780000000  0.4428530000000  0.4168670000000 1.0
C      1  0.4879330000000  0.4479850000000  0.5813520000000 1.0
C      1  0.4134600000000  0.5146170000000  0.4439660000000 1.0
C      1  0.5809150000000  0.4893230000000  0.4520730000000 1.0
C      1  0.4175630000000  0.4877430000000  0.5492400000000 1.0
C      1  0.4542070000000  0.4882630000000  0.5885020000000 1.0
C      1  0.5854870000000  0.4547900000000  0.4931070000000 1.0
C      1  0.4914650000000  0.5866520000000  0.4617600000000 1.0
C      1  0.5416350000000  0.4877140000000  0.4149660000000 1.0
C      1  0.4492140000000  0.5178280000000  0.4079100000000 1.0
C      1  0.5478860000000  0.5127110000000  0.5867020000000 1.0
C      1  0.4055460000000  0.4500580000000  0.5155640000000 1.0
C      1  0.5873440000000  0.5467180000000  0.5123200000000 1.0
C      1  0.4139410000000  0.5404440000000  0.4877480000000 1.0
C      1  0.5082310000000  0.5858100000000  0.5383120000000 1.0
C      1  0.4876680000000  0.4123930000000  0.5411760000000 1.0
C      1  0.5165700000000  0.4055310000000  0.4507110000000 1.0
C      1  0.4799180000000  0.4482970000000  0.5017900000000 1.0
C      1  0.5029640000000  0.4877830000000  0.4675900000000 1.0
C      1  0.4492910000000  0.5007320000000  0.4807830000000 1.0
C      1  0.5048120000000  0.4648240000000  0.5051100000000 1.0
C      1  0.4860070000000  0.5440440000000  0.4994660000000 1.0
C      1  0.5150050000000  0.5442650000000  0.4981810000000 1.0
C      1  0.4960180000000  0.4863730000000  0.5431400000000 1.0
C      1  0.5038050000000  0.5133270000000  0.5441570000000 1.0
C      1  0.4966340000000  0.5125830000000  0.4552330000000 1.0
C      1  0.5432140000000  0.4983940000000  0.5167920000000 1.0
C      1  0.4699950000000  0.5003190000000  0.5046540000000 1.0
C      1  0.5450320000000  0.4965400000000  0.4898980000000 1.0
C      1  0.5478210000000  0.4728450000000  0.4751140000000 1.0
C      1  0.4699740000000  0.5466220000000  0.4756850000000 1.0
C      1  0.4714670000000  0.4711010000000  0.5482560000000 1.0
C      1  0.4404670000000  0.4669670000000  0.5238810000000 1.0
C      1  0.5455900000000  0.5263820000000  0.5295820000000 1.0
C      1  0.4524940000000  0.5262770000000  0.4654020000000 1.0
C      1  0.5290500000000  0.5479890000000  0.5220150000000 1.0
C      1  0.4633510000000  0.4517700000000  0.5279380000000 1.0
C      1  0.5231970000000  0.4414040000000  0.4685830000000 1.0
C      1  0.5270200000000  0.4674270000000  0.4579610000000 1.0
C      1  0.4714470000000  0.5178190000000  0.4428740000000 1.0
C      1  0.5285380000000  0.5213730000000  0.5512050000000 1.0
C      1  0.5020850000000  0.5754170000000  0.5654330000000 1.0
C      1  0.5725560000000  0.5011410000000  0.5707270000000 1.0
C      1  0.5747400000000  0.5717620000000  0.5024870000000 1.0
C      1  0.4967320000000  0.5756700000000  0.4348700000000 1.0
C      1  0.5056580000000  0.4177910000000  0.4255360000000 1.0
C      1  0.4966270000000  0.4241480000000  0.5682300000000 1.0
C      1  0.4236820000000  0.5066500000000  0.4190490000000 1.0
C      1  0.5681550000000  0.4967630000000  0.4271700000000 1.0
C      1  0.4270030000000  0.4964270000000  0.5747030000000 1.0
C      1  0.4249900000000  0.5667150000000  0.4961960000000 1.0
C      1  0.5758680000000  0.4268560000000  0.4974240000000 1.0
C      1  0.4173230000000  0.4241500000000  0.5061480000000 1.0
C      1  0.4143680000000  0.4754440000000  0.4564540000000 1.0
C      1  0.4549730000000  0.4144280000000  0.4754520000000 1.0
C      1  0.4751340000000  0.4567200000000  0.4157350000000 1.0
C      1  0.5873140000000  0.4612190000000  0.5436950000000 1.0
C      1  0.4130480000000  0.5318810000000  0.5479460000000 1.0
C      1  0.5892140000000  0.5338750000000  0.4487430000000 1.0
C      1  0.5491550000000  0.4094430000000  0.5333930000000 1.0
C      1  0.4466410000000  0.5891850000000  0.5322330000000 1.0
C      1  0.5517480000000  0.5898650000000  0.4663860000000 1.0
C      1  0.5345660000000  0.4470690000000  0.5882230000000 1.0
C      1  0.4655290000000  0.5534530000000  0.5880920000000 1.0
C      1  0.5329770000000  0.5500290000000  0.4116290000000 1.0
C      1  0.5472750000000  0.5853400000000  0.4384220000000 1.0
C      1  0.4376730000000  0.5477440000000  0.5853050000000 1.0
C      1  0.5853430000000  0.4330090000000  0.5470820000000 1.0
C      1  0.4511790000000  0.5856950000000  0.5601770000000 1.0
C      1  0.5468960000000  0.4126780000000  0.5618420000000 1.0
C      1  0.4575720000000  0.4194440000000  0.4471540000000 1.0
C      1  0.5611910000000  0.5469660000000  0.4140760000000 1.0
C      1  0.4462440000000  0.4584300000000  0.4201750000000 1.0
C      1  0.5622620000000  0.4517280000000  0.5831580000000 1.0
C      1  0.4185920000000  0.4470960000000  0.4582570000000 1.0
C      1  0.5859510000000  0.5619560000000  0.4518260000000 1.0
C      1  0.4145590000000  0.5601290000000  0.5464140000000 1.0
C      1  0.5692430000000  0.4284170000000  0.5689520000000 1.0
C      1  0.5688230000000  0.5688530000000  0.4305860000000 1.0
C      1  0.4304050000000  0.5685030000000  0.5677900000000 1.0
C      1  0.4363290000000  0.4372420000000  0.4372300000000 1.0
C      1  0.4966840000000  0.4915870000000  0.4979670000000 1.0
END
