TITL C-2441156-4686-1190 -4.85906907669063e-10 125000 -762.619593209807 0 0 6 (D(inf)h) n - 1
REM
REM in /home/bkarasulu/work/CARBON/AIRSS/Generating-Clusters/ReaxFF-fromJPCA2015/Units_Real/with-SteepDescent/Higher-Symm
REM
REM
REM
REM
REM
REM ./C.cell (1df0a924f5614ab8850e4351716899ee)
REM
REM compiler GCC version 9.2.1 20190827 (Red Hat 9.2.1-1)
REM options -cpp -mtune=generic -march=x86-64 -g -O0 -fpre-include=/usr/include/finclude/math-vector-fortran.h
REM seed -1360757734 -767366398 -494250545 -1400686264 -716056703 726089435 -1909905951 -2001003058 -1473433581 1549037933 -1410360504 1932678461 -1334103647 1677855663 1003488651 767657173 863421173 281867477 1794603679 578048891 408564025 -843797398 1179027179 904781181 1460313178 -1372565662 -1095536073 718771125 424063938 333688513 2016610431 -860266265 770225983
REM
CELL 1.54180   50.00000   50.00000   50.00000   90.00000   90.00000   90.00000
LATT -1
SFAC C  
C      1  0.5126100000000  0.5015290000000  0.4997360000000 1.0
C      1  0.4616360000000  0.5015290000000  0.4997360000000 1.0
C      1  0.4873900000000  0.5015290000000  0.4997360000000 1.0
C      1  0.5383640000000  0.5015290000000  0.4997360000000 1.0
C      1  0.4372220000000  0.5015290000000  0.4997360000000 1.0
C      1  0.5627780000000  0.5015290000000  0.4997360000000 1.0
END
