TITL C-2441160-1326-1356 0.0692831807751855 125000 -24407.9397005141 0 0 172 (C1) n - 1
REM
REM in /home/bkarasulu/work/CARBON/AIRSS/Generating-Clusters/ReaxFF-fromJPCA2015/Units_Real/with-SteepDescent/Higher-Symm
REM
REM
REM
REM
REM
REM ./C.cell (1df0a924f5614ab8850e4351716899ee)
REM
REM compiler GCC version 9.2.1 20190827 (Red Hat 9.2.1-1)
REM options -cpp -mtune=generic -march=x86-64 -g -O0 -fpre-include=/usr/include/finclude/math-vector-fortran.h
REM seed 575304864 110263547 -1391763541 303616598 -600336298 78623942 385378045 424214893 -1809650155 -1038726991 -148240553 -392646682 -2095070692 -1315753645 -1148185593 448677267 186567674 -1309787472 1548398679 -1083418001 250721080 44572208 -772735362 1459032826 -1391930045 -1672207806 1844880897 1846788762 849402848 213664416 1104141505 -854561839 243317239
REM
CELL 1.54180   50.00000   50.00000   50.00000   90.00000   90.00000   90.00000
LATT -1
SFAC C  
C      1  0.4433740000000  0.5029510000000  0.5618770000000 1.0
C      1  0.4323410000000  0.5477840000000  0.5424260000000 1.0
C      1  0.4462700000000  0.5596720000000  0.5173770000000 1.0
C      1  0.4300390000000  0.5619240000000  0.4903780000000 1.0
C      1  0.4350180000000  0.5402770000000  0.4506440000000 1.0
C      1  0.4458510000000  0.5115660000000  0.4470190000000 1.0
C      1  0.4294560000000  0.4823040000000  0.4407160000000 1.0
C      1  0.4311000000000  0.4446500000000  0.4724370000000 1.0
C      1  0.4465690000000  0.4406720000000  0.4985670000000 1.0
C      1  0.4297410000000  0.4424870000000  0.5254230000000 1.0
C      1  0.4359960000000  0.4751390000000  0.5623150000000 1.0
C      1  0.4643430000000  0.4545960000000  0.4096150000000 1.0
C      1  0.4638680000000  0.4152350000000  0.4461130000000 1.0
C      1  0.4669760000000  0.3988960000000  0.5145680000000 1.0
C      1  0.4611570000000  0.4160810000000  0.5578450000000 1.0
C      1  0.4645560000000  0.4603090000000  0.5986870000000 1.0
C      1  0.4636690000000  0.5314050000000  0.5970760000000 1.0
C      1  0.4626520000000  0.5721590000000  0.5738860000000 1.0
C      1  0.4670550000000  0.6048630000000  0.5132030000000 1.0
C      1  0.4613670000000  0.6000930000000  0.4667350000000 1.0
C      1  0.4636150000000  0.5528770000000  0.4133010000000 1.0
C      1  0.4638360000000  0.5060640000000  0.3948090000000 1.0
C      1  0.5999950000000  0.4588460000000  0.5230800000000 1.0
C      1  0.6026940000000  0.4794860000000  0.5437320000000 1.0
C      1  0.6015760000000  0.5075110000000  0.5512940000000 1.0
C      1  0.5996510000000  0.5334200000000  0.5395540000000 1.0
C      1  0.6054590000000  0.5493910000000  0.5153550000000 1.0
C      1  0.6073340000000  0.5426170000000  0.4892990000000 1.0
C      1  0.6053600000000  0.5366240000000  0.4628820000000 1.0
C      1  0.6013060000000  0.5087070000000  0.4544890000000 1.0
C      1  0.6029490000000  0.4796920000000  0.4510590000000 1.0
C      1  0.6003280000000  0.4571240000000  0.4693680000000 1.0
C      1  0.6041560000000  0.4484890000000  0.4963860000000 1.0
C      1  0.5499150000000  0.4331750000000  0.5764810000000 1.0
C      1  0.5500270000000  0.4864070000000  0.5980850000000 1.0
C      1  0.5505470000000  0.5392030000000  0.5870290000000 1.0
C      1  0.5490350000000  0.5812420000000  0.5521110000000 1.0
C      1  0.5503550000000  0.5979010000000  0.5005710000000 1.0
C      1  0.5479650000000  0.5808780000000  0.4481020000000 1.0
C      1  0.5507490000000  0.5436190000000  0.4100710000000 1.0
C      1  0.5519280000000  0.4879060000000  0.4009140000000 1.0
C      1  0.5505740000000  0.4398010000000  0.4263010000000 1.0
C      1  0.5494520000000  0.4086810000000  0.4718760000000 1.0
C      1  0.5511630000000  0.4066010000000  0.5258390000000 1.0
C      1  0.4544230000000  0.5068030000000  0.5923070000000 1.0
C      1  0.4465580000000  0.5518980000000  0.5664090000000 1.0
C      1  0.4552050000000  0.5888470000000  0.5300160000000 1.0
C      1  0.4440290000000  0.5808860000000  0.4755740000000 1.0
C      1  0.4505900000000  0.5615780000000  0.4362510000000 1.0
C      1  0.4515060000000  0.5134520000000  0.4174100000000 1.0
C      1  0.4443430000000  0.4648520000000  0.4250060000000 1.0
C      1  0.4453490000000  0.4343670000000  0.4504790000000 1.0
C      1  0.4564990000000  0.4089880000000  0.4934360000000 1.0
C      1  0.4448330000000  0.4299530000000  0.5433290000000 1.0
C      1  0.4476370000000  0.4549020000000  0.5783570000000 1.0
C      1  0.4023900000000  0.4798830000000  0.4525550000000 1.0
C      1  0.4044360000000  0.4578490000000  0.4743510000000 1.0
C      1  0.3995950000000  0.4610360000000  0.5015170000000 1.0
C      1  0.4047410000000  0.4595010000000  0.5289400000000 1.0
C      1  0.4108800000000  0.4801110000000  0.5493230000000 1.0
C      1  0.4150870000000  0.5083670000000  0.5499920000000 1.0
C      1  0.4085210000000  0.5320280000000  0.5352180000000 1.0
C      1  0.3958920000000  0.5324490000000  0.5083060000000 1.0
C      1  0.4052170000000  0.5476210000000  0.4852460000000 1.0
C      1  0.4070100000000  0.5351090000000  0.4577040000000 1.0
C      1  0.4002060000000  0.5074230000000  0.4553520000000 1.0
C      1  0.5263350000000  0.5427470000000  0.6042020000000 1.0
C      1  0.5235690000000  0.5916330000000  0.5631530000000 1.0
C      1  0.5262190000000  0.6143050000000  0.5053610000000 1.0
C      1  0.5219750000000  0.5953070000000  0.4434220000000 1.0
C      1  0.5242810000000  0.5544120000000  0.3992950000000 1.0
C      1  0.5257090000000  0.4903200000000  0.3864350000000 1.0
C      1  0.5255080000000  0.4332690000000  0.4119670000000 1.0
C      1  0.5239570000000  0.3948920000000  0.4635160000000 1.0
C      1  0.5257620000000  0.3903890000000  0.5250420000000 1.0
C      1  0.5218220000000  0.4222800000000  0.5825060000000 1.0
C      1  0.5231990000000  0.4797190000000  0.6103450000000 1.0
C      1  0.5047430000000  0.3924150000000  0.5448010000000 1.0
C      1  0.4992490000000  0.4367510000000  0.5931700000000 1.0
C      1  0.4996760000000  0.4971370000000  0.6131850000000 1.0
C      1  0.5045730000000  0.5618440000000  0.6002410000000 1.0
C      1  0.4998660000000  0.6024490000000  0.5488450000000 1.0
C      1  0.5050990000000  0.6191830000000  0.4858520000000 1.0
C      1  0.4967980000000  0.5868920000000  0.4295850000000 1.0
C      1  0.5038030000000  0.5370600000000  0.3876300000000 1.0
C      1  0.5026290000000  0.4720240000000  0.3882880000000 1.0
C      1  0.5023350000000  0.4171430000000  0.4215050000000 1.0
C      1  0.4992340000000  0.3883260000000  0.4789700000000 1.0
C      1  0.5588920000000  0.4287800000000  0.4524610000000 1.0
C      1  0.5595880000000  0.4149380000000  0.4983230000000 1.0
C      1  0.5537120000000  0.4211500000000  0.5505150000000 1.0
C      1  0.5521490000000  0.4606220000000  0.5869730000000 1.0
C      1  0.5594690000000  0.5117610000000  0.5838030000000 1.0
C      1  0.5589990000000  0.5567360000000  0.5646320000000 1.0
C      1  0.5597180000000  0.5843720000000  0.5247190000000 1.0
C      1  0.5567110000000  0.5826410000000  0.4760130000000 1.0
C      1  0.5595970000000  0.5572340000000  0.4352060000000 1.0
C      1  0.5532970000000  0.5156800000000  0.4057320000000 1.0
C      1  0.5600430000000  0.4670600000000  0.4213600000000 1.0
C      1  0.5090080000000  0.5616020000000  0.4226190000000 1.0
C      1  0.5112550000000  0.5115680000000  0.4006830000000 1.0
C      1  0.5094510000000  0.4577190000000  0.4129990000000 1.0
C      1  0.5105450000000  0.4159780000000  0.4493560000000 1.0
C      1  0.5085410000000  0.4013740000000  0.5043060000000 1.0
C      1  0.5085470000000  0.4196390000000  0.5563650000000 1.0
C      1  0.5084860000000  0.4639250000000  0.5900670000000 1.0
C      1  0.5097420000000  0.5195870000000  0.5968960000000 1.0
C      1  0.5083520000000  0.5688410000000  0.5725070000000 1.0
C      1  0.5114270000000  0.5960720000000  0.5226690000000 1.0
C      1  0.5075720000000  0.5954440000000  0.4689780000000 1.0
C      1  0.5262870000000  0.4521730000000  0.5047250000000 1.0
C      1  0.5322270000000  0.4584770000000  0.5323460000000 1.0
C      1  0.5294920000000  0.4825600000000  0.5484890000000 1.0
C      1  0.5264820000000  0.5101290000000  0.5482770000000 1.0
C      1  0.5271480000000  0.5355530000000  0.5352840000000 1.0
C      1  0.5235870000000  0.5464240000000  0.5096530000000 1.0
C      1  0.5391440000000  0.5383590000000  0.4867890000000 1.0
C      1  0.5281360000000  0.5275200000000  0.4633290000000 1.0
C      1  0.5331450000000  0.5037080000000  0.4482940000000 1.0
C      1  0.5273320000000  0.4764060000000  0.4561130000000 1.0
C      1  0.5295490000000  0.4585430000000  0.4774180000000 1.0
C      1  0.5728250000000  0.5092270000000  0.4540450000000 1.0
C      1  0.5736240000000  0.4795730000000  0.4439180000000 1.0
C      1  0.5718910000000  0.4495640000000  0.4683630000000 1.0
C      1  0.5745620000000  0.4407560000000  0.4966850000000 1.0
C      1  0.5713650000000  0.4590490000000  0.5269080000000 1.0
C      1  0.5745360000000  0.4769110000000  0.5494320000000 1.0
C      1  0.5738490000000  0.5040310000000  0.5597560000000 1.0
C      1  0.5737420000000  0.5454330000000  0.5419520000000 1.0
C      1  0.5748210000000  0.5603860000000  0.5163330000000 1.0
C      1  0.5635870000000  0.5546990000000  0.4835350000000 1.0
C      1  0.5743100000000  0.5408010000000  0.4552200000000 1.0
C      1  0.4721000000000  0.5925070000000  0.5530750000000 1.0
C      1  0.4760710000000  0.6159320000000  0.4901140000000 1.0
C      1  0.4699600000000  0.5847720000000  0.4431330000000 1.0
C      1  0.4743350000000  0.5372010000000  0.3927690000000 1.0
C      1  0.4747750000000  0.4776900000000  0.3937880000000 1.0
C      1  0.4749730000000  0.4278760000000  0.4220230000000 1.0
C      1  0.4728020000000  0.3991450000000  0.4720150000000 1.0
C      1  0.4749710000000  0.3949040000000  0.5403330000000 1.0
C      1  0.4716880000000  0.4349280000000  0.5815560000000 1.0
C      1  0.4727380000000  0.4873280000000  0.6048160000000 1.0
C      1  0.4740300000000  0.5571620000000  0.5975500000000 1.0
C      1  0.4849930000000  0.5298640000000  0.4620510000000 1.0
C      1  0.4722100000000  0.5050850000000  0.4581000000000 1.0
C      1  0.4829120000000  0.4785420000000  0.4553810000000 1.0
C      1  0.4841810000000  0.4593460000000  0.4754710000000 1.0
C      1  0.4714150000000  0.4577010000000  0.5014530000000 1.0
C      1  0.4840230000000  0.4585470000000  0.5283170000000 1.0
C      1  0.4836830000000  0.4819000000000  0.5459890000000 1.0
C      1  0.4682900000000  0.5068760000000  0.5426830000000 1.0
C      1  0.4800750000000  0.5321440000000  0.5347320000000 1.0
C      1  0.4714380000000  0.5442960000000  0.5099280000000 1.0
C      1  0.4842910000000  0.5478320000000  0.4834210000000 1.0
C      1  0.5073420000000  0.5701300000000  0.5100000000000 1.0
C      1  0.5027810000000  0.5698770000000  0.4823370000000 1.0
C      1  0.5071290000000  0.5355490000000  0.4443680000000 1.0
C      1  0.5124610000000  0.5114590000000  0.4290910000000 1.0
C      1  0.5052500000000  0.4690040000000  0.4393900000000 1.0
C      1  0.5063440000000  0.4403360000000  0.4720330000000 1.0
C      1  0.5097410000000  0.4299180000000  0.4987210000000 1.0
C      1  0.5074050000000  0.4443180000000  0.5395190000000 1.0
C      1  0.5063180000000  0.4778870000000  0.5646810000000 1.0
C      1  0.5080600000000  0.5199930000000  0.5677470000000 1.0
C      1  0.5045010000000  0.5438600000000  0.5521330000000 1.0
C      1  0.4744260000000  0.5007160000000  0.4996480000000 1.0
C      1  0.5259360000000  0.5001520000000  0.5004310000000 1.0
C      1  0.5504930000000  0.4999930000000  0.5008300000000 1.0
C      1  0.5001880000000  0.5004050000000  0.5001940000000 1.0
C      1  0.4234440000000  0.5010960000000  0.5003900000000 1.0
C      1  0.3932030000000  0.5022410000000  0.5013050000000 1.0
C      1  0.4486960000000  0.5008330000000  0.5000160000000 1.0
END
