TITL C-2441154-10-1499 0.127965000505118 125000 -24399.6270061219 0 0 185 (C1) n - 1
REM
REM in /home/bkarasulu/work/CARBON/AIRSS/Generating-Clusters/ReaxFF-fromJPCA2015/Units_Real/with-SteepDescent/Higher-Symm
REM
REM
REM
REM
REM
REM ./C.cell (1df0a924f5614ab8850e4351716899ee)
REM
REM compiler GCC version 9.2.1 20190827 (Red Hat 9.2.1-1)
REM options -cpp -mtune=generic -march=x86-64 -g -O0 -fpre-include=/usr/include/finclude/math-vector-fortran.h
REM seed 521754291 -2024976742 1601087938 -1411430683 -27373574 356901266 309826005 57612217 -1328306765 1177615809 330129795 -136421390 27850295 82585963 1986110381 1496500035 -24432700 -677377530 2107355581 -551294272 1677419294 304375806 -1622321737 668482628 -1634453781 965255865 -382393142 1263032755 -2028234670 819313554 232639859 937631055 -121951630
REM
CELL 1.54180   50.00000   50.00000   50.00000   90.00000   90.00000   90.00000
LATT -1
SFAC C  
C      1  0.5952300000000  0.4928180000000  0.5322610000000 1.0
C      1  0.5562930000000  0.4144770000000  0.5383660000000 1.0
C      1  0.4714510000000  0.4045560000000  0.5309340000000 1.0
C      1  0.4054860000000  0.4573880000000  0.5374510000000 1.0
C      1  0.4082140000000  0.5493830000000  0.5361240000000 1.0
C      1  0.4834630000000  0.5969020000000  0.5324520000000 1.0
C      1  0.5722810000000  0.5758830000000  0.5357410000000 1.0
C      1  0.5522740000000  0.5907630000000  0.5523110000000 1.0
C      1  0.6033550000000  0.5149320000000  0.5485800000000 1.0
C      1  0.5773620000000  0.4294930000000  0.5527440000000 1.0
C      1  0.4901420000000  0.3974340000000  0.5520810000000 1.0
C      1  0.4172260000000  0.4390610000000  0.5568200000000 1.0
C      1  0.4031830000000  0.5265210000000  0.5524730000000 1.0
C      1  0.4622640000000  0.6030630000000  0.5515590000000 1.0
C      1  0.5957800000000  0.5486820000000  0.4760870000000 1.0
C      1  0.5992760000000  0.4544730000000  0.4761630000000 1.0
C      1  0.5269930000000  0.3953480000000  0.4788140000000 1.0
C      1  0.4444860000000  0.4188070000000  0.4794090000000 1.0
C      1  0.3901700000000  0.4958030000000  0.4772090000000 1.0
C      1  0.4311480000000  0.5836020000000  0.4798400000000 1.0
C      1  0.5228950000000  0.6074150000000  0.4767250000000 1.0
C      1  0.4936330000000  0.5715360000000  0.4961850000000 1.0
C      1  0.5356790000000  0.5527210000000  0.4896980000000 1.0
C      1  0.5711360000000  0.4929960000000  0.4941380000000 1.0
C      1  0.5403500000000  0.4510690000000  0.4925150000000 1.0
C      1  0.4688200000000  0.4347910000000  0.4839970000000 1.0
C      1  0.4411680000000  0.4724310000000  0.4839050000000 1.0
C      1  0.4395040000000  0.5371690000000  0.4817250000000 1.0
C      1  0.5313290000000  0.4934440000000  0.5210290000000 1.0
C      1  0.5116970000000  0.4739170000000  0.5177980000000 1.0
C      1  0.4845770000000  0.4715250000000  0.5137160000000 1.0
C      1  0.4656600000000  0.4936940000000  0.5181040000000 1.0
C      1  0.4718960000000  0.5174580000000  0.5330170000000 1.0
C      1  0.4974070000000  0.5274430000000  0.5321990000000 1.0
C      1  0.5232700000000  0.5205190000000  0.5234590000000 1.0
C      1  0.4979120000000  0.6048850000000  0.4607110000000 1.0
C      1  0.5771740000000  0.5662600000000  0.4607200000000 1.0
C      1  0.6030610000000  0.4793100000000  0.4592110000000 1.0
C      1  0.5485560000000  0.4090410000000  0.4626680000000 1.0
C      1  0.4619890000000  0.4041110000000  0.4560100000000 1.0
C      1  0.3982830000000  0.4720080000000  0.4617790000000 1.0
C      1  0.4221170000000  0.5574810000000  0.4659710000000 1.0
C      1  0.4391360000000  0.4502760000000  0.5716170000000 1.0
C      1  0.4281560000000  0.5134660000000  0.5630890000000 1.0
C      1  0.4689870000000  0.5834980000000  0.5740300000000 1.0
C      1  0.5437300000000  0.5728790000000  0.5721590000000 1.0
C      1  0.5840310000000  0.5160280000000  0.5710160000000 1.0
C      1  0.5579850000000  0.4373800000000  0.5719240000000 1.0
C      1  0.4895050000000  0.4201750000000  0.5703200000000 1.0
C      1  0.4311500000000  0.4118290000000  0.5111770000000 1.0
C      1  0.3878280000000  0.4967970000000  0.5065030000000 1.0
C      1  0.4343500000000  0.5866000000000  0.5095480000000 1.0
C      1  0.5250190000000  0.6118190000000  0.5058980000000 1.0
C      1  0.6014890000000  0.5489820000000  0.5049010000000 1.0
C      1  0.6044220000000  0.4489450000000  0.5052760000000 1.0
C      1  0.5265150000000  0.3894670000000  0.5083070000000 1.0
C      1  0.5070450000000  0.4654910000000  0.4681610000000 1.0
C      1  0.4808140000000  0.4752910000000  0.4649340000000 1.0
C      1  0.4754190000000  0.5018480000000  0.4770990000000 1.0
C      1  0.4810950000000  0.5293110000000  0.4651110000000 1.0
C      1  0.5083580000000  0.5329370000000  0.4641380000000 1.0
C      1  0.5205980000000  0.5120670000000  0.4810590000000 1.0
C      1  0.5282140000000  0.4850660000000  0.4706470000000 1.0
C      1  0.4460460000000  0.4359560000000  0.5173050000000 1.0
C      1  0.4138070000000  0.5004530000000  0.5199330000000 1.0
C      1  0.4509780000000  0.5652950000000  0.5222740000000 1.0
C      1  0.5237190000000  0.5877350000000  0.5202940000000 1.0
C      1  0.5808710000000  0.5338440000000  0.5204590000000 1.0
C      1  0.5798910000000  0.4555160000000  0.5175460000000 1.0
C      1  0.5171760000000  0.4129790000000  0.5241450000000 1.0
C      1  0.4294940000000  0.4852750000000  0.5739000000000 1.0
C      1  0.4517240000000  0.5614410000000  0.5737010000000 1.0
C      1  0.4970790000000  0.5760190000000  0.5772970000000 1.0
C      1  0.5664680000000  0.5389770000000  0.5735420000000 1.0
C      1  0.5712170000000  0.4899790000000  0.5753860000000 1.0
C      1  0.5179290000000  0.4271000000000  0.5725010000000 1.0
C      1  0.4643960000000  0.4378330000000  0.5790540000000 1.0
C      1  0.5698890000000  0.4169210000000  0.4800190000000 1.0
C      1  0.4786460000000  0.3918640000000  0.4761780000000 1.0
C      1  0.4040550000000  0.4490310000000  0.4785550000000 1.0
C      1  0.3995520000000  0.5443350000000  0.4789180000000 1.0
C      1  0.4738880000000  0.6046940000000  0.4766170000000 1.0
C      1  0.5663380000000  0.5851600000000  0.4795280000000 1.0
C      1  0.6079160000000  0.5014960000000  0.4766330000000 1.0
C      1  0.5306460000000  0.4678920000000  0.6059750000000 1.0
C      1  0.5021720000000  0.4583540000000  0.6095470000000 1.0
C      1  0.4692450000000  0.4810570000000  0.6025920000000 1.0
C      1  0.4569410000000  0.5196000000000  0.6051330000000 1.0
C      1  0.4842350000000  0.5331470000000  0.6038180000000 1.0
C      1  0.5244990000000  0.5380980000000  0.6032410000000 1.0
C      1  0.5336860000000  0.5091850000000  0.6051340000000 1.0
C      1  0.4559320000000  0.4770470000000  0.5399840000000 1.0
C      1  0.4495670000000  0.5258390000000  0.5490020000000 1.0
C      1  0.5084050000000  0.5485140000000  0.5488510000000 1.0
C      1  0.5358610000000  0.5432810000000  0.5362010000000 1.0
C      1  0.5424780000000  0.4800980000000  0.5454470000000 1.0
C      1  0.5206260000000  0.4605970000000  0.5416820000000 1.0
C      1  0.4787760000000  0.4590630000000  0.5407660000000 1.0
C      1  0.5374930000000  0.6084360000000  0.5312660000000 1.0
C      1  0.6093470000000  0.5338910000000  0.5273740000000 1.0
C      1  0.5977700000000  0.4412060000000  0.5315330000000 1.0
C      1  0.5116920000000  0.3864220000000  0.5341120000000 1.0
C      1  0.4155190000000  0.4167480000000  0.5348160000000 1.0
C      1  0.3882650000000  0.5126570000000  0.5310040000000 1.0
C      1  0.4426750000000  0.6038470000000  0.5307080000000 1.0
C      1  0.4012630000000  0.5189100000000  0.4645680000000 1.0
C      1  0.4522120000000  0.5895370000000  0.4630840000000 1.0
C      1  0.5427800000000  0.5923110000000  0.4632560000000 1.0
C      1  0.5954840000000  0.5240310000000  0.4621740000000 1.0
C      1  0.5780950000000  0.4402160000000  0.4653920000000 1.0
C      1  0.5038870000000  0.3985330000000  0.4625260000000 1.0
C      1  0.4276310000000  0.4381850000000  0.4652110000000 1.0
C      1  0.5005010000000  0.5888320000000  0.4366050000000 1.0
C      1  0.5645570000000  0.5530170000000  0.4367060000000 1.0
C      1  0.5866060000000  0.4822580000000  0.4348890000000 1.0
C      1  0.5391230000000  0.4230910000000  0.4378280000000 1.0
C      1  0.4675040000000  0.4214060000000  0.4334540000000 1.0
C      1  0.4150460000000  0.4792890000000  0.4389930000000 1.0
C      1  0.4327750000000  0.5520690000000  0.4359140000000 1.0
C      1  0.5443000000000  0.4948190000000  0.4073900000000 1.0
C      1  0.5344550000000  0.4641730000000  0.4072940000000 1.0
C      1  0.5074700000000  0.4528100000000  0.4085390000000 1.0
C      1  0.4543180000000  0.4786410000000  0.4139370000000 1.0
C      1  0.4510200000000  0.5071680000000  0.4108920000000 1.0
C      1  0.4870190000000  0.5485080000000  0.4170620000000 1.0
C      1  0.5164990000000  0.5415010000000  0.4128580000000 1.0
C      1  0.5030730000000  0.5491830000000  0.5890780000000 1.0
C      1  0.5439030000000  0.5294810000000  0.5873830000000 1.0
C      1  0.5470090000000  0.4876710000000  0.5925440000000 1.0
C      1  0.5181340000000  0.4495940000000  0.5892350000000 1.0
C      1  0.4765720000000  0.4577170000000  0.5984670000000 1.0
C      1  0.4496370000000  0.4943360000000  0.5947230000000 1.0
C      1  0.4616210000000  0.5393150000000  0.5875690000000 1.0
C      1  0.5289070000000  0.4295490000000  0.5445660000000 1.0
C      1  0.4647910000000  0.4326070000000  0.5384560000000 1.0
C      1  0.4274370000000  0.4782350000000  0.5434170000000 1.0
C      1  0.4393360000000  0.5541190000000  0.5464000000000 1.0
C      1  0.5020680000000  0.5781220000000  0.5480700000000 1.0
C      1  0.5644940000000  0.5483580000000  0.5449250000000 1.0
C      1  0.5725530000000  0.4793190000000  0.5480390000000 1.0
C      1  0.5217240000000  0.5278540000000  0.4390600000000 1.0
C      1  0.5366830000000  0.5047620000000  0.4345210000000 1.0
C      1  0.5435250000000  0.4838470000000  0.4488490000000 1.0
C      1  0.4968310000000  0.4698030000000  0.4297990000000 1.0
C      1  0.4688010000000  0.4675290000000  0.4381310000000 1.0
C      1  0.4727550000000  0.5104060000000  0.4297560000000 1.0
C      1  0.4733070000000  0.5356810000000  0.4388120000000 1.0
C      1  0.5767820000000  0.5260220000000  0.4384520000000 1.0
C      1  0.5645340000000  0.4623560000000  0.4435920000000 1.0
C      1  0.5112400000000  0.4168110000000  0.4388500000000 1.0
C      1  0.4450510000000  0.4413600000000  0.4391090000000 1.0
C      1  0.4183530000000  0.5078470000000  0.4431950000000 1.0
C      1  0.4523150000000  0.5725380000000  0.4373430000000 1.0
C      1  0.5287790000000  0.5810530000000  0.4381910000000 1.0
C      1  0.5408660000000  0.5269140000000  0.4917580000000 1.0
C      1  0.5475970000000  0.4772100000000  0.4890570000000 1.0
C      1  0.5134110000000  0.4441710000000  0.4855780000000 1.0
C      1  0.4689950000000  0.4614540000000  0.4854090000000 1.0
C      1  0.4505100000000  0.4984490000000  0.4926470000000 1.0
C      1  0.4665280000000  0.5417470000000  0.4854610000000 1.0
C      1  0.5117070000000  0.5593830000000  0.4770800000000 1.0
C      1  0.4312700000000  0.5253860000000  0.4241120000000 1.0
C      1  0.4781890000000  0.5749360000000  0.4231260000000 1.0
C      1  0.5403260000000  0.5604560000000  0.4228840000000 1.0
C      1  0.5733660000000  0.5034220000000  0.4207960000000 1.0
C      1  0.5498680000000  0.4457190000000  0.4224480000000 1.0
C      1  0.4935120000000  0.4285060000000  0.4203230000000 1.0
C      1  0.4320270000000  0.4622670000000  0.4218020000000 1.0
C      1  0.4318160000000  0.4582660000000  0.5073430000000 1.0
C      1  0.4301610000000  0.5259890000000  0.5070750000000 1.0
C      1  0.4740410000000  0.5552770000000  0.5081290000000 1.0
C      1  0.5405610000000  0.5649630000000  0.5130290000000 1.0
C      1  0.5649280000000  0.5186960000000  0.5010690000000 1.0
C      1  0.5579210000000  0.4411160000000  0.5092600000000 1.0
C      1  0.4912890000000  0.4290000000000  0.4987090000000 1.0
C      1  0.5610360000000  0.4121340000000  0.5094290000000 1.0
C      1  0.4817210000000  0.4014530000000  0.5040290000000 1.0
C      1  0.4030850000000  0.4550800000000  0.5079340000000 1.0
C      1  0.4079800000000  0.5456090000000  0.5072190000000 1.0
C      1  0.4853200000000  0.5983580000000  0.5031230000000 1.0
C      1  0.5667720000000  0.5765830000000  0.5078840000000 1.0
C      1  0.5989930000000  0.4908490000000  0.5032950000000 1.0
C      1  0.4984670000000  0.4981020000000  0.4254750000000 1.0
C      1  0.4969910000000  0.5055670000000  0.4979890000000 1.0
C      1  0.5158160000000  0.5096410000000  0.4014210000000 1.0
END
