TITL C-2441159-1093-528 0.020032236823233 125000 -10503.7421354579 0 0 74 (C1) n - 1
REM
REM in /home/bkarasulu/work/CARBON/AIRSS/Generating-Clusters/ReaxFF-fromJPCA2015/Units_Real/with-SteepDescent/Higher-Symm
REM
REM
REM
REM
REM
REM ./C.cell (1df0a924f5614ab8850e4351716899ee)
REM
REM compiler GCC version 9.2.1 20190827 (Red Hat 9.2.1-1)
REM options -cpp -mtune=generic -march=x86-64 -g -O0 -fpre-include=/usr/include/finclude/math-vector-fortran.h
REM seed -1870945511 2114636096 -900189170 -1985459629 -1494798952 -537821620 -971369504 227906369 -1475352676 -127820149 -1661117063 169621968 -1664223245 1124939405 -922885559 390590338 -551725379 1021863884 -2102409060 -879649859 -895342598 -596072387 681905448 -1194781681 -285672529 1032676137 1764168640 1864105647 1338076534 1235508714 -344099617 -1007782531 1713116002
REM
CELL 1.54180   50.00000   50.00000   50.00000   90.00000   90.00000   90.00000
LATT -1
SFAC C  
C      1  0.4587040000000  0.4545410000000  0.4688130000000 1.0
C      1  0.4575100000000  0.4560230000000  0.5320500000000 1.0
C      1  0.4252650000000  0.5287760000000  0.4837070000000 1.0
C      1  0.4206440000000  0.5279200000000  0.5129300000000 1.0
C      1  0.5239430000000  0.5281000000000  0.4273280000000 1.0
C      1  0.5247360000000  0.5274230000000  0.5732020000000 1.0
C      1  0.5409520000000  0.4884110000000  0.4398720000000 1.0
C      1  0.5410890000000  0.4880410000000  0.5601740000000 1.0
C      1  0.4713960000000  0.4317300000000  0.5397210000000 1.0
C      1  0.4746540000000  0.4305920000000  0.4621790000000 1.0
C      1  0.4982700000000  0.4623470000000  0.4322330000000 1.0
C      1  0.4975660000000  0.4619670000000  0.5659910000000 1.0
C      1  0.4771030000000  0.5622650000000  0.5369020000000 1.0
C      1  0.4779510000000  0.5614390000000  0.4612930000000 1.0
C      1  0.4532550000000  0.5477950000000  0.5439000000000 1.0
C      1  0.4524420000000  0.5472440000000  0.4593290000000 1.0
C      1  0.4928930000000  0.5351750000000  0.4616280000000 1.0
C      1  0.4933810000000  0.5367220000000  0.5386600000000 1.0
C      1  0.5244160000000  0.4191690000000  0.4892650000000 1.0
C      1  0.5255750000000  0.4139210000000  0.5118740000000 1.0
C      1  0.5199020000000  0.4366910000000  0.5277490000000 1.0
C      1  0.5203140000000  0.4386430000000  0.4696880000000 1.0
C      1  0.5722260000000  0.4880610000000  0.5146290000000 1.0
C      1  0.5722950000000  0.4881370000000  0.4852820000000 1.0
C      1  0.4528810000000  0.4735900000000  0.4474030000000 1.0
C      1  0.4517940000000  0.4751010000000  0.5530820000000 1.0
C      1  0.5430330000000  0.5157900000000  0.5548150000000 1.0
C      1  0.5427800000000  0.5162580000000  0.4449080000000 1.0
C      1  0.4806630000000  0.5802040000000  0.5143370000000 1.0
C      1  0.4808690000000  0.5797140000000  0.4847040000000 1.0
C      1  0.4973690000000  0.4392010000000  0.5477810000000 1.0
C      1  0.4995550000000  0.4402810000000  0.4500470000000 1.0
C      1  0.5079040000000  0.5165460000000  0.4851700000000 1.0
C      1  0.5077310000000  0.5165760000000  0.5148160000000 1.0
C      1  0.4751280000000  0.4719620000000  0.4870540000000 1.0
C      1  0.4742870000000  0.4722780000000  0.5141520000000 1.0
C      1  0.5028450000000  0.4862700000000  0.5153090000000 1.0
C      1  0.5032090000000  0.4862220000000  0.4842020000000 1.0
C      1  0.5564020000000  0.4660400000000  0.5272620000000 1.0
C      1  0.5570650000000  0.4662450000000  0.4718720000000 1.0
C      1  0.5365280000000  0.5727820000000  0.4847270000000 1.0
C      1  0.5361200000000  0.5730060000000  0.5149590000000 1.0
C      1  0.5193440000000  0.4792890000000  0.4241220000000 1.0
C      1  0.5186610000000  0.4786720000000  0.5749480000000 1.0
C      1  0.5076210000000  0.5688450000000  0.4872320000000 1.0
C      1  0.5073450000000  0.5694150000000  0.5131240000000 1.0
C      1  0.5280160000000  0.4625490000000  0.5140140000000 1.0
C      1  0.5280100000000  0.4626630000000  0.4841640000000 1.0
C      1  0.5073500000000  0.5051130000000  0.5814980000000 1.0
C      1  0.5072330000000  0.5057250000000  0.4185110000000 1.0
C      1  0.4780380000000  0.4224530000000  0.5150480000000 1.0
C      1  0.4763700000000  0.4227700000000  0.4891770000000 1.0
C      1  0.4646810000000  0.5209880000000  0.4469540000000 1.0
C      1  0.4650870000000  0.5211010000000  0.5534440000000 1.0
C      1  0.4743200000000  0.4781510000000  0.5717770000000 1.0
C      1  0.4743460000000  0.4782200000000  0.4280190000000 1.0
C      1  0.5390980000000  0.5248000000000  0.5284110000000 1.0
C      1  0.5393060000000  0.5252620000000  0.4712930000000 1.0
C      1  0.5614920000000  0.5152930000000  0.5137800000000 1.0
C      1  0.5617750000000  0.5154890000000  0.4861150000000 1.0
C      1  0.4793280000000  0.5062140000000  0.5760760000000 1.0
C      1  0.4791480000000  0.5063600000000  0.4243260000000 1.0
C      1  0.4328160000000  0.4999820000000  0.4846690000000 1.0
C      1  0.4325000000000  0.5010790000000  0.5147740000000 1.0
C      1  0.5364280000000  0.5537110000000  0.4634810000000 1.0
C      1  0.5371990000000  0.5542430000000  0.5363800000000 1.0
C      1  0.5155990000000  0.5484470000000  0.5549680000000 1.0
C      1  0.5138070000000  0.5493580000000  0.4453330000000 1.0
C      1  0.5501650000000  0.4629990000000  0.5544050000000 1.0
C      1  0.5507590000000  0.4634760000000  0.4446870000000 1.0
C      1  0.4486580000000  0.5000210000000  0.5388480000000 1.0
C      1  0.4494120000000  0.4988570000000  0.4607730000000 1.0
C      1  0.4431120000000  0.5461920000000  0.5165030000000 1.0
C      1  0.4503310000000  0.5430630000000  0.4881420000000 1.0
END
