TITL C-2441166-8118-165 0.00185632861246173 125000 -7583.45348822411 0 0 54 (C1) n - 1
REM
REM in /home/bkarasulu/work/CARBON/AIRSS/Generating-Clusters/ReaxFF-fromJPCA2015/Units_Real/with-SteepDescent/Higher-Symm
REM
REM
REM
REM
REM
REM ./C.cell (1df0a924f5614ab8850e4351716899ee)
REM
REM compiler GCC version 9.2.1 20190827 (Red Hat 9.2.1-1)
REM options -cpp -mtune=generic -march=x86-64 -g -O0 -fpre-include=/usr/include/finclude/math-vector-fortran.h
REM seed 1222789635 2181345 -808700591 -1449534171 -641580453 -1451056013 -1517023302 299795242 -1620725537 -1587584026 1333050357 -152387950 1090580720 1666329008 1694020416 738406776 -412151009 -1364912906 6817143 1386954695 3681214 893261584 -970302421 300304111 -658127503 14709738 303587929 1999328789 1468355477 1921716453 1481407752 764616157 -137190188
REM
CELL 1.54180   50.00000   50.00000   50.00000   90.00000   90.00000   90.00000
LATT -1
SFAC C  
C      1  0.4837940000000  0.5272940000000  0.4385950000000 1.0
C      1  0.4523250000000  0.5230870000000  0.4795090000000 1.0
C      1  0.4453280000000  0.5279170000000  0.5307170000000 1.0
C      1  0.4887030000000  0.5279960000000  0.5594280000000 1.0
C      1  0.5404010000000  0.5264710000000  0.5449960000000 1.0
C      1  0.5596320000000  0.5301390000000  0.4976530000000 1.0
C      1  0.5279000000000  0.5393740000000  0.4596460000000 1.0
C      1  0.4735210000000  0.5747680000000  0.5013500000000 1.0
C      1  0.4788960000000  0.5641150000000  0.5290570000000 1.0
C      1  0.5062800000000  0.5653090000000  0.5276750000000 1.0
C      1  0.5323230000000  0.5672240000000  0.5183450000000 1.0
C      1  0.5236850000000  0.5805040000000  0.4923280000000 1.0
C      1  0.5151620000000  0.5612800000000  0.4716450000000 1.0
C      1  0.4870690000000  0.5693210000000  0.4755410000000 1.0
C      1  0.5522020000000  0.5305170000000  0.4709630000000 1.0
C      1  0.5124990000000  0.5253470000000  0.4401400000000 1.0
C      1  0.4599520000000  0.5280670000000  0.4533240000000 1.0
C      1  0.4380120000000  0.5302220000000  0.5026730000000 1.0
C      1  0.4683400000000  0.5394180000000  0.5430420000000 1.0
C      1  0.5162880000000  0.5278060000000  0.5619040000000 1.0
C      1  0.5469280000000  0.5414010000000  0.5208630000000 1.0
C      1  0.5513450000000  0.4459320000000  0.5041810000000 1.0
C      1  0.5279120000000  0.4421040000000  0.4694730000000 1.0
C      1  0.4898500000000  0.4463820000000  0.4513760000000 1.0
C      1  0.4573910000000  0.4475550000000  0.4770800000000 1.0
C      1  0.4560130000000  0.4460230000000  0.5184640000000 1.0
C      1  0.4873310000000  0.4462040000000  0.5453350000000 1.0
C      1  0.5283870000000  0.4467130000000  0.5386670000000 1.0
C      1  0.5094190000000  0.4529870000000  0.5567060000000 1.0
C      1  0.5527620000000  0.4505340000000  0.5297050000000 1.0
C      1  0.5521920000000  0.4535120000000  0.4794290000000 1.0
C      1  0.5163070000000  0.4497840000000  0.4436470000000 1.0
C      1  0.4653450000000  0.4538820000000  0.4525150000000 1.0
C      1  0.4415820000000  0.4535880000000  0.4973760000000 1.0
C      1  0.4610830000000  0.4501590000000  0.5436690000000 1.0
C      1  0.4358860000000  0.4802540000000  0.4925270000000 1.0
C      1  0.4531080000000  0.4777430000000  0.5450640000000 1.0
C      1  0.5053880000000  0.4792860000000  0.5644240000000 1.0
C      1  0.5556010000000  0.4778490000000  0.5366280000000 1.0
C      1  0.5584190000000  0.4799160000000  0.4801330000000 1.0
C      1  0.5228810000000  0.4765140000000  0.4333740000000 1.0
C      1  0.4648940000000  0.4798590000000  0.4439810000000 1.0
C      1  0.5013780000000  0.5054460000000  0.5721020000000 1.0
C      1  0.5503210000000  0.5001940000000  0.5406070000000 1.0
C      1  0.5647030000000  0.5065560000000  0.4808440000000 1.0
C      1  0.5218400000000  0.4993010000000  0.4325940000000 1.0
C      1  0.4644400000000  0.5060380000000  0.4353800000000 1.0
C      1  0.4302460000000  0.5066830000000  0.4877210000000 1.0
C      1  0.4492120000000  0.5025190000000  0.5417300000000 1.0
C      1  0.5008800000000  0.4688160000000  0.4986000000000 1.0
C      1  0.5063300000000  0.4412430000000  0.4928880000000 1.0
C      1  0.4958780000000  0.5915900000000  0.4928400000000 1.0
C      1  0.4986070000000  0.5181430000000  0.5017690000000 1.0
C      1  0.4989740000000  0.4940480000000  0.5008930000000 1.0
END
