TITL C-2441154-10-748 0.135296514692837 125000 -23079.9707966564 0 0 179 (C1) n - 1
REM
REM in /home/bkarasulu/work/CARBON/AIRSS/Generating-Clusters/ReaxFF-fromJPCA2015/Units_Real/with-SteepDescent/Higher-Symm
REM
REM
REM
REM
REM
REM ./C.cell (1df0a924f5614ab8850e4351716899ee)
REM
REM compiler GCC version 9.2.1 20190827 (Red Hat 9.2.1-1)
REM options -cpp -mtune=generic -march=x86-64 -g -O0 -fpre-include=/usr/include/finclude/math-vector-fortran.h
REM seed 1164648621 -74991872 -903449903 -1114449609 1522168237 -1391988620 -897550239 -486342066 -162978194 242224395 1965144288 1033175598 614536525 -1909502112 6683988 2127055635 1949692583 -560327530 1913251715 -1077773891 -1830822789 2062078884 1338870694 562542028 245110665 -592107474 1975774034 1143226295 403187340 1887635083 -852773064 1775002203 -81393240
REM
CELL 1.54180   50.00000   50.00000   50.00000   90.00000   90.00000   90.00000
LATT -1
SFAC C  
C      1  0.5372600000000  0.6029190000000  0.4919710000000 1.0
C      1  0.5385200000000  0.5238860000000  0.4008790000000 1.0
C      1  0.5354510000000  0.4127560000000  0.4486630000000 1.0
C      1  0.5375150000000  0.4211330000000  0.5680980000000 1.0
C      1  0.5359400000000  0.5383300000000  0.5933430000000 1.0
C      1  0.4670580000000  0.6037230000000  0.4901620000000 1.0
C      1  0.4665100000000  0.5209950000000  0.3954920000000 1.0
C      1  0.4653550000000  0.4086180000000  0.4475230000000 1.0
C      1  0.4673160000000  0.4198420000000  0.5712210000000 1.0
C      1  0.4653400000000  0.5389440000000  0.5959970000000 1.0
C      1  0.5906400000000  0.5538990000000  0.5193190000000 1.0
C      1  0.5954750000000  0.5397600000000  0.4583350000000 1.0
C      1  0.5943520000000  0.4734110000000  0.4504360000000 1.0
C      1  0.5961080000000  0.4410070000000  0.5066660000000 1.0
C      1  0.5911170000000  0.4821240000000  0.5564750000000 1.0
C      1  0.4065130000000  0.5503480000000  0.5284580000000 1.0
C      1  0.4094070000000  0.5477910000000  0.4639030000000 1.0
C      1  0.4077420000000  0.4666310000000  0.4480740000000 1.0
C      1  0.4081860000000  0.4422120000000  0.5112370000000 1.0
C      1  0.4122160000000  0.4880020000000  0.5524330000000 1.0
C      1  0.4763690000000  0.5201220000000  0.4212130000000 1.0
C      1  0.4769450000000  0.4319780000000  0.4562830000000 1.0
C      1  0.4749920000000  0.4387960000000  0.5517820000000 1.0
C      1  0.4814260000000  0.5330700000000  0.5733230000000 1.0
C      1  0.4780200000000  0.5773440000000  0.4844240000000 1.0
C      1  0.5192100000000  0.5164040000000  0.4217510000000 1.0
C      1  0.5204950000000  0.4288320000000  0.4676320000000 1.0
C      1  0.5236500000000  0.4432360000000  0.5545310000000 1.0
C      1  0.5206310000000  0.5382710000000  0.5683910000000 1.0
C      1  0.5200110000000  0.5793260000000  0.4892830000000 1.0
C      1  0.5662670000000  0.5662370000000  0.5632030000000 1.0
C      1  0.5660840000000  0.5837800000000  0.4547900000000 1.0
C      1  0.5638840000000  0.4813410000000  0.4075910000000 1.0
C      1  0.5643040000000  0.4047930000000  0.4868810000000 1.0
C      1  0.5612340000000  0.4574230000000  0.5886590000000 1.0
C      1  0.4383240000000  0.5687770000000  0.5659580000000 1.0
C      1  0.4383660000000  0.5879110000000  0.4528340000000 1.0
C      1  0.4360950000000  0.4808770000000  0.4070170000000 1.0
C      1  0.4361420000000  0.4058510000000  0.4872110000000 1.0
C      1  0.4376970000000  0.4587830000000  0.5856500000000 1.0
C      1  0.4450030000000  0.4554160000000  0.4149100000000 1.0
C      1  0.4414830000000  0.4037860000000  0.5146700000000 1.0
C      1  0.4431610000000  0.4859690000000  0.5931400000000 1.0
C      1  0.4452240000000  0.5841470000000  0.5427630000000 1.0
C      1  0.4451230000000  0.5678360000000  0.4332450000000 1.0
C      1  0.5581180000000  0.4551610000000  0.4174800000000 1.0
C      1  0.5570040000000  0.4082810000000  0.5143930000000 1.0
C      1  0.5542060000000  0.4854070000000  0.5923750000000 1.0
C      1  0.5586030000000  0.5850840000000  0.5423800000000 1.0
C      1  0.5597880000000  0.5662520000000  0.4331510000000 1.0
C      1  0.4854170000000  0.4118700000000  0.5470640000000 1.0
C      1  0.4860090000000  0.5177970000000  0.5993180000000 1.0
C      1  0.4847390000000  0.6024500000000  0.5147200000000 1.0
C      1  0.4869920000000  0.5459800000000  0.4123340000000 1.0
C      1  0.4876900000000  0.4281940000000  0.4291860000000 1.0
C      1  0.5177210000000  0.4127020000000  0.5464880000000 1.0
C      1  0.5167040000000  0.5172540000000  0.6022700000000 1.0
C      1  0.5161920000000  0.5989710000000  0.5129960000000 1.0
C      1  0.5168560000000  0.5438360000000  0.4106320000000 1.0
C      1  0.5176470000000  0.4243700000000  0.4271450000000 1.0
C      1  0.5417050000000  0.3945090000000  0.4708860000000 1.0
C      1  0.5391140000000  0.4374680000000  0.5928600000000 1.0
C      1  0.5453480000000  0.5651400000000  0.5849560000000 1.0
C      1  0.5430580000000  0.6009980000000  0.4635600000000 1.0
C      1  0.5410400000000  0.4955840000000  0.3942110000000 1.0
C      1  0.4614530000000  0.3957820000000  0.4729250000000 1.0
C      1  0.4619530000000  0.4406740000000  0.5912880000000 1.0
C      1  0.4615060000000  0.5656170000000  0.5845530000000 1.0
C      1  0.4615640000000  0.6056030000000  0.4609460000000 1.0
C      1  0.4608250000000  0.4933520000000  0.3933660000000 1.0
C      1  0.4460150000000  0.5330920000000  0.4519970000000 1.0
C      1  0.4503200000000  0.4671870000000  0.4522410000000 1.0
C      1  0.4517150000000  0.4425930000000  0.5162400000000 1.0
C      1  0.4555330000000  0.4963100000000  0.5541050000000 1.0
C      1  0.4444400000000  0.5544240000000  0.5159010000000 1.0
C      1  0.5542690000000  0.5327980000000  0.4537800000000 1.0
C      1  0.5548200000000  0.4658620000000  0.4554150000000 1.0
C      1  0.5587600000000  0.4474830000000  0.5204280000000 1.0
C      1  0.5504080000000  0.5018020000000  0.5566450000000 1.0
C      1  0.5445060000000  0.5564860000000  0.5175110000000 1.0
C      1  0.4738030000000  0.5839220000000  0.5345730000000 1.0
C      1  0.4745860000000  0.5630110000000  0.4349630000000 1.0
C      1  0.4756310000000  0.4569480000000  0.4160720000000 1.0
C      1  0.4731330000000  0.4022900000000  0.5148570000000 1.0
C      1  0.4737090000000  0.4862980000000  0.5958660000000 1.0
C      1  0.5288270000000  0.5884690000000  0.5433660000000 1.0
C      1  0.5293580000000  0.5649790000000  0.4339980000000 1.0
C      1  0.5289490000000  0.4512070000000  0.4223770000000 1.0
C      1  0.5273550000000  0.4130920000000  0.5164400000000 1.0
C      1  0.5254630000000  0.4927190000000  0.5892050000000 1.0
C      1  0.4659360000000  0.5214360000000  0.5495250000000 1.0
C      1  0.4501210000000  0.5617260000000  0.4887470000000 1.0
C      1  0.4588410000000  0.5110530000000  0.4438050000000 1.0
C      1  0.4617990000000  0.4563170000000  0.4735370000000 1.0
C      1  0.4493860000000  0.4568730000000  0.5415900000000 1.0
C      1  0.5401640000000  0.5264450000000  0.5522740000000 1.0
C      1  0.5355670000000  0.5529350000000  0.4926050000000 1.0
C      1  0.5368800000000  0.5117340000000  0.4489670000000 1.0
C      1  0.5380770000000  0.4558590000000  0.4749630000000 1.0
C      1  0.5509300000000  0.4595920000000  0.5429610000000 1.0
C      1  0.4297200000000  0.5009240000000  0.5720600000000 1.0
C      1  0.4245350000000  0.5740260000000  0.5225690000000 1.0
C      1  0.4245660000000  0.5469150000000  0.4379260000000 1.0
C      1  0.4304060000000  0.4491380000000  0.4400510000000 1.0
C      1  0.4277150000000  0.4265040000000  0.5265520000000 1.0
C      1  0.5737400000000  0.4991850000000  0.5739150000000 1.0
C      1  0.5705140000000  0.5749630000000  0.5176790000000 1.0
C      1  0.5753470000000  0.5411170000000  0.4355640000000 1.0
C      1  0.5758080000000  0.4513080000000  0.4416120000000 1.0
C      1  0.5778440000000  0.4263950000000  0.5258460000000 1.0
C      1  0.4436220000000  0.5354250000000  0.5364620000000 1.0
C      1  0.4489860000000  0.5362670000000  0.4776040000000 1.0
C      1  0.4374630000000  0.4926540000000  0.4518680000000 1.0
C      1  0.4427010000000  0.4506320000000  0.4914750000000 1.0
C      1  0.4540000000000  0.4814980000000  0.5299170000000 1.0
C      1  0.5563530000000  0.5329620000000  0.5299180000000 1.0
C      1  0.5580220000000  0.5459670000000  0.4770500000000 1.0
C      1  0.5581430000000  0.4919680000000  0.4497130000000 1.0
C      1  0.5591780000000  0.4504310000000  0.4936240000000 1.0
C      1  0.5501690000000  0.4869880000000  0.5327570000000 1.0
C      1  0.5131000000000  0.4499840000000  0.5858970000000 1.0
C      1  0.5174010000000  0.5705560000000  0.5717630000000 1.0
C      1  0.5169040000000  0.5892830000000  0.4562790000000 1.0
C      1  0.5123180000000  0.4915360000000  0.4011460000000 1.0
C      1  0.5150990000000  0.4046080000000  0.4853240000000 1.0
C      1  0.4869450000000  0.4556580000000  0.5973550000000 1.0
C      1  0.4881890000000  0.5644280000000  0.5728070000000 1.0
C      1  0.4852320000000  0.5871840000000  0.4556730000000 1.0
C      1  0.4865360000000  0.4787090000000  0.3970310000000 1.0
C      1  0.4860180000000  0.3952960000000  0.4889140000000 1.0
C      1  0.5748910000000  0.4589740000000  0.5628640000000 1.0
C      1  0.5804710000000  0.5467750000000  0.5457000000000 1.0
C      1  0.5808860000000  0.5629420000000  0.4707070000000 1.0
C      1  0.5804840000000  0.4912900000000  0.4307500000000 1.0
C      1  0.5794320000000  0.4311890000000  0.4845460000000 1.0
C      1  0.4241050000000  0.4620770000000  0.5599780000000 1.0
C      1  0.4220890000000  0.5464970000000  0.5534230000000 1.0
C      1  0.4239880000000  0.5710750000000  0.4720720000000 1.0
C      1  0.4173970000000  0.4872160000000  0.4293770000000 1.0
C      1  0.4212270000000  0.4320060000000  0.4861820000000 1.0
C      1  0.5999100000000  0.4852050000000  0.4768400000000 1.0
C      1  0.6010100000000  0.4703360000000  0.5035010000000 1.0
C      1  0.6014440000000  0.4858510000000  0.5286170000000 1.0
C      1  0.6011500000000  0.5321100000000  0.4992910000000 1.0
C      1  0.6015180000000  0.5161540000000  0.4752380000000 1.0
C      1  0.4015700000000  0.4756000000000  0.4765090000000 1.0
C      1  0.4028850000000  0.4715740000000  0.5064250000000 1.0
C      1  0.4049490000000  0.4959010000000  0.5241240000000 1.0
C      1  0.4035750000000  0.5241780000000  0.5132840000000 1.0
C      1  0.4056830000000  0.5250630000000  0.4838080000000 1.0
C      1  0.4822910000000  0.5103160000000  0.5310190000000 1.0
C      1  0.4751580000000  0.5245010000000  0.5109090000000 1.0
C      1  0.4731350000000  0.5006690000000  0.4735560000000 1.0
C      1  0.4793520000000  0.4757100000000  0.4830160000000 1.0
C      1  0.4787820000000  0.4793490000000  0.5153390000000 1.0
C      1  0.5191930000000  0.5068550000000  0.5176980000000 1.0
C      1  0.5185790000000  0.5271430000000  0.4979880000000 1.0
C      1  0.5207570000000  0.5072440000000  0.4727080000000 1.0
C      1  0.5222050000000  0.4794400000000  0.4817550000000 1.0
C      1  0.5233120000000  0.4801930000000  0.5112090000000 1.0
C      1  0.5069600000000  0.4366380000000  0.5116490000000 1.0
C      1  0.5092650000000  0.4890000000000  0.5644100000000 1.0
C      1  0.5204110000000  0.5633270000000  0.5321130000000 1.0
C      1  0.5158920000000  0.5494350000000  0.4543790000000 1.0
C      1  0.5140680000000  0.4698910000000  0.4394760000000 1.0
C      1  0.4798480000000  0.4308750000000  0.5095650000000 1.0
C      1  0.4816210000000  0.4831860000000  0.5677250000000 1.0
C      1  0.4924020000000  0.5601280000000  0.5289630000000 1.0
C      1  0.4894100000000  0.5441420000000  0.4570770000000 1.0
C      1  0.4865140000000  0.4737860000000  0.4399730000000 1.0
C      1  0.4943730000000  0.5434340000000  0.5051760000000 1.0
C      1  0.5071370000000  0.5082460000000  0.5416180000000 1.0
C      1  0.5026050000000  0.4621520000000  0.5228210000000 1.0
C      1  0.5011850000000  0.4674570000000  0.4682800000000 1.0
C      1  0.4948180000000  0.5161780000000  0.4630960000000 1.0
C      1  0.5622480000000  0.5073910000000  0.5157120000000 1.0
C      1  0.4568560000000  0.5150320000000  0.4924500000000 1.0
C      1  0.5901840000000  0.5090350000000  0.5144410000000 1.0
C      1  0.4171340000000  0.4993970000000  0.4767750000000 1.0
END
