TITL C-2441157-2117-786 0.0309084994084418 125000 -22007.5443559093 0 0 156 (C1) n - 1
REM
REM in /home/bkarasulu/work/CARBON/AIRSS/Generating-Clusters/ReaxFF-fromJPCA2015/Units_Real/with-SteepDescent/Higher-Symm
REM
REM
REM
REM
REM
REM ./C.cell (1df0a924f5614ab8850e4351716899ee)
REM
REM compiler GCC version 9.2.1 20190827 (Red Hat 9.2.1-1)
REM options -cpp -mtune=generic -march=x86-64 -g -O0 -fpre-include=/usr/include/finclude/math-vector-fortran.h
REM seed -1610871608 2029310280 -1332934744 340442087 1605117776 -754025289 -1964014911 -157251539 -58052148 838022672 1323928285 -98498865 -627835195 -964955030 1694426479 -548641134 759390674 1262991647 -848425532 -322023024 -1383169046 218211181 487528677 475623667 -1727894712 -25974546 -1666737989 -105018781 -1082006458 1453063446 1814211370 -1119491636 -368318993
REM
CELL 1.54180   50.00000   50.00000   50.00000   90.00000   90.00000   90.00000
LATT -1
SFAC C  
C      1  0.4884760000000  0.4390480000000  0.4774350000000 1.0
C      1  0.4879260000000  0.5514900000000  0.4573300000000 1.0
C      1  0.4887540000000  0.5067480000000  0.5660180000000 1.0
C      1  0.5096930000000  0.5629320000000  0.4728850000000 1.0
C      1  0.5103440000000  0.4502070000000  0.4606180000000 1.0
C      1  0.5121590000000  0.4956460000000  0.5657790000000 1.0
C      1  0.4984170000000  0.5299730000000  0.5242870000000 1.0
C      1  0.4805390000000  0.4920140000000  0.5065370000000 1.0
C      1  0.4852430000000  0.5037080000000  0.4809520000000 1.0
C      1  0.4998750000000  0.4741290000000  0.5258850000000 1.0
C      1  0.5194370000000  0.5160130000000  0.5014220000000 1.0
C      1  0.5110440000000  0.5024520000000  0.4781430000000 1.0
C      1  0.5406330000000  0.5052560000000  0.5205560000000 1.0
C      1  0.5497650000000  0.4732180000000  0.4945070000000 1.0
C      1  0.5627270000000  0.5103060000000  0.4730840000000 1.0
C      1  0.4573800000000  0.4935570000000  0.5235410000000 1.0
C      1  0.4453510000000  0.5292480000000  0.4848360000000 1.0
C      1  0.4480160000000  0.4791310000000  0.4788500000000 1.0
C      1  0.5254220000000  0.5394940000000  0.4220830000000 1.0
C      1  0.5251220000000  0.5505400000000  0.5743850000000 1.0
C      1  0.5292780000000  0.4022330000000  0.5052120000000 1.0
C      1  0.4748930000000  0.4606410000000  0.4221770000000 1.0
C      1  0.4764130000000  0.4516180000000  0.5736030000000 1.0
C      1  0.4722390000000  0.5813960000000  0.5070910000000 1.0
C      1  0.4351080000000  0.5604760000000  0.4537280000000 1.0
C      1  0.4328880000000  0.5163310000000  0.5766190000000 1.0
C      1  0.4272830000000  0.4316350000000  0.4708910000000 1.0
C      1  0.5742430000000  0.4413340000000  0.4573030000000 1.0
C      1  0.5653670000000  0.4850840000000  0.5784410000000 1.0
C      1  0.5740470000000  0.5638820000000  0.4670190000000 1.0
C      1  0.4074380000000  0.5440560000000  0.4962600000000 1.0
C      1  0.4124030000000  0.4835180000000  0.5384350000000 1.0
C      1  0.4046000000000  0.4742250000000  0.4597440000000 1.0
C      1  0.5982150000000  0.4593430000000  0.4967910000000 1.0
C      1  0.5877690000000  0.5189420000000  0.5383820000000 1.0
C      1  0.6006510000000  0.5216530000000  0.4616570000000 1.0
C      1  0.5355680000000  0.4581470000000  0.5461560000000 1.0
C      1  0.5291580000000  0.4822950000000  0.4402380000000 1.0
C      1  0.5296080000000  0.5590960000000  0.5180390000000 1.0
C      1  0.4660250000000  0.5426950000000  0.5490600000000 1.0
C      1  0.4666260000000  0.5202120000000  0.4406600000000 1.0
C      1  0.4717810000000  0.4403800000000  0.5135010000000 1.0
C      1  0.4353850000000  0.5737890000000  0.5320360000000 1.0
C      1  0.4378470000000  0.4357040000000  0.5499390000000 1.0
C      1  0.4367460000000  0.4882740000000  0.4167510000000 1.0
C      1  0.5653280000000  0.4204650000000  0.5304060000000 1.0
C      1  0.5627850000000  0.5655050000000  0.5482240000000 1.0
C      1  0.5619070000000  0.5107400000000  0.4175220000000 1.0
C      1  0.4442160000000  0.5384700000000  0.4346950000000 1.0
C      1  0.4476740000000  0.5439060000000  0.5720590000000 1.0
C      1  0.4498570000000  0.4242660000000  0.5043780000000 1.0
C      1  0.5472770000000  0.4650000000000  0.4258060000000 1.0
C      1  0.5451160000000  0.4630500000000  0.5746280000000 1.0
C      1  0.5459350000000  0.5802520000000  0.5083100000000 1.0
C      1  0.5785350000000  0.5145110000000  0.5629050000000 1.0
C      1  0.5882630000000  0.4364840000000  0.4835970000000 1.0
C      1  0.5882720000000  0.5443260000000  0.4495530000000 1.0
C      1  0.4195760000000  0.4861820000000  0.5631360000000 1.0
C      1  0.4182130000000  0.5635010000000  0.4798680000000 1.0
C      1  0.4131780000000  0.4498060000000  0.4506900000000 1.0
C      1  0.5473240000000  0.5551220000000  0.4311970000000 1.0
C      1  0.5489010000000  0.5333520000000  0.5859940000000 1.0
C      1  0.5478070000000  0.4125160000000  0.4851170000000 1.0
C      1  0.4522760000000  0.4420920000000  0.4321580000000 1.0
C      1  0.4532010000000  0.4701290000000  0.5846070000000 1.0
C      1  0.4531640000000  0.5890220000000  0.4874520000000 1.0
C      1  0.4316760000000  0.4599760000000  0.5681740000000 1.0
C      1  0.4305480000000  0.4603590000000  0.4288130000000 1.0
C      1  0.4302500000000  0.5781980000000  0.5021310000000 1.0
C      1  0.5698460000000  0.5417400000000  0.5677760000000 1.0
C      1  0.5693490000000  0.5370270000000  0.4282990000000 1.0
C      1  0.5700980000000  0.4203380000000  0.5008700000000 1.0
C      1  0.4709310000000  0.4626740000000  0.4731640000000 1.0
C      1  0.4745960000000  0.5319990000000  0.4792150000000 1.0
C      1  0.4761290000000  0.5164660000000  0.5412600000000 1.0
C      1  0.5257320000000  0.5398370000000  0.4825130000000 1.0
C      1  0.5229530000000  0.4705610000000  0.4817710000000 1.0
C      1  0.5248420000000  0.4864140000000  0.5405050000000 1.0
C      1  0.4620720000000  0.5828920000000  0.5352360000000 1.0
C      1  0.4647540000000  0.4282530000000  0.5563190000000 1.0
C      1  0.4636370000000  0.4865850000000  0.4091150000000 1.0
C      1  0.5377720000000  0.4105610000000  0.5315530000000 1.0
C      1  0.5366010000000  0.5733990000000  0.5563480000000 1.0
C      1  0.5345390000000  0.5146350000000  0.4108550000000 1.0
C      1  0.5173690000000  0.4269340000000  0.5460720000000 1.0
C      1  0.5140810000000  0.4930390000000  0.4144530000000 1.0
C      1  0.5145120000000  0.5779190000000  0.5370040000000 1.0
C      1  0.4824460000000  0.5691350000000  0.5518720000000 1.0
C      1  0.4818260000000  0.5095350000000  0.4149180000000 1.0
C      1  0.4845170000000  0.4204120000000  0.5347920000000 1.0
C      1  0.4963170000000  0.4496570000000  0.4064040000000 1.0
C      1  0.4905240000000  0.5985570000000  0.5010420000000 1.0
C      1  0.5016040000000  0.4445800000000  0.5926170000000 1.0
C      1  0.5052910000000  0.5519010000000  0.4051540000000 1.0
C      1  0.5046030000000  0.3878920000000  0.5025750000000 1.0
C      1  0.5039770000000  0.5567280000000  0.5931430000000 1.0
C      1  0.4498500000000  0.5368000000000  0.5120080000000 1.0
C      1  0.4600420000000  0.4642440000000  0.5288810000000 1.0
C      1  0.4564500000000  0.4960240000000  0.4543220000000 1.0
C      1  0.5521960000000  0.4631080000000  0.5210350000000 1.0
C      1  0.5409640000000  0.5330190000000  0.5308660000000 1.0
C      1  0.5419680000000  0.5051930000000  0.4544200000000 1.0
C      1  0.5725650000000  0.4813790000000  0.5286850000000 1.0
C      1  0.5756190000000  0.4847700000000  0.4739500000000 1.0
C      1  0.5728800000000  0.5271150000000  0.4946570000000 1.0
C      1  0.4304390000000  0.5186450000000  0.5256300000000 1.0
C      1  0.4233110000000  0.5160280000000  0.4698020000000 1.0
C      1  0.4264110000000  0.4715410000000  0.4967500000000 1.0
C      1  0.4779560000000  0.5463010000000  0.5078030000000 1.0
C      1  0.4812810000000  0.4650940000000  0.5473100000000 1.0
C      1  0.4793540000000  0.4789130000000  0.4508720000000 1.0
C      1  0.5142780000000  0.4548170000000  0.5070620000000 1.0
C      1  0.5174640000000  0.5333550000000  0.5475030000000 1.0
C      1  0.5210490000000  0.5234190000000  0.4587700000000 1.0
C      1  0.4098350000000  0.5200110000000  0.4451210000000 1.0
C      1  0.4174090000000  0.5271020000000  0.5515750000000 1.0
C      1  0.4180650000000  0.4432880000000  0.4969610000000 1.0
C      1  0.5808750000000  0.4681230000000  0.4476990000000 1.0
C      1  0.5807090000000  0.4690080000000  0.5544430000000 1.0
C      1  0.5763150000000  0.5559640000000  0.4951650000000 1.0
C      1  0.4546800000000  0.4990030000000  0.5884610000000 1.0
C      1  0.4517130000000  0.4245470000000  0.4559760000000 1.0
C      1  0.4534420000000  0.5810930000000  0.4582790000000 1.0
C      1  0.5457000000000  0.5048120000000  0.5906020000000 1.0
C      1  0.5497480000000  0.5737270000000  0.4539410000000 1.0
C      1  0.5493250000000  0.4257340000000  0.4582400000000 1.0
C      1  0.5944470000000  0.5154930000000  0.5118920000000 1.0
C      1  0.5985860000000  0.4827740000000  0.5118270000000 1.0
C      1  0.6020670000000  0.4989380000000  0.4762720000000 1.0
C      1  0.4058770000000  0.4870320000000  0.5118740000000 1.0
C      1  0.4048330000000  0.5194860000000  0.5090820000000 1.0
C      1  0.4004960000000  0.4974420000000  0.4735670000000 1.0
C      1  0.5149930000000  0.4299450000000  0.5742070000000 1.0
C      1  0.5144200000000  0.4671350000000  0.4006430000000 1.0
C      1  0.5119220000000  0.6017760000000  0.5165810000000 1.0
C      1  0.4829330000000  0.5669560000000  0.5817530000000 1.0
C      1  0.4818510000000  0.5362300000000  0.4006320000000 1.0
C      1  0.4833240000000  0.3956230000000  0.5180670000000 1.0
C      1  0.4759400000000  0.5720910000000  0.4405540000000 1.0
C      1  0.4807770000000  0.5124610000000  0.5934260000000 1.0
C      1  0.4759210000000  0.4137290000000  0.4691500000000 1.0
C      1  0.5252050000000  0.4329000000000  0.4431510000000 1.0
C      1  0.5183920000000  0.4932220000000  0.5942070000000 1.0
C      1  0.5274230000000  0.5861040000000  0.4684370000000 1.0
C      1  0.5768590000000  0.4406000000000  0.5491220000000 1.0
C      1  0.5703730000000  0.4823360000000  0.4236540000000 1.0
C      1  0.5708170000000  0.5718040000000  0.5202290000000 1.0
C      1  0.4266560000000  0.5549890000000  0.5532810000000 1.0
C      1  0.4267250000000  0.5162150000000  0.4229090000000 1.0
C      1  0.4288260000000  0.4284390000000  0.5224720000000 1.0
C      1  0.4803360000000  0.3932990000000  0.4892580000000 1.0
C      1  0.4792750000000  0.5630580000000  0.4124220000000 1.0
C      1  0.4805350000000  0.5423570000000  0.5978380000000 1.0
C      1  0.5305520000000  0.6014330000000  0.4937950000000 1.0
C      1  0.5236580000000  0.4415040000000  0.4120560000000 1.0
C      1  0.5239920000000  0.4634790000000  0.5957260000000 1.0
END
