TITL C-2441169-1362-264 0.000805848824540041 125000 -1943.47933997069 0 0 15 (C1) n - 1
REM
REM in /home/bkarasulu/work/CARBON/AIRSS/Generating-Clusters/ReaxFF-fromJPCA2015/Units_Real/with-SteepDescent/Higher-Symm
REM
REM
REM
REM
REM
REM ./C.cell (1df0a924f5614ab8850e4351716899ee)
REM
REM compiler GCC version 9.2.1 20190827 (Red Hat 9.2.1-1)
REM options -cpp -mtune=generic -march=x86-64 -g -O0 -fpre-include=/usr/include/finclude/math-vector-fortran.h
REM seed -757839076 -755029532 919234437 1137274926 -671467636 -1591090646 -1471519053 -1850697805 -632073683 -1446395164 1386504715 -2066713618 1778812100 953710526 -1181394490 -1434764879 -1320351044 -663251351 -1185836343 -598044824 -1553736839 1526672125 1040649162 703519437 -964357800 -1793024475 1586967941 1262773592 -1614528641 1778098780 -596713981 1261920212 411256493
REM
CELL 1.54180   50.00000   50.00000   50.00000   90.00000   90.00000   90.00000
LATT -1
SFAC C  
C      1  0.4588700000000  0.5186750000000  0.5154110000000 1.0
C      1  0.5590170000000  0.5009280000000  0.4990150000000 1.0
C      1  0.4485970000000  0.5196360000000  0.4873650000000 1.0
C      1  0.5327190000000  0.4848990000000  0.5269750000000 1.0
C      1  0.4978090000000  0.4816680000000  0.4770390000000 1.0
C      1  0.4689370000000  0.4902250000000  0.5203550000000 1.0
C      1  0.4674200000000  0.5379970000000  0.4972280000000 1.0
C      1  0.5559100000000  0.4861230000000  0.5183460000000 1.0
C      1  0.4710390000000  0.4782370000000  0.4927670000000 1.0
C      1  0.4502660000000  0.4902590000000  0.4765190000000 1.0
C      1  0.4850170000000  0.4832140000000  0.5424150000000 1.0
C      1  0.5142660000000  0.5021430000000  0.4675770000000 1.0
C      1  0.5510940000000  0.5150180000000  0.4798260000000 1.0
C      1  0.5314440000000  0.5276970000000  0.4622570000000 1.0
C      1  0.5075940000000  0.4832810000000  0.5369050000000 1.0
END
