TITL C-2441164-471-449 0.0838609517718408 125000 -7875.84330573013 0 0 68 (D2h) n - 1
REM
REM in /home/bkarasulu/work/CARBON/AIRSS/Generating-Clusters/ReaxFF-fromJPCA2015/Units_Real/with-SteepDescent/Higher-Symm
REM
REM
REM
REM
REM
REM ./C.cell (1df0a924f5614ab8850e4351716899ee)
REM
REM compiler GCC version 9.2.1 20190827 (Red Hat 9.2.1-1)
REM options -cpp -mtune=generic -march=x86-64 -g -O0 -fpre-include=/usr/include/finclude/math-vector-fortran.h
REM seed -619725138 708739975 1060231599 -424081231 -1291621348 1372102996 -1351561168 863480206 816262987 -520978647 -463246647 -488951181 -1191717630 -1138573298 -250223741 -1673331216 1796041425 -1418172834 2048912673 -1771575452 -1748886602 1547673721 1583578465 -1491218494 -757349623 -1951216435 -1613236548 1462835259 777500622 -843815191 -1992703555 1669190486 -953033203
REM
CELL 1.54180   50.00000   50.00000   50.00000   90.00000   90.00000   90.00000
LATT -1
SFAC C  
C      1  0.4785940000000  0.5511750000000  0.5473920000000 1.0
C      1  0.4785910000000  0.4488320000000  0.4526100000000 1.0
C      1  0.5213950000000  0.5512400000000  0.5473850000000 1.0
C      1  0.5213960000000  0.4487650000000  0.4526150000000 1.0
C      1  0.4786040000000  0.5512370000000  0.4526130000000 1.0
C      1  0.4786060000000  0.4487600000000  0.5473860000000 1.0
C      1  0.5214100000000  0.5511660000000  0.4526120000000 1.0
C      1  0.5214080000000  0.4488270000000  0.5473890000000 1.0
C      1  0.5473490000000  0.4615940000000  0.5438540000000 1.0
C      1  0.5473450000000  0.5384030000000  0.4561460000000 1.0
C      1  0.4526960000000  0.4616230000000  0.5438210000000 1.0
C      1  0.4526990000000  0.5383780000000  0.4561790000000 1.0
C      1  0.5473010000000  0.4616210000000  0.4561790000000 1.0
C      1  0.5473050000000  0.5383760000000  0.5438220000000 1.0
C      1  0.4526560000000  0.4615970000000  0.4561460000000 1.0
C      1  0.4526530000000  0.5384060000000  0.5438530000000 1.0
C      1  0.4510230000000  0.4849950000000  0.5619300000000 1.0
C      1  0.4510220000000  0.5150060000000  0.4380700000000 1.0
C      1  0.5489810000000  0.4849890000000  0.5619170000000 1.0
C      1  0.5489830000000  0.5150130000000  0.4380860000000 1.0
C      1  0.4510170000000  0.4849860000000  0.4380870000000 1.0
C      1  0.4510190000000  0.5150110000000  0.5619160000000 1.0
C      1  0.5489780000000  0.4849940000000  0.4380700000000 1.0
C      1  0.5489780000000  0.5150050000000  0.5619300000000 1.0
C      1  0.5207700000000  0.5139910000000  0.4311800000000 1.0
C      1  0.5207700000000  0.4860080000000  0.5688210000000 1.0
C      1  0.4792120000000  0.5140090000000  0.4311100000000 1.0
C      1  0.4792130000000  0.4859890000000  0.5688930000000 1.0
C      1  0.5207870000000  0.5140110000000  0.5688920000000 1.0
C      1  0.5207880000000  0.4859910000000  0.4311100000000 1.0
C      1  0.4792300000000  0.5139920000000  0.5688200000000 1.0
C      1  0.4792300000000  0.4860090000000  0.4311810000000 1.0
C      1  0.5629590000000  0.4853910000000  0.4855280000000 1.0
C      1  0.5629660000000  0.5146070000000  0.5144730000000 1.0
C      1  0.4370240000000  0.4854070000000  0.4855000000000 1.0
C      1  0.4370310000000  0.5145900000000  0.5144950000000 1.0
C      1  0.5629710000000  0.4854110000000  0.5144940000000 1.0
C      1  0.5629770000000  0.5145910000000  0.4855010000000 1.0
C      1  0.4370380000000  0.4853910000000  0.5144730000000 1.0
C      1  0.4370400000000  0.5146100000000  0.4855260000000 1.0
C      1  0.4853000000000  0.5135050000000  0.5246410000000 1.0
C      1  0.4853100000000  0.4864860000000  0.4753460000000 1.0
C      1  0.5146310000000  0.5135790000000  0.5247330000000 1.0
C      1  0.5146340000000  0.4864270000000  0.4752690000000 1.0
C      1  0.4853660000000  0.5135740000000  0.4752680000000 1.0
C      1  0.4853650000000  0.4864220000000  0.5247310000000 1.0
C      1  0.5146900000000  0.5135130000000  0.4753460000000 1.0
C      1  0.5147000000000  0.4864970000000  0.5246410000000 1.0
C      1  0.4629420000000  0.4716430000000  0.4803880000000 1.0
C      1  0.4629480000000  0.5283590000000  0.5196180000000 1.0
C      1  0.5370590000000  0.4715880000000  0.4803400000000 1.0
C      1  0.5370760000000  0.5284190000000  0.5196640000000 1.0
C      1  0.4629230000000  0.4715810000000  0.5196690000000 1.0
C      1  0.4629390000000  0.5284100000000  0.4803400000000 1.0
C      1  0.5370510000000  0.4716380000000  0.5196170000000 1.0
C      1  0.5370560000000  0.5283590000000  0.4803890000000 1.0
C      1  0.5142670000000  0.5573200000000  0.5201330000000 1.0
C      1  0.5142720000000  0.4426900000000  0.4798640000000 1.0
C      1  0.4857930000000  0.5573510000000  0.5201690000000 1.0
C      1  0.4857960000000  0.4426500000000  0.4798270000000 1.0
C      1  0.5142040000000  0.5573510000000  0.4798270000000 1.0
C      1  0.5142060000000  0.4426490000000  0.5201690000000 1.0
C      1  0.4857280000000  0.5573110000000  0.4798640000000 1.0
C      1  0.4857310000000  0.4426820000000  0.5201340000000 1.0
C      1  0.4999630000000  0.5374250000000  0.5666490000000 1.0
C      1  0.5000380000000  0.5374340000000  0.4333540000000 1.0
C      1  0.5000360000000  0.4625740000000  0.5666480000000 1.0
C      1  0.4999620000000  0.4625660000000  0.4333550000000 1.0
END
