TITL C-2441167-4473-107 0.12433141984687 125000 -20052.8650451309 0 0 157 (C1) n - 1
REM
REM in /home/bkarasulu/work/CARBON/AIRSS/Generating-Clusters/ReaxFF-fromJPCA2015/Units_Real/with-SteepDescent/Higher-Symm
REM
REM
REM
REM
REM
REM ./C.cell (1df0a924f5614ab8850e4351716899ee)
REM
REM compiler GCC version 9.2.1 20190827 (Red Hat 9.2.1-1)
REM options -cpp -mtune=generic -march=x86-64 -g -O0 -fpre-include=/usr/include/finclude/math-vector-fortran.h
REM seed -2110832630 1514380629 -1229573587 -223359844 962601646 -240880092 2024633795 1077995763 242722041 -27708452 469602758 297789367 -1184669560 1665905077 1963051179 1765689941 456414587 1897828321 444720390 859260152 1334907587 -1230528359 1440653335 1802338928 882858279 -1541854020 -569374094 304977803 1320585510 -28586008 -577982133 2027534281 -573638928
REM
CELL 1.54180   50.00000   50.00000   50.00000   90.00000   90.00000   90.00000
LATT -1
SFAC C  
C      1  0.4668180000000  0.5322390000000  0.4552670000000 1.0
C      1  0.4667120000000  0.5497640000000  0.4975540000000 1.0
C      1  0.4658940000000  0.5341270000000  0.5406610000000 1.0
C      1  0.4640040000000  0.4941580000000  0.5517260000000 1.0
C      1  0.4606000000000  0.4542740000000  0.5322100000000 1.0
C      1  0.4673030000000  0.4341660000000  0.4860000000000 1.0
C      1  0.4659010000000  0.4842270000000  0.4512010000000 1.0
C      1  0.5554250000000  0.4236780000000  0.4545590000000 1.0
C      1  0.5574670000000  0.4883240000000  0.4116760000000 1.0
C      1  0.5565900000000  0.5603160000000  0.4342010000000 1.0
C      1  0.5551550000000  0.5859510000000  0.5085750000000 1.0
C      1  0.5527840000000  0.5500950000000  0.5751020000000 1.0
C      1  0.5576130000000  0.4735610000000  0.5825160000000 1.0
C      1  0.5568440000000  0.4157780000000  0.5315720000000 1.0
C      1  0.4392320000000  0.4700660000000  0.4850650000000 1.0
C      1  0.4391990000000  0.4923830000000  0.4652460000000 1.0
C      1  0.4403250000000  0.5240280000000  0.4704720000000 1.0
C      1  0.4397300000000  0.5364170000000  0.4992940000000 1.0
C      1  0.4402010000000  0.5232150000000  0.5289700000000 1.0
C      1  0.4389140000000  0.4934870000000  0.5345670000000 1.0
C      1  0.4397300000000  0.4679530000000  0.5148160000000 1.0
C      1  0.4808530000000  0.5135320000000  0.5456880000000 1.0
C      1  0.4795480000000  0.4716430000000  0.5427550000000 1.0
C      1  0.4791960000000  0.4571540000000  0.4948760000000 1.0
C      1  0.4822790000000  0.4689600000000  0.4697280000000 1.0
C      1  0.4805380000000  0.5080260000000  0.4486330000000 1.0
C      1  0.4831800000000  0.5424130000000  0.4760130000000 1.0
C      1  0.4799000000000  0.5473060000000  0.5217960000000 1.0
C      1  0.5980370000000  0.5003950000000  0.4534240000000 1.0
C      1  0.5953970000000  0.5388880000000  0.4642020000000 1.0
C      1  0.5938250000000  0.5480860000000  0.5105540000000 1.0
C      1  0.5961190000000  0.5190040000000  0.5383990000000 1.0
C      1  0.5959060000000  0.4789800000000  0.5394070000000 1.0
C      1  0.5978570000000  0.4534120000000  0.5089480000000 1.0
C      1  0.5975520000000  0.4645620000000  0.4708560000000 1.0
C      1  0.5175650000000  0.5423370000000  0.4330130000000 1.0
C      1  0.5167630000000  0.5775590000000  0.4937930000000 1.0
C      1  0.5172130000000  0.5668810000000  0.5535330000000 1.0
C      1  0.5184750000000  0.4872720000000  0.5778760000000 1.0
C      1  0.5188180000000  0.4337880000000  0.5407330000000 1.0
C      1  0.5173050000000  0.4258850000000  0.4719420000000 1.0
C      1  0.5193540000000  0.4746550000000  0.4231560000000 1.0
C      1  0.5041790000000  0.4774610000000  0.5308160000000 1.0
C      1  0.5066900000000  0.4632480000000  0.5038990000000 1.0
C      1  0.5100910000000  0.4748150000000  0.4711330000000 1.0
C      1  0.5074260000000  0.5038630000000  0.4584530000000 1.0
C      1  0.5047780000000  0.5246350000000  0.4783840000000 1.0
C      1  0.5035510000000  0.5331290000000  0.5176720000000 1.0
C      1  0.5078210000000  0.5128060000000  0.5392430000000 1.0
C      1  0.5235430000000  0.4358530000000  0.5108930000000 1.0
C      1  0.5221000000000  0.4511780000000  0.4562920000000 1.0
C      1  0.5245650000000  0.5028620000000  0.4334600000000 1.0
C      1  0.5203580000000  0.5544000000000  0.4598090000000 1.0
C      1  0.5225260000000  0.5525610000000  0.5063900000000 1.0
C      1  0.5223810000000  0.5245370000000  0.5621000000000 1.0
C      1  0.5268370000000  0.4762300000000  0.5519590000000 1.0
C      1  0.5486160000000  0.5004000000000  0.4723420000000 1.0
C      1  0.5490850000000  0.5276310000000  0.4764000000000 1.0
C      1  0.5438680000000  0.5339670000000  0.5034300000000 1.0
C      1  0.5543200000000  0.5130210000000  0.5205780000000 1.0
C      1  0.5440020000000  0.4885090000000  0.5309520000000 1.0
C      1  0.5528110000000  0.4692340000000  0.5116830000000 1.0
C      1  0.5501130000000  0.4779330000000  0.4850470000000 1.0
C      1  0.5669400000000  0.4374850000000  0.5474120000000 1.0
C      1  0.5664680000000  0.4277810000000  0.4812560000000 1.0
C      1  0.5653250000000  0.4693820000000  0.4320460000000 1.0
C      1  0.5694900000000  0.5338110000000  0.4324980000000 1.0
C      1  0.5674290000000  0.5704800000000  0.4864090000000 1.0
C      1  0.5652020000000  0.5569840000000  0.5498440000000 1.0
C      1  0.5666950000000  0.4989440000000  0.5722600000000 1.0
C      1  0.3980090000000  0.4981240000000  0.4648870000000 1.0
C      1  0.3981010000000  0.5256130000000  0.4764820000000 1.0
C      1  0.3986540000000  0.5342900000000  0.5048820000000 1.0
C      1  0.3981780000000  0.5176360000000  0.5294320000000 1.0
C      1  0.3975540000000  0.4881920000000  0.5307800000000 1.0
C      1  0.3970590000000  0.4680160000000  0.5085480000000 1.0
C      1  0.3980270000000  0.4720560000000  0.4792050000000 1.0
C      1  0.4796330000000  0.5875040000000  0.5342580000000 1.0
C      1  0.4820100000000  0.5188110000000  0.5939020000000 1.0
C      1  0.4889800000000  0.4409310000000  0.5763360000000 1.0
C      1  0.4883990000000  0.4027870000000  0.5041900000000 1.0
C      1  0.4799790000000  0.4444040000000  0.4208030000000 1.0
C      1  0.4776360000000  0.5211820000000  0.4058570000000 1.0
C      1  0.4790980000000  0.5866420000000  0.4586220000000 1.0
C      1  0.4931600000000  0.5456840000000  0.4173000000000 1.0
C      1  0.4934450000000  0.5898800000000  0.4865480000000 1.0
C      1  0.4991540000000  0.5659790000000  0.5749820000000 1.0
C      1  0.4923770000000  0.4898570000000  0.5906130000000 1.0
C      1  0.4930990000000  0.4244930000000  0.5498350000000 1.0
C      1  0.4952140000000  0.4077260000000  0.4748000000000 1.0
C      1  0.4939040000000  0.4689300000000  0.4101130000000 1.0
C      1  0.4504540000000  0.4521710000000  0.4254720000000 1.0
C      1  0.4504150000000  0.5268390000000  0.4159780000000 1.0
C      1  0.4505080000000  0.5806530000000  0.4685080000000 1.0
C      1  0.4535870000000  0.5749350000000  0.5432390000000 1.0
C      1  0.4519030000000  0.5083890000000  0.5816780000000 1.0
C      1  0.4462190000000  0.4404590000000  0.5535740000000 1.0
C      1  0.4436580000000  0.4174440000000  0.4877740000000 1.0
C      1  0.4480030000000  0.4787770000000  0.4131760000000 1.0
C      1  0.4468570000000  0.5536870000000  0.4275600000000 1.0
C      1  0.4470440000000  0.5887680000000  0.4965950000000 1.0
C      1  0.4492420000000  0.5576230000000  0.5672750000000 1.0
C      1  0.4483890000000  0.4786090000000  0.5845360000000 1.0
C      1  0.4461640000000  0.4164070000000  0.5357800000000 1.0
C      1  0.4446220000000  0.4170520000000  0.4581770000000 1.0
C      1  0.5322660000000  0.5623630000000  0.4202030000000 1.0
C      1  0.5264130000000  0.5960610000000  0.5100460000000 1.0
C      1  0.5277320000000  0.5637610000000  0.5805450000000 1.0
C      1  0.5322090000000  0.4711730000000  0.5963450000000 1.0
C      1  0.5288510000000  0.4064980000000  0.5384960000000 1.0
C      1  0.5310920000000  0.4084030000000  0.4560970000000 1.0
C      1  0.5308790000000  0.4843840000000  0.3985620000000 1.0
C      1  0.4309600000000  0.4619640000000  0.5675750000000 1.0
C      1  0.4280250000000  0.4218670000000  0.5125610000000 1.0
C      1  0.4329070000000  0.4407110000000  0.4457660000000 1.0
C      1  0.4328510000000  0.5032940000000  0.4205110000000 1.0
C      1  0.4330280000000  0.5637490000000  0.4519280000000 1.0
C      1  0.4344090000000  0.5761820000000  0.5204120000000 1.0
C      1  0.4349790000000  0.5311960000000  0.5712060000000 1.0
C      1  0.5136960000000  0.4478500000000  0.5895030000000 1.0
C      1  0.5157450000000  0.4043790000000  0.5120170000000 1.0
C      1  0.5024360000000  0.4325010000000  0.4347010000000 1.0
C      1  0.5133180000000  0.5101400000000  0.4040200000000 1.0
C      1  0.5080040000000  0.5797710000000  0.4492070000000 1.0
C      1  0.5092340000000  0.5873160000000  0.5344860000000 1.0
C      1  0.5089730000000  0.5280780000000  0.5875550000000 1.0
C      1  0.4176020000000  0.5397710000000  0.4597450000000 1.0
C      1  0.4180340000000  0.5562380000000  0.5064050000000 1.0
C      1  0.4176880000000  0.5303930000000  0.5476780000000 1.0
C      1  0.4169960000000  0.4825120000000  0.5519010000000 1.0
C      1  0.4161900000000  0.4478920000000  0.5172480000000 1.0
C      1  0.4200270000000  0.4545380000000  0.4697630000000 1.0
C      1  0.4174830000000  0.4942960000000  0.4435330000000 1.0
C      1  0.5887870000000  0.4450630000000  0.4855320000000 1.0
C      1  0.5863740000000  0.4766960000000  0.4504390000000 1.0
C      1  0.5841190000000  0.5208390000000  0.4535790000000 1.0
C      1  0.5910880000000  0.5553210000000  0.4862210000000 1.0
C      1  0.5869830000000  0.5424250000000  0.5341330000000 1.0
C      1  0.5885890000000  0.4992640000000  0.5541130000000 1.0
C      1  0.5815890000000  0.4596390000000  0.5281710000000 1.0
C      1  0.5508870000000  0.5135470000000  0.4233520000000 1.0
C      1  0.5503350000000  0.5561530000000  0.4647240000000 1.0
C      1  0.5515830000000  0.5746060000000  0.5338530000000 1.0
C      1  0.5504970000000  0.5222640000000  0.5688050000000 1.0
C      1  0.5498420000000  0.4534310000000  0.5630480000000 1.0
C      1  0.5511850000000  0.4264520000000  0.5049210000000 1.0
C      1  0.5487650000000  0.4501950000000  0.4444290000000 1.0
C      1  0.4754400000000  0.5483900000000  0.5747850000000 1.0
C      1  0.4750080000000  0.4667080000000  0.5863910000000 1.0
C      1  0.4751550000000  0.4136120000000  0.5290820000000 1.0
C      1  0.4739840000000  0.4218190000000  0.4599410000000 1.0
C      1  0.4743790000000  0.4909270000000  0.4113760000000 1.0
C      1  0.4739260000000  0.5592310000000  0.4351550000000 1.0
C      1  0.4735780000000  0.5947570000000  0.5070090000000 1.0
C      1  0.4898360000000  0.5077700000000  0.4980400000000 1.0
C      1  0.4661520000000  0.4970570000000  0.4986140000000 1.0
C      1  0.5744250000000  0.5023950000000  0.5026950000000 1.0
END
