TITL C-2441159-1093-775 0.021468463029129 125000 -3989.78369320518 0 0 36 (C1) n - 1
REM
REM in /home/bkarasulu/work/CARBON/AIRSS/Generating-Clusters/ReaxFF-fromJPCA2015/Units_Real/with-SteepDescent/Higher-Symm
REM
REM
REM
REM
REM
REM ./C.cell (1df0a924f5614ab8850e4351716899ee)
REM
REM compiler GCC version 9.2.1 20190827 (Red Hat 9.2.1-1)
REM options -cpp -mtune=generic -march=x86-64 -g -O0 -fpre-include=/usr/include/finclude/math-vector-fortran.h
REM seed -476856543 1568964995 -448071686 248528613 1889354202 2117478789 1421368848 -1503961397 -1820381961 2019048850 579514942 -1167209986 440919994 -1878694499 -776319782 224028828 2112403481 1906964064 640705416 844141789 479340701 353035514 716790768 1079246991 820450831 1484927518 752861211 1574710723 291259448 -1334980279 1227319919 2060401879 -424684898
REM
CELL 1.54180   50.00000   50.00000   50.00000   90.00000   90.00000   90.00000
LATT -1
SFAC C  
C      1  0.4443610000000  0.5305600000000  0.5196370000000 1.0
C      1  0.4447360000000  0.4729690000000  0.5203010000000 1.0
C      1  0.5508840000000  0.4783460000000  0.5147260000000 1.0
C      1  0.5509940000000  0.5244890000000  0.5144700000000 1.0
C      1  0.4935000000000  0.5175630000000  0.4397290000000 1.0
C      1  0.4934580000000  0.4859770000000  0.4396100000000 1.0
C      1  0.4675150000000  0.5455580000000  0.5290950000000 1.0
C      1  0.4674260000000  0.4574590000000  0.5296640000000 1.0
C      1  0.4593410000000  0.5482580000000  0.5013660000000 1.0
C      1  0.4598920000000  0.4553360000000  0.5018220000000 1.0
C      1  0.5753610000000  0.4871790000000  0.5051790000000 1.0
C      1  0.5749940000000  0.5153850000000  0.5026050000000 1.0
C      1  0.5149970000000  0.4533880000000  0.5420940000000 1.0
C      1  0.5151850000000  0.5504640000000  0.5418650000000 1.0
C      1  0.5487670000000  0.5238840000000  0.4633560000000 1.0
C      1  0.5489150000000  0.4801720000000  0.4637780000000 1.0
C      1  0.4824360000000  0.5403060000000  0.4528290000000 1.0
C      1  0.4824780000000  0.4632890000000  0.4528280000000 1.0
C      1  0.4936810000000  0.4674530000000  0.5430830000000 1.0
C      1  0.4948480000000  0.5358110000000  0.5392010000000 1.0
C      1  0.5012120000000  0.4784100000000  0.4987560000000 1.0
C      1  0.5011000000000  0.5264610000000  0.5001820000000 1.0
C      1  0.4825810000000  0.5413130000000  0.4842300000000 1.0
C      1  0.4828620000000  0.4622620000000  0.4842570000000 1.0
C      1  0.4805680000000  0.5017590000000  0.4634430000000 1.0
C      1  0.4668410000000  0.5019610000000  0.5049610000000 1.0
C      1  0.4399010000000  0.5018830000000  0.5031800000000 1.0
C      1  0.5694460000000  0.5026750000000  0.4719970000000 1.0
C      1  0.5041610000000  0.5010840000000  0.5203210000000 1.0
C      1  0.4552370000000  0.5017450000000  0.4789990000000 1.0
C      1  0.5042420000000  0.5025530000000  0.4813950000000 1.0
C      1  0.4909590000000  0.5000130000000  0.5478540000000 1.0
C      1  0.5330490000000  0.5015940000000  0.5279830000000 1.0
C      1  0.5288680000000  0.5015640000000  0.4592350000000 1.0
C      1  0.4659640000000  0.5014610000000  0.5337660000000 1.0
C      1  0.5387990000000  0.5017330000000  0.5016160000000 1.0
END
