TITL C-2441160-1326-29 0.0090133157878489 125000 -7493.74781089289 0 0 51 (C1) n - 1
REM
REM in /home/bkarasulu/work/CARBON/AIRSS/Generating-Clusters/ReaxFF-fromJPCA2015/Units_Real/with-SteepDescent/Higher-Symm
REM
REM
REM
REM
REM
REM ./C.cell (1df0a924f5614ab8850e4351716899ee)
REM
REM compiler GCC version 9.2.1 20190827 (Red Hat 9.2.1-1)
REM options -cpp -mtune=generic -march=x86-64 -g -O0 -fpre-include=/usr/include/finclude/math-vector-fortran.h
REM seed -635576461 1069787773 -1228690376 1702753928 -841429853 1315602370 24291093 -1482879834 145542605 -299207590 -634600568 1263385399 408271039 751893266 547653770 -432202638 2040645632 -1809896701 -355064545 1590428479 915802115 -1258890588 -1166987453 -1257588212 226302663 -337377565 871971240 -2028838669 -1710954580 -378512832 -769707259 595818577 872467824
REM
CELL 1.54180   50.00000   50.00000   50.00000   90.00000   90.00000   90.00000
LATT -1
SFAC C  
C      1  0.4762890000000  0.4864980000000  0.4339010000000 1.0
C      1  0.4519030000000  0.4867590000000  0.5510880000000 1.0
C      1  0.5677750000000  0.4849910000000  0.5135310000000 1.0
C      1  0.4778570000000  0.4961370000000  0.5615210000000 1.0
C      1  0.5617360000000  0.4968860000000  0.4871390000000 1.0
C      1  0.4539150000000  0.4930050000000  0.4517810000000 1.0
C      1  0.5346800000000  0.5245520000000  0.4423880000000 1.0
C      1  0.4330600000000  0.5221910000000  0.4893430000000 1.0
C      1  0.5318790000000  0.5205360000000  0.5587950000000 1.0
C      1  0.4976440000000  0.5398090000000  0.5543990000000 1.0
C      1  0.5500550000000  0.5405360000000  0.4753550000000 1.0
C      1  0.4575860000000  0.5405670000000  0.4604000000000 1.0
C      1  0.5175650000000  0.5108090000000  0.5091970000000 1.0
C      1  0.4899610000000  0.5132390000000  0.4800110000000 1.0
C      1  0.4901130000000  0.5190630000000  0.5057200000000 1.0
C      1  0.5328750000000  0.4735020000000  0.4690850000000 1.0
C      1  0.4568840000000  0.4700020000000  0.4882190000000 1.0
C      1  0.5154380000000  0.4619760000000  0.5509280000000 1.0
C      1  0.5228210000000  0.4489650000000  0.4822250000000 1.0
C      1  0.4762190000000  0.4490120000000  0.4920660000000 1.0
C      1  0.5077620000000  0.4430090000000  0.5294140000000 1.0
C      1  0.4794240000000  0.4493440000000  0.5214660000000 1.0
C      1  0.5298890000000  0.4470260000000  0.5105040000000 1.0
C      1  0.4960540000000  0.4492690000000  0.4704700000000 1.0
C      1  0.4902760000000  0.5120280000000  0.4295970000000 1.0
C      1  0.4406940000000  0.5110440000000  0.5383440000000 1.0
C      1  0.5661650000000  0.5080360000000  0.5308440000000 1.0
C      1  0.4549720000000  0.4635700000000  0.5328890000000 1.0
C      1  0.5510200000000  0.4634160000000  0.5234970000000 1.0
C      1  0.4947760000000  0.4652420000000  0.4452780000000 1.0
C      1  0.5307120000000  0.5347520000000  0.5203460000000 1.0
C      1  0.5025210000000  0.5356800000000  0.4656050000000 1.0
C      1  0.4705230000000  0.5388790000000  0.5129880000000 1.0
C      1  0.5422860000000  0.4740680000000  0.5487890000000 1.0
C      1  0.5203330000000  0.4774810000000  0.4423160000000 1.0
C      1  0.4396490000000  0.4752000000000  0.5108890000000 1.0
C      1  0.4718250000000  0.4915670000000  0.4747480000000 1.0
C      1  0.4927930000000  0.4784220000000  0.5454920000000 1.0
C      1  0.5326440000000  0.4956660000000  0.4885190000000 1.0
C      1  0.4593360000000  0.5341130000000  0.5400640000000 1.0
C      1  0.5596170000000  0.5322890000000  0.5145570000000 1.0
C      1  0.4823640000000  0.5361190000000  0.4448700000000 1.0
C      1  0.5490760000000  0.5015990000000  0.5524320000000 1.0
C      1  0.5188460000000  0.5047550000000  0.4302230000000 1.0
C      1  0.4310670000000  0.5035390000000  0.5123930000000 1.0
C      1  0.4527930000000  0.5439020000000  0.4902080000000 1.0
C      1  0.5223830000000  0.5405470000000  0.5484930000000 1.0
C      1  0.5307300000000  0.5416980000000  0.4594710000000 1.0
C      1  0.4776720000000  0.5257520000000  0.5594530000000 1.0
C      1  0.5659640000000  0.5255100000000  0.4883650000000 1.0
C      1  0.4395810000000  0.5174430000000  0.4603840000000 1.0
END
