TITL C-2441164-471-940 0.06867431330792 125000 -25803.7663926188 0 0 184 (C1) n - 1
REM
REM in /home/bkarasulu/work/CARBON/AIRSS/Generating-Clusters/ReaxFF-fromJPCA2015/Units_Real/with-SteepDescent/Higher-Symm
REM
REM
REM
REM
REM
REM ./C.cell (1df0a924f5614ab8850e4351716899ee)
REM
REM compiler GCC version 9.2.1 20190827 (Red Hat 9.2.1-1)
REM options -cpp -mtune=generic -march=x86-64 -g -O0 -fpre-include=/usr/include/finclude/math-vector-fortran.h
REM seed 535749785 -672455189 -1908206802 1096648396 -1875428954 747808331 -1258107526 -1209308446 115142762 803984063 728680853 -39538844 -1824392363 -1181378735 1583639853 -1407252070 -1545657812 1378065130 -879036842 -127344208 -2085901281 1931109250 1260668437 1946551809 -4615847 2118294085 1124514645 1292793363 959149052 -1386418710 -940542191 -1035080232 -1691689566
REM
CELL 1.54180   50.00000   50.00000   50.00000   90.00000   90.00000   90.00000
LATT -1
SFAC C  
C      1  0.5012070000000  0.4315790000000  0.4984780000000 1.0
C      1  0.4979640000000  0.4789920000000  0.4311550000000 1.0
C      1  0.4943460000000  0.5522900000000  0.4595590000000 1.0
C      1  0.5017310000000  0.5550610000000  0.5454420000000 1.0
C      1  0.5010900000000  0.4789480000000  0.5654840000000 1.0
C      1  0.4795600000000  0.3914810000000  0.5256750000000 1.0
C      1  0.4815680000000  0.4380360000000  0.4036550000000 1.0
C      1  0.4743420000000  0.5762830000000  0.4153300000000 1.0
C      1  0.4739760000000  0.6010200000000  0.5500600000000 1.0
C      1  0.4742480000000  0.4827570000000  0.6163300000000 1.0
C      1  0.4539920000000  0.5913440000000  0.4308320000000 1.0
C      1  0.4543770000000  0.5885470000000  0.5661900000000 1.0
C      1  0.4576810000000  0.4596940000000  0.6076150000000 1.0
C      1  0.4619420000000  0.3887870000000  0.5023550000000 1.0
C      1  0.4608130000000  0.4561630000000  0.3951080000000 1.0
C      1  0.3987280000000  0.4645090000000  0.4791770000000 1.0
C      1  0.4154460000000  0.5213720000000  0.4539600000000 1.0
C      1  0.4083070000000  0.5513830000000  0.4981240000000 1.0
C      1  0.4023440000000  0.5033700000000  0.5555530000000 1.0
C      1  0.4006180000000  0.4580200000000  0.5307070000000 1.0
C      1  0.5530250000000  0.5079530000000  0.3947650000000 1.0
C      1  0.5543400000000  0.5952580000000  0.4724960000000 1.0
C      1  0.5550140000000  0.5547340000000  0.5902300000000 1.0
C      1  0.5539210000000  0.4352500000000  0.5816750000000 1.0
C      1  0.5559100000000  0.4042850000000  0.4634110000000 1.0
C      1  0.5086920000000  0.6066400000000  0.5059880000000 1.0
C      1  0.5092340000000  0.5246770000000  0.6024550000000 1.0
C      1  0.5074320000000  0.4065940000000  0.5569010000000 1.0
C      1  0.5132040000000  0.4168460000000  0.4310680000000 1.0
C      1  0.5108780000000  0.5374870000000  0.3992140000000 1.0
C      1  0.5908370000000  0.5608700000000  0.4736440000000 1.0
C      1  0.5873550000000  0.5416900000000  0.5528030000000 1.0
C      1  0.5854610000000  0.4474910000000  0.5559120000000 1.0
C      1  0.5757690000000  0.4407070000000  0.4725320000000 1.0
C      1  0.5676330000000  0.5082660000000  0.4403990000000 1.0
C      1  0.4936590000000  0.4424200000000  0.5291790000000 1.0
C      1  0.4898780000000  0.4496910000000  0.4497450000000 1.0
C      1  0.4926720000000  0.5302700000000  0.4398740000000 1.0
C      1  0.4927110000000  0.5673800000000  0.5195960000000 1.0
C      1  0.4893550000000  0.5119750000000  0.5669310000000 1.0
C      1  0.4450520000000  0.4308990000000  0.4439970000000 1.0
C      1  0.4451800000000  0.5258720000000  0.4139970000000 1.0
C      1  0.4419650000000  0.5948850000000  0.5040510000000 1.0
C      1  0.4382800000000  0.5211030000000  0.5915510000000 1.0
C      1  0.4325290000000  0.4255070000000  0.5487510000000 1.0
C      1  0.4817490000000  0.5018710000000  0.4413700000000 1.0
C      1  0.4727190000000  0.5529080000000  0.5066910000000 1.0
C      1  0.4824680000000  0.5326180000000  0.5473400000000 1.0
C      1  0.4845190000000  0.4660300000000  0.5441940000000 1.0
C      1  0.4829700000000  0.4447300000000  0.4789730000000 1.0
C      1  0.5515810000000  0.5009670000000  0.6029960000000 1.0
C      1  0.5517550000000  0.4094380000000  0.5348800000000 1.0
C      1  0.5544360000000  0.4404070000000  0.4225230000000 1.0
C      1  0.5507720000000  0.5564320000000  0.4212080000000 1.0
C      1  0.5487180000000  0.5943240000000  0.5283570000000 1.0
C      1  0.5214480000000  0.6074100000000  0.5322070000000 1.0
C      1  0.5233250000000  0.5033550000000  0.6154550000000 1.0
C      1  0.5272700000000  0.3932910000000  0.5405520000000 1.0
C      1  0.5301360000000  0.4277990000000  0.4103240000000 1.0
C      1  0.5244210000000  0.5626150000000  0.4072990000000 1.0
C      1  0.4782640000000  0.4044870000000  0.5518320000000 1.0
C      1  0.4832910000000  0.4236650000000  0.4300550000000 1.0
C      1  0.4814120000000  0.5336500000000  0.3947160000000 1.0
C      1  0.4799620000000  0.6130970000000  0.5028510000000 1.0
C      1  0.4790850000000  0.5238110000000  0.5958590000000 1.0
C      1  0.6009100000000  0.4971280000000  0.4600400000000 1.0
C      1  0.6042070000000  0.5253250000000  0.4901650000000 1.0
C      1  0.5997790000000  0.5215500000000  0.5188200000000 1.0
C      1  0.6034050000000  0.4902330000000  0.5271050000000 1.0
C      1  0.6054270000000  0.4733810000000  0.5030650000000 1.0
C      1  0.4185620000000  0.5477220000000  0.5502420000000 1.0
C      1  0.4339640000000  0.4635270000000  0.5726960000000 1.0
C      1  0.4378820000000  0.4322110000000  0.4951150000000 1.0
C      1  0.4306690000000  0.4797050000000  0.4294670000000 1.0
C      1  0.4351640000000  0.5714670000000  0.4633790000000 1.0
C      1  0.5541060000000  0.5545050000000  0.4509830000000 1.0
C      1  0.5570310000000  0.5680010000000  0.5404430000000 1.0
C      1  0.5555980000000  0.4816490000000  0.5811390000000 1.0
C      1  0.5536240000000  0.4227580000000  0.5090540000000 1.0
C      1  0.5529690000000  0.4693470000000  0.4232310000000 1.0
C      1  0.5063620000000  0.4049080000000  0.4837040000000 1.0
C      1  0.5034660000000  0.4859430000000  0.4025150000000 1.0
C      1  0.5030040000000  0.5813560000000  0.4591800000000 1.0
C      1  0.5062610000000  0.5672650000000  0.5745010000000 1.0
C      1  0.5042210000000  0.4566460000000  0.5848630000000 1.0
C      1  0.5537810000000  0.5280640000000  0.5969910000000 1.0
C      1  0.5641990000000  0.4253500000000  0.5561990000000 1.0
C      1  0.5643070000000  0.4281050000000  0.4476700000000 1.0
C      1  0.5547060000000  0.5323330000000  0.4079300000000 1.0
C      1  0.5536630000000  0.5942940000000  0.5005650000000 1.0
C      1  0.4137120000000  0.4495230000000  0.5529440000000 1.0
C      1  0.4214240000000  0.4476660000000  0.4735300000000 1.0
C      1  0.4288830000000  0.5087080000000  0.4322920000000 1.0
C      1  0.4259620000000  0.5737200000000  0.4913520000000 1.0
C      1  0.4196980000000  0.5239920000000  0.5684350000000 1.0
C      1  0.5720020000000  0.5748520000000  0.4584860000000 1.0
C      1  0.5722590000000  0.5612860000000  0.5649870000000 1.0
C      1  0.5727050000000  0.4586210000000  0.5812830000000 1.0
C      1  0.5705880000000  0.4148700000000  0.4870550000000 1.0
C      1  0.5687090000000  0.4927260000000  0.4152600000000 1.0
C      1  0.5283920000000  0.5214260000000  0.4683280000000 1.0
C      1  0.5321870000000  0.5346600000000  0.5125850000000 1.0
C      1  0.5431640000000  0.5008700000000  0.5402920000000 1.0
C      1  0.5277130000000  0.4677860000000  0.5144210000000 1.0
C      1  0.5240780000000  0.4742650000000  0.4666820000000 1.0
C      1  0.4442940000000  0.4912260000000  0.5230030000000 1.0
C      1  0.4453290000000  0.4735890000000  0.4997800000000 1.0
C      1  0.4447090000000  0.4939520000000  0.4766310000000 1.0
C      1  0.4515070000000  0.5214770000000  0.4852960000000 1.0
C      1  0.4452100000000  0.5187830000000  0.5131490000000 1.0
C      1  0.4636650000000  0.6016610000000  0.5240100000000 1.0
C      1  0.4597740000000  0.5022710000000  0.5998260000000 1.0
C      1  0.4351540000000  0.4288570000000  0.5221900000000 1.0
C      1  0.4319710000000  0.4558370000000  0.4471810000000 1.0
C      1  0.4647410000000  0.5491490000000  0.4127130000000 1.0
C      1  0.5309230000000  0.4561220000000  0.5412730000000 1.0
C      1  0.5359970000000  0.4488710000000  0.4699690000000 1.0
C      1  0.5377410000000  0.5121080000000  0.4427090000000 1.0
C      1  0.5332610000000  0.5586230000000  0.4953110000000 1.0
C      1  0.5368050000000  0.5237370000000  0.5549540000000 1.0
C      1  0.4261840000000  0.5796780000000  0.4349840000000 1.0
C      1  0.4340660000000  0.5713380000000  0.5548860000000 1.0
C      1  0.4331790000000  0.4718270000000  0.5997420000000 1.0
C      1  0.4424550000000  0.4027130000000  0.4903280000000 1.0
C      1  0.4392050000000  0.4714910000000  0.4042840000000 1.0
C      1  0.5340320000000  0.5462230000000  0.5385960000000 1.0
C      1  0.5344810000000  0.4797060000000  0.5581880000000 1.0
C      1  0.5328360000000  0.4426000000000  0.4984500000000 1.0
C      1  0.5295480000000  0.4818640000000  0.4393910000000 1.0
C      1  0.5322180000000  0.5490980000000  0.4680970000000 1.0
C      1  0.4565940000000  0.5425540000000  0.5927890000000 1.0
C      1  0.4581520000000  0.4222420000000  0.5642860000000 1.0
C      1  0.4597860000000  0.4083370000000  0.4480970000000 1.0
C      1  0.4621970000000  0.5110020000000  0.3965490000000 1.0
C      1  0.4587910000000  0.6065110000000  0.4829640000000 1.0
C      1  0.5739270000000  0.4957540000000  0.4654170000000 1.0
C      1  0.5827920000000  0.5388770000000  0.4746540000000 1.0
C      1  0.5838720000000  0.5416600000000  0.5291950000000 1.0
C      1  0.5932760000000  0.4707620000000  0.5426940000000 1.0
C      1  0.5796410000000  0.4625680000000  0.4929190000000 1.0
C      1  0.4622730000000  0.5367870000000  0.5278010000000 1.0
C      1  0.4700780000000  0.4899130000000  0.5362360000000 1.0
C      1  0.4715590000000  0.4612320000000  0.4994440000000 1.0
C      1  0.4701830000000  0.4885710000000  0.4635480000000 1.0
C      1  0.4757330000000  0.5386070000000  0.4807260000000 1.0
C      1  0.5035870000000  0.5820260000000  0.4146040000000 1.0
C      1  0.5028880000000  0.6056090000000  0.5544490000000 1.0
C      1  0.5037300000000  0.4817050000000  0.6203520000000 1.0
C      1  0.5074690000000  0.3828290000000  0.5217370000000 1.0
C      1  0.5091400000000  0.4417190000000  0.3949080000000 1.0
C      1  0.4935200000000  0.4997420000000  0.5230300000000 1.0
C      1  0.4967610000000  0.4768950000000  0.5054810000000 1.0
C      1  0.4990440000000  0.4867110000000  0.4781570000000 1.0
C      1  0.5037690000000  0.5153130000000  0.4814660000000 1.0
C      1  0.5069340000000  0.5208150000000  0.5095820000000 1.0
C      1  0.5130860000000  0.4549280000000  0.6127830000000 1.0
C      1  0.5156210000000  0.3796440000000  0.4931590000000 1.0
C      1  0.5152220000000  0.4681090000000  0.3825220000000 1.0
C      1  0.5105880000000  0.5993570000000  0.4371730000000 1.0
C      1  0.5144250000000  0.5941250000000  0.5789770000000 1.0
C      1  0.4591680000000  0.5880160000000  0.4600800000000 1.0
C      1  0.4540210000000  0.5629930000000  0.5734970000000 1.0
C      1  0.4583790000000  0.4475360000000  0.5787030000000 1.0
C      1  0.4605490000000  0.3927420000000  0.4727410000000 1.0
C      1  0.4582420000000  0.4841110000000  0.3887110000000 1.0
C      1  0.5292000000000  0.3931780000000  0.4700810000000 1.0
C      1  0.5264620000000  0.4947370000000  0.3871580000000 1.0
C      1  0.5264480000000  0.5987440000000  0.4618480000000 1.0
C      1  0.5293220000000  0.5703720000000  0.5907210000000 1.0
C      1  0.5262390000000  0.4387140000000  0.5918430000000 1.0
C      1  0.3951170000000  0.5139200000000  0.5281950000000 1.0
C      1  0.3874030000000  0.4665760000000  0.5081730000000 1.0
C      1  0.4047760000000  0.4929860000000  0.4801930000000 1.0
C      1  0.4071360000000  0.5322950000000  0.4768920000000 1.0
C      1  0.4045740000000  0.5411990000000  0.5257250000000 1.0
C      1  0.5159420000000  0.4360150000000  0.4527510000000 1.0
C      1  0.5158770000000  0.5241670000000  0.4240270000000 1.0
C      1  0.5118840000000  0.5779240000000  0.5009070000000 1.0
C      1  0.5154330000000  0.5227410000000  0.5744230000000 1.0
C      1  0.5125200000000  0.4352250000000  0.5495060000000 1.0
C      1  0.6138440000000  0.4958090000000  0.4848910000000 1.0
C      1  0.5631940000000  0.4865460000000  0.4928990000000 1.0
C      1  0.3891880000000  0.4966950000000  0.5043110000000 1.0
C      1  0.5429320000000  0.4953610000000  0.5117460000000 1.0
END
