TITL C-2441169-1362-569 0.13926580003091 125000 -21125.0210543529 0 0 163 (C1) n - 1
REM
REM in /home/bkarasulu/work/CARBON/AIRSS/Generating-Clusters/ReaxFF-fromJPCA2015/Units_Real/with-SteepDescent/Higher-Symm
REM
REM
REM
REM
REM
REM ./C.cell (1df0a924f5614ab8850e4351716899ee)
REM
REM compiler GCC version 9.2.1 20190827 (Red Hat 9.2.1-1)
REM options -cpp -mtune=generic -march=x86-64 -g -O0 -fpre-include=/usr/include/finclude/math-vector-fortran.h
REM seed -1114412137 -1525644239 363618927 -1954544461 1980665819 -1542841367 922123394 737750311 2083597473 823598246 1103749354 -1707208156 1083752832 -2042357572 1422329479 -978946640 1910003574 -939727426 -1172114705 -457050362 1845781425 -123847827 887484784 -844452601 736795837 1249114667 -69883675 -1431384551 -738276235 -366452389 -945434473 -404876888 1296228428
REM
CELL 1.54180   50.00000   50.00000   50.00000   90.00000   90.00000   90.00000
LATT -1
SFAC C  
C      1  0.4231970000000  0.4637920000000  0.4445940000000 1.0
C      1  0.4179730000000  0.5397480000000  0.4544210000000 1.0
C      1  0.4183070000000  0.5615730000000  0.5166220000000 1.0
C      1  0.4169620000000  0.5013170000000  0.5676970000000 1.0
C      1  0.4159670000000  0.4344460000000  0.5241530000000 1.0
C      1  0.4342510000000  0.4425260000000  0.4291410000000 1.0
C      1  0.4335140000000  0.5478510000000  0.4309720000000 1.0
C      1  0.4338290000000  0.5846280000000  0.5217010000000 1.0
C      1  0.4353710000000  0.5055880000000  0.5910270000000 1.0
C      1  0.4346310000000  0.4154290000000  0.5328070000000 1.0
C      1  0.4885860000000  0.5821460000000  0.4488040000000 1.0
C      1  0.4870950000000  0.5745090000000  0.5624370000000 1.0
C      1  0.4862000000000  0.4575680000000  0.5837860000000 1.0
C      1  0.4873400000000  0.4030000000000  0.4925740000000 1.0
C      1  0.4889490000000  0.4772980000000  0.4072730000000 1.0
C      1  0.5281280000000  0.4300960000000  0.5669180000000 1.0
C      1  0.5259150000000  0.4144920000000  0.4552140000000 1.0
C      1  0.5271740000000  0.5172100000000  0.4050780000000 1.0
C      1  0.5235680000000  0.5969350000000  0.4874050000000 1.0
C      1  0.5267210000000  0.5397670000000  0.5849880000000 1.0
C      1  0.4049880000000  0.4831200000000  0.5163260000000 1.0
C      1  0.4035360000000  0.4771490000000  0.4876470000000 1.0
C      1  0.4066700000000  0.5030510000000  0.4770550000000 1.0
C      1  0.4047760000000  0.5251130000000  0.4959090000000 1.0
C      1  0.4021730000000  0.5136600000000  0.5214120000000 1.0
C      1  0.4469010000000  0.5042500000000  0.4817890000000 1.0
C      1  0.4464230000000  0.5232700000000  0.5038160000000 1.0
C      1  0.4458990000000  0.5076250000000  0.5274520000000 1.0
C      1  0.4342870000000  0.4830430000000  0.5196690000000 1.0
C      1  0.4488530000000  0.4786870000000  0.4952760000000 1.0
C      1  0.5126330000000  0.4419630000000  0.5159000000000 1.0
C      1  0.5226490000000  0.4664710000000  0.4482260000000 1.0
C      1  0.5121680000000  0.5400050000000  0.4528730000000 1.0
C      1  0.5132250000000  0.5554700000000  0.5213740000000 1.0
C      1  0.5126040000000  0.4952180000000  0.5593060000000 1.0
C      1  0.4762280000000  0.5225370000000  0.5825470000000 1.0
C      1  0.4772570000000  0.4327680000000  0.5517730000000 1.0
C      1  0.4739670000000  0.4290090000000  0.4479180000000 1.0
C      1  0.4738370000000  0.5296560000000  0.4198450000000 1.0
C      1  0.4769740000000  0.5858180000000  0.5034730000000 1.0
C      1  0.5599810000000  0.4789350000000  0.4268370000000 1.0
C      1  0.5595980000000  0.5575990000000  0.4585520000000 1.0
C      1  0.5625200000000  0.5558580000000  0.5455640000000 1.0
C      1  0.5580110000000  0.4718860000000  0.5689810000000 1.0
C      1  0.5559900000000  0.4265000000000  0.4951370000000 1.0
C      1  0.4701390000000  0.4726310000000  0.5654120000000 1.0
C      1  0.4725320000000  0.4271850000000  0.4962960000000 1.0
C      1  0.4715530000000  0.4840030000000  0.4285710000000 1.0
C      1  0.4708540000000  0.5636400000000  0.4621440000000 1.0
C      1  0.4703860000000  0.5555600000000  0.5483440000000 1.0
C      1  0.5551470000000  0.4407330000000  0.5667970000000 1.0
C      1  0.5527280000000  0.4201370000000  0.4651590000000 1.0
C      1  0.5541080000000  0.5091050000000  0.4098980000000 1.0
C      1  0.5501500000000  0.5910060000000  0.4793010000000 1.0
C      1  0.5518430000000  0.5467990000000  0.5724410000000 1.0
C      1  0.5712420000000  0.5246870000000  0.5715060000000 1.0
C      1  0.5718670000000  0.4400400000000  0.5439310000000 1.0
C      1  0.5721830000000  0.4386260000000  0.4563700000000 1.0
C      1  0.5726240000000  0.5192950000000  0.4282300000000 1.0
C      1  0.5672930000000  0.5759850000000  0.4972750000000 1.0
C      1  0.4817860000000  0.4755450000000  0.4672000000000 1.0
C      1  0.4718780000000  0.5159690000000  0.4662450000000 1.0
C      1  0.4729270000000  0.5376230000000  0.5055910000000 1.0
C      1  0.4727390000000  0.5051780000000  0.5378940000000 1.0
C      1  0.4728940000000  0.4674070000000  0.5095820000000 1.0
C      1  0.4344070000000  0.5715390000000  0.4786550000000 1.0
C      1  0.4334990000000  0.5398910000000  0.5594000000000 1.0
C      1  0.4300570000000  0.4526050000000  0.5590300000000 1.0
C      1  0.4295860000000  0.4290910000000  0.4727940000000 1.0
C      1  0.4294050000000  0.5008700000000  0.4294830000000 1.0
C      1  0.4900800000000  0.5238160000000  0.4865810000000 1.0
C      1  0.4883210000000  0.5221440000000  0.5245210000000 1.0
C      1  0.4875190000000  0.4841810000000  0.5260120000000 1.0
C      1  0.4932000000000  0.4734870000000  0.4896860000000 1.0
C      1  0.4848330000000  0.4965060000000  0.4509480000000 1.0
C      1  0.5124140000000  0.4752390000000  0.5399670000000 1.0
C      1  0.5128530000000  0.4526030000000  0.4899110000000 1.0
C      1  0.5146440000000  0.4935140000000  0.4490350000000 1.0
C      1  0.5127550000000  0.5412100000000  0.4810200000000 1.0
C      1  0.5123890000000  0.5322460000000  0.5365010000000 1.0
C      1  0.5144760000000  0.4904300000000  0.4057840000000 1.0
C      1  0.5129750000000  0.5797380000000  0.4647940000000 1.0
C      1  0.5115650000000  0.5586330000000  0.5690040000000 1.0
C      1  0.5144950000000  0.4524620000000  0.5793620000000 1.0
C      1  0.5133480000000  0.4073550000000  0.4806470000000 1.0
C      1  0.5842940000000  0.4638030000000  0.5035740000000 1.0
C      1  0.5811660000000  0.4851820000000  0.4706870000000 1.0
C      1  0.5797530000000  0.5246490000000  0.4783310000000 1.0
C      1  0.5883230000000  0.5295650000000  0.5175250000000 1.0
C      1  0.5777230000000  0.4925410000000  0.5312930000000 1.0
C      1  0.5824280000000  0.5351920000000  0.5451260000000 1.0
C      1  0.5779330000000  0.4684910000000  0.5467480000000 1.0
C      1  0.5809490000000  0.4427500000000  0.4844860000000 1.0
C      1  0.5792990000000  0.4949150000000  0.4441490000000 1.0
C      1  0.5781770000000  0.5537240000000  0.4802380000000 1.0
C      1  0.4510990000000  0.4829330000000  0.6021530000000 1.0
C      1  0.4502560000000  0.3979690000000  0.5152870000000 1.0
C      1  0.4509180000000  0.4536420000000  0.4076530000000 1.0
C      1  0.4495960000000  0.5718060000000  0.4266610000000 1.0
C      1  0.4500820000000  0.5918040000000  0.5454750000000 1.0
C      1  0.5346570000000  0.4055260000000  0.4990710000000 1.0
C      1  0.5367290000000  0.4724020000000  0.4087490000000 1.0
C      1  0.5395910000000  0.5778170000000  0.4509980000000 1.0
C      1  0.5281360000000  0.5771000000000  0.5574550000000 1.0
C      1  0.5353530000000  0.4698630000000  0.5886110000000 1.0
C      1  0.4829450000000  0.5608140000000  0.5192440000000 1.0
C      1  0.4829910000000  0.5007170000000  0.5642930000000 1.0
C      1  0.4828910000000  0.4411910000000  0.5211050000000 1.0
C      1  0.4721950000000  0.4575620000000  0.4510070000000 1.0
C      1  0.4810520000000  0.5378180000000  0.4487520000000 1.0
C      1  0.4140630000000  0.5120120000000  0.4511710000000 1.0
C      1  0.4121710000000  0.5508880000000  0.4817290000000 1.0
C      1  0.4111460000000  0.5227620000000  0.5481450000000 1.0
C      1  0.4090330000000  0.4572920000000  0.5381500000000 1.0
C      1  0.4155970000000  0.4566640000000  0.4707770000000 1.0
C      1  0.5386930000000  0.4058450000000  0.5272000000000 1.0
C      1  0.5339880000000  0.4485230000000  0.4249160000000 1.0
C      1  0.5392640000000  0.5605050000000  0.4241210000000 1.0
C      1  0.5368260000000  0.5927680000000  0.5356840000000 1.0
C      1  0.5385880000000  0.4964790000000  0.5983160000000 1.0
C      1  0.4909070000000  0.5085690000000  0.6026690000000 1.0
C      1  0.4900540000000  0.4077290000000  0.5443060000000 1.0
C      1  0.4896270000000  0.4281350000000  0.4226550000000 1.0
C      1  0.4900080000000  0.5511100000000  0.4088970000000 1.0
C      1  0.4902360000000  0.6026850000000  0.5212610000000 1.0
C      1  0.4489430000000  0.5875910000000  0.4973570000000 1.0
C      1  0.4485610000000  0.5298530000000  0.5821710000000 1.0
C      1  0.4485230000000  0.4315300000000  0.5533500000000 1.0
C      1  0.4450350000000  0.4231430000000  0.4491770000000 1.0
C      1  0.4453710000000  0.5241120000000  0.4195230000000 1.0
C      1  0.5316170000000  0.5473470000000  0.5015820000000 1.0
C      1  0.5308510000000  0.5137350000000  0.5482780000000 1.0
C      1  0.5326630000000  0.4592560000000  0.5266930000000 1.0
C      1  0.5333750000000  0.4587360000000  0.4725900000000 1.0
C      1  0.5300320000000  0.5172200000000  0.4506790000000 1.0
C      1  0.5187910000000  0.4093990000000  0.5485370000000 1.0
C      1  0.5168840000000  0.4235100000000  0.4293660000000 1.0
C      1  0.5194610000000  0.5458850000000  0.4094330000000 1.0
C      1  0.5171720000000  0.6024460000000  0.5153040000000 1.0
C      1  0.5184540000000  0.5171580000000  0.5998420000000 1.0
C      1  0.4784930000000  0.5980540000000  0.5468790000000 1.0
C      1  0.4801330000000  0.4808970000000  0.6039190000000 1.0
C      1  0.4788390000000  0.3942370000000  0.5196240000000 1.0
C      1  0.4794720000000  0.4497570000000  0.4049780000000 1.0
C      1  0.4783430000000  0.5746120000000  0.4220170000000 1.0
C      1  0.5525990000000  0.4781770000000  0.4846810000000 1.0
C      1  0.5538970000000  0.5144200000000  0.4683090000000 1.0
C      1  0.5521550000000  0.5262130000000  0.5090280000000 1.0
C      1  0.5530540000000  0.5072210000000  0.5309930000000 1.0
C      1  0.5561950000000  0.4650530000000  0.5105540000000 1.0
C      1  0.5626570000000  0.4213890000000  0.5241200000000 1.0
C      1  0.5620060000000  0.4515680000000  0.4329930000000 1.0
C      1  0.5620340000000  0.5462200000000  0.4334490000000 1.0
C      1  0.5595760000000  0.5763130000000  0.5255060000000 1.0
C      1  0.5629480000000  0.4996280000000  0.5832550000000 1.0
C      1  0.4457320000000  0.4806640000000  0.4178080000000 1.0
C      1  0.4478160000000  0.5783190000000  0.4545500000000 1.0
C      1  0.4451680000000  0.5661010000000  0.5572010000000 1.0
C      1  0.4460490000000  0.4660430000000  0.5786760000000 1.0
C      1  0.4465250000000  0.4155500000000  0.4926710000000 1.0
C      1  0.5012320000000  0.5007190000000  0.5033390000000 1.0
C      1  0.5895980000000  0.5036920000000  0.5049950000000 1.0
C      1  0.5433230000000  0.5052250000000  0.4919510000000 1.0
END
