TITL C-2441163-1170-1401 0.095133718091353 125000 -25210.6524523821 0 0 188 (C1) n - 1
REM
REM in /home/bkarasulu/work/CARBON/AIRSS/Generating-Clusters/ReaxFF-fromJPCA2015/Units_Real/with-SteepDescent/Higher-Symm
REM
REM
REM
REM
REM
REM ./C.cell (1df0a924f5614ab8850e4351716899ee)
REM
REM compiler GCC version 9.2.1 20190827 (Red Hat 9.2.1-1)
REM options -cpp -mtune=generic -march=x86-64 -g -O0 -fpre-include=/usr/include/finclude/math-vector-fortran.h
REM seed -1884679267 1381798909 1124058178 -1947139209 1163957992 1104925628 -265230366 -1733945063 -1650584403 1734792494 -757238963 -894895102 1421686919 556688420 -470303466 -1053770602 1555906678 915203635 -700067860 328278900 -1542116921 1626602688 -806676660 611058497 -1082365360 -257559688 -1020257021 -56349011 821938406 -1969587423 -557061310 6806656 -1253408716
REM
CELL 1.54180   50.00000   50.00000   50.00000   90.00000   90.00000   90.00000
LATT -1
SFAC C  
C      1  0.4552080000000  0.3959810000000  0.4884810000000 1.0
C      1  0.4297200000000  0.5959380000000  0.4846700000000 1.0
C      1  0.6137090000000  0.5101390000000  0.4897560000000 1.0
C      1  0.4442290000000  0.6064580000000  0.5093610000000 1.0
C      1  0.4326470000000  0.4089500000000  0.5112780000000 1.0
C      1  0.6117910000000  0.4875300000000  0.5117310000000 1.0
C      1  0.5520220000000  0.6050000000000  0.5106700000000 1.0
C      1  0.5736120000000  0.4162040000000  0.5199470000000 1.0
C      1  0.3881410000000  0.4876930000000  0.5107660000000 1.0
C      1  0.5339420000000  0.3912680000000  0.4798780000000 1.0
C      1  0.5684910000000  0.5936520000000  0.4843040000000 1.0
C      1  0.3865590000000  0.5086820000000  0.4896100000000 1.0
C      1  0.4372820000000  0.5199660000000  0.4906670000000 1.0
C      1  0.5482330000000  0.5424490000000  0.4883030000000 1.0
C      1  0.5137310000000  0.4312760000000  0.4927690000000 1.0
C      1  0.4340990000000  0.4786150000000  0.5132280000000 1.0
C      1  0.5483360000000  0.4549030000000  0.5133280000000 1.0
C      1  0.5177060000000  0.5681520000000  0.5175110000000 1.0
C      1  0.5611470000000  0.4802140000000  0.5151800000000 1.0
C      1  0.4489620000000  0.4528500000000  0.5129330000000 1.0
C      1  0.4886020000000  0.5693220000000  0.5117320000000 1.0
C      1  0.5651990000000  0.5189830000000  0.4849880000000 1.0
C      1  0.4531360000000  0.5434070000000  0.4933630000000 1.0
C      1  0.4857080000000  0.4330350000000  0.4896430000000 1.0
C      1  0.4209800000000  0.5741160000000  0.5173430000000 1.0
C      1  0.6078720000000  0.5284780000000  0.5266920000000 1.0
C      1  0.4727450000000  0.3916270000000  0.5258680000000 1.0
C      1  0.4213570000000  0.4235980000000  0.4740900000000 1.0
C      1  0.6084260000000  0.4689330000000  0.4742500000000 1.0
C      1  0.4691720000000  0.6098210000000  0.4732980000000 1.0
C      1  0.5772200000000  0.4200350000000  0.4790360000000 1.0
C      1  0.3902610000000  0.4695330000000  0.4734730000000 1.0
C      1  0.5295760000000  0.6092960000000  0.4742430000000 1.0
C      1  0.5810530000000  0.5754960000000  0.5194510000000 1.0
C      1  0.3913400000000  0.5294310000000  0.5257780000000 1.0
C      1  0.5283290000000  0.3927960000000  0.5206240000000 1.0
C      1  0.4680400000000  0.5027380000000  0.5548060000000 1.0
C      1  0.5114520000000  0.5311200000000  0.5571390000000 1.0
C      1  0.5116470000000  0.4759850000000  0.5577640000000 1.0
C      1  0.4760250000000  0.5038770000000  0.4303520000000 1.0
C      1  0.5167860000000  0.4761710000000  0.4493870000000 1.0
C      1  0.5174980000000  0.5254790000000  0.4452120000000 1.0
C      1  0.5247350000000  0.4986450000000  0.4321460000000 1.0
C      1  0.4898960000000  0.4759510000000  0.4390090000000 1.0
C      1  0.4891080000000  0.5292410000000  0.4370910000000 1.0
C      1  0.5282010000000  0.5118780000000  0.5719070000000 1.0
C      1  0.4822530000000  0.5268220000000  0.5625440000000 1.0
C      1  0.4847730000000  0.4793180000000  0.5682860000000 1.0
C      1  0.4861460000000  0.5248280000000  0.4762220000000 1.0
C      1  0.5254370000000  0.5002020000000  0.4900000000000 1.0
C      1  0.4851800000000  0.4751850000000  0.4760850000000 1.0
C      1  0.4864460000000  0.4748680000000  0.5205270000000 1.0
C      1  0.5219710000000  0.5006400000000  0.5171000000000 1.0
C      1  0.4849310000000  0.5249380000000  0.5224090000000 1.0
C      1  0.5133870000000  0.4769880000000  0.5291600000000 1.0
C      1  0.4723390000000  0.4994580000000  0.5254280000000 1.0
C      1  0.5139370000000  0.5240430000000  0.5255380000000 1.0
C      1  0.5140510000000  0.5222170000000  0.4738110000000 1.0
C      1  0.4728580000000  0.4997720000000  0.4802030000000 1.0
C      1  0.5146860000000  0.4754290000000  0.4782310000000 1.0
C      1  0.5266250000000  0.5706710000000  0.4326730000000 1.0
C      1  0.5499890000000  0.4388500000000  0.4289360000000 1.0
C      1  0.4202530000000  0.4896270000000  0.4258740000000 1.0
C      1  0.5287110000000  0.4219200000000  0.5750250000000 1.0
C      1  0.5501710000000  0.5595290000000  0.5687790000000 1.0
C      1  0.4211750000000  0.5116070000000  0.5746570000000 1.0
C      1  0.4730990000000  0.4268870000000  0.5701250000000 1.0
C      1  0.4501330000000  0.5608740000000  0.5667710000000 1.0
C      1  0.5812450000000  0.5111160000000  0.5746990000000 1.0
C      1  0.4673090000000  0.5732890000000  0.4285060000000 1.0
C      1  0.4510710000000  0.4424530000000  0.4312980000000 1.0
C      1  0.5783140000000  0.4885480000000  0.4294530000000 1.0
C      1  0.5652030000000  0.5510660000000  0.5231990000000 1.0
C      1  0.5151440000000  0.4177020000000  0.5163000000000 1.0
C      1  0.4185820000000  0.5324210000000  0.5110590000000 1.0
C      1  0.5638080000000  0.4460990000000  0.4776880000000 1.0
C      1  0.5111000000000  0.5886800000000  0.4742350000000 1.0
C      1  0.4168740000000  0.4678230000000  0.4855810000000 1.0
C      1  0.4349070000000  0.4485210000000  0.4761420000000 1.0
C      1  0.4900630000000  0.5925350000000  0.4931090000000 1.0
C      1  0.5789180000000  0.4702040000000  0.4783140000000 1.0
C      1  0.4353960000000  0.5518090000000  0.5210790000000 1.0
C      1  0.4880860000000  0.4177320000000  0.5242480000000 1.0
C      1  0.5822070000000  0.5319840000000  0.5129060000000 1.0
C      1  0.4865150000000  0.4545820000000  0.4020170000000 1.0
C      1  0.4648910000000  0.5313960000000  0.4004830000000 1.0
C      1  0.5464290000000  0.5118520000000  0.4009070000000 1.0
C      1  0.4899340000000  0.5451510000000  0.5981340000000 1.0
C      1  0.4667730000000  0.4653510000000  0.6003070000000 1.0
C      1  0.5451100000000  0.4864060000000  0.5993970000000 1.0
C      1  0.5151290000000  0.5459460000000  0.5983830000000 1.0
C      1  0.5321420000000  0.4639560000000  0.5984470000000 1.0
C      1  0.4549210000000  0.4884400000000  0.5980190000000 1.0
C      1  0.5132600000000  0.4546750000000  0.4028990000000 1.0
C      1  0.5326850000000  0.5338510000000  0.4032390000000 1.0
C      1  0.4526140000000  0.5118070000000  0.3984390000000 1.0
C      1  0.4855120000000  0.5704310000000  0.5407360000000 1.0
C      1  0.5637160000000  0.4881920000000  0.5421560000000 1.0
C      1  0.4516200000000  0.4538990000000  0.5424450000000 1.0
C      1  0.4861970000000  0.4300960000000  0.4609270000000 1.0
C      1  0.5621520000000  0.5199790000000  0.4546650000000 1.0
C      1  0.4553230000000  0.5546760000000  0.4674630000000 1.0
C      1  0.5147870000000  0.4306680000000  0.4583010000000 1.0
C      1  0.4360720000000  0.5133600000000  0.4614240000000 1.0
C      1  0.5480240000000  0.5446530000000  0.4600620000000 1.0
C      1  0.5123460000000  0.5635430000000  0.5467050000000 1.0
C      1  0.4344020000000  0.4776600000000  0.5427860000000 1.0
C      1  0.5416180000000  0.4479710000000  0.5411360000000 1.0
C      1  0.5177240000000  0.4360720000000  0.5524080000000 1.0
C      1  0.4406170000000  0.5145840000000  0.5525260000000 1.0
C      1  0.5557910000000  0.5419190000000  0.5471390000000 1.0
C      1  0.5075480000000  0.5699290000000  0.4545940000000 1.0
C      1  0.4367560000000  0.4870840000000  0.4495160000000 1.0
C      1  0.5527230000000  0.4543460000000  0.4529080000000 1.0
C      1  0.4784260000000  0.5658130000000  0.4538060000000 1.0
C      1  0.5658610000000  0.4799540000000  0.4545050000000 1.0
C      1  0.4460790000000  0.4599140000000  0.4533410000000 1.0
C      1  0.4881910000000  0.4370030000000  0.5472460000000 1.0
C      1  0.5660710000000  0.5155510000000  0.5508500000000 1.0
C      1  0.4424020000000  0.5433610000000  0.5471310000000 1.0
C      1  0.3901280000000  0.5019670000000  0.5357850000000 1.0
C      1  0.5594250000000  0.5920910000000  0.5349880000000 1.0
C      1  0.5542050000000  0.4029560000000  0.5349860000000 1.0
C      1  0.3881700000000  0.4966340000000  0.4633720000000 1.0
C      1  0.5547900000000  0.4035710000000  0.4655420000000 1.0
C      1  0.5534280000000  0.6007220000000  0.4597830000000 1.0
C      1  0.6119070000000  0.4975760000000  0.4645100000000 1.0
C      1  0.4429900000000  0.4056650000000  0.4641290000000 1.0
C      1  0.4456100000000  0.6013010000000  0.4596230000000 1.0
C      1  0.6105330000000  0.5016280000000  0.5370870000000 1.0
C      1  0.4375440000000  0.5928020000000  0.5332960000000 1.0
C      1  0.4466710000000  0.4023250000000  0.5359950000000 1.0
C      1  0.4562780000000  0.4138170000000  0.4385880000000 1.0
C      1  0.4413210000000  0.5803700000000  0.4389710000000 1.0
C      1  0.5980000000000  0.5086700000000  0.4398160000000 1.0
C      1  0.4545670000000  0.5882840000000  0.5581870000000 1.0
C      1  0.4465720000000  0.4174610000000  0.5613900000000 1.0
C      1  0.5988920000000  0.4908900000000  0.5632910000000 1.0
C      1  0.5426850000000  0.5863560000000  0.5588900000000 1.0
C      1  0.5552760000000  0.4157410000000  0.5625330000000 1.0
C      1  0.4025460000000  0.4927790000000  0.5621350000000 1.0
C      1  0.5439810000000  0.4108470000000  0.4382950000000 1.0
C      1  0.5539660000000  0.5789240000000  0.4409150000000 1.0
C      1  0.4015280000000  0.5093980000000  0.4391190000000 1.0
C      1  0.4131900000000  0.4658050000000  0.5599170000000 1.0
C      1  0.5131890000000  0.5884670000000  0.5635080000000 1.0
C      1  0.5650410000000  0.4436460000000  0.5585660000000 1.0
C      1  0.4193860000000  0.5313250000000  0.4469100000000 1.0
C      1  0.5141020000000  0.4108130000000  0.4375870000000 1.0
C      1  0.5733430000000  0.5604490000000  0.4549160000000 1.0
C      1  0.5838440000000  0.5346560000000  0.4416780000000 1.0
C      1  0.4847250000000  0.4065800000000  0.4424440000000 1.0
C      1  0.4272890000000  0.5596770000000  0.4582510000000 1.0
C      1  0.5803290000000  0.4686730000000  0.5566970000000 1.0
C      1  0.4852200000000  0.5941770000000  0.5568360000000 1.0
C      1  0.4296270000000  0.4411310000000  0.5581680000000 1.0
C      1  0.4429310000000  0.4856980000000  0.4073650000000 1.0
C      1  0.5164650000000  0.5549270000000  0.4104100000000 1.0
C      1  0.5404360000000  0.4584330000000  0.4091790000000 1.0
C      1  0.4438750000000  0.5130090000000  0.5931330000000 1.0
C      1  0.5157540000000  0.4420150000000  0.5929140000000 1.0
C      1  0.5421210000000  0.5443650000000  0.5928240000000 1.0
C      1  0.5545230000000  0.5129100000000  0.5909110000000 1.0
C      1  0.4845570000000  0.4443330000000  0.5910360000000 1.0
C      1  0.4649420000000  0.5387610000000  0.5848160000000 1.0
C      1  0.5565190000000  0.4860810000000  0.4094760000000 1.0
C      1  0.4840550000000  0.5504290000000  0.4140680000000 1.0
C      1  0.4588050000000  0.4593970000000  0.4086050000000 1.0
C      1  0.3944910000000  0.4582090000000  0.5004760000000 1.0
C      1  0.5274120000000  0.6197930000000  0.5028640000000 1.0
C      1  0.5909950000000  0.4299950000000  0.5032640000000 1.0
C      1  0.3935590000000  0.5371550000000  0.4977650000000 1.0
C      1  0.5136350000000  0.3821050000000  0.4967460000000 1.0
C      1  0.5839170000000  0.5708170000000  0.4900080000000 1.0
C      1  0.6061720000000  0.5374510000000  0.4988610000000 1.0
C      1  0.4806320000000  0.3853130000000  0.4985110000000 1.0
C      1  0.4155750000000  0.5715370000000  0.4886780000000 1.0
C      1  0.6088150000000  0.4591820000000  0.5020110000000 1.0
C      1  0.4708290000000  0.6148870000000  0.5010210000000 1.0
C      1  0.4127700000000  0.4268720000000  0.5013080000000 1.0
C      1  0.4789560000000  0.5417980000000  0.4999910000000 1.0
C      1  0.5533450000000  0.4965820000000  0.4936640000000 1.0
C      1  0.5244010000000  0.4560320000000  0.4974430000000 1.0
C      1  0.4521950000000  0.4990670000000  0.5025420000000 1.0
C      1  0.4765770000000  0.4578960000000  0.4988020000000 1.0
C      1  0.5255630000000  0.5440270000000  0.5058870000000 1.0
C      1  0.5085020000000  0.4926890000000  0.5801760000000 1.0
C      1  0.4996370000000  0.4930390000000  0.4167510000000 1.0
END
