TITL C-2441169-1362-187 -8.51439193953415e-06 125000 -10544.6182926131 0 0 68 (C1) n - 1
REM
REM in /home/bkarasulu/work/CARBON/AIRSS/Generating-Clusters/ReaxFF-fromJPCA2015/Units_Real/with-SteepDescent/Higher-Symm
REM
REM
REM
REM
REM
REM ./C.cell (1df0a924f5614ab8850e4351716899ee)
REM
REM compiler GCC version 9.2.1 20190827 (Red Hat 9.2.1-1)
REM options -cpp -mtune=generic -march=x86-64 -g -O0 -fpre-include=/usr/include/finclude/math-vector-fortran.h
REM seed -1322918150 531337303 1825278834 739185002 581561327 -1306505979 -523269195 461664866 -1615389776 -1509159768 -1841231960 1575017846 153979965 1656705311 904406879 1116100084 1825598583 109946608 -611359487 137347924 -1408295050 -27489733 -891312378 -1059807593 2001510169 1182006463 -1971929245 1369147160 1139070400 1344897414 -488329841 -1484229332 -1779987348
REM
CELL 1.54180   50.00000   50.00000   50.00000   90.00000   90.00000   90.00000
LATT -1
SFAC C  
C      1  0.4857160000000  0.5451150000000  0.5517620000000 1.0
C      1  0.5473460000000  0.5519450000000  0.4855350000000 1.0
C      1  0.5524440000000  0.4841410000000  0.5454280000000 1.0
C      1  0.5141560000000  0.4519980000000  0.5502400000000 1.0
C      1  0.4856210000000  0.4546150000000  0.4466070000000 1.0
C      1  0.5142020000000  0.5461170000000  0.4490210000000 1.0
C      1  0.4544380000000  0.4469750000000  0.4851820000000 1.0
C      1  0.5474590000000  0.4467630000000  0.5139000000000 1.0
C      1  0.4515400000000  0.5509280000000  0.5136240000000 1.0
C      1  0.4480680000000  0.5142670000000  0.5474250000000 1.0
C      1  0.5545770000000  0.5134770000000  0.4539050000000 1.0
C      1  0.4460040000000  0.4845090000000  0.4521730000000 1.0
C      1  0.4857840000000  0.5463810000000  0.4486950000000 1.0
C      1  0.5457900000000  0.5515840000000  0.5140580000000 1.0
C      1  0.5550610000000  0.4846410000000  0.4525330000000 1.0
C      1  0.5145070000000  0.4555410000000  0.4468930000000 1.0
C      1  0.4857940000000  0.4520910000000  0.5518970000000 1.0
C      1  0.5140840000000  0.5484290000000  0.5524980000000 1.0
C      1  0.4551510000000  0.4473400000000  0.5139970000000 1.0
C      1  0.5470460000000  0.4481610000000  0.4854030000000 1.0
C      1  0.4517090000000  0.5521130000000  0.4849170000000 1.0
C      1  0.4455440000000  0.5137070000000  0.4531230000000 1.0
C      1  0.5495130000000  0.5130930000000  0.5471320000000 1.0
C      1  0.4495310000000  0.4857090000000  0.5472920000000 1.0
C      1  0.5287150000000  0.5255730000000  0.5624610000000 1.0
C      1  0.5232660000000  0.5619780000000  0.5284850000000 1.0
C      1  0.5546370000000  0.5258530000000  0.5217150000000 1.0
C      1  0.4723040000000  0.4760710000000  0.5612490000000 1.0
C      1  0.5316880000000  0.4764880000000  0.4381720000000 1.0
C      1  0.4713490000000  0.5216310000000  0.4427020000000 1.0
C      1  0.4773880000000  0.4373250000000  0.5285870000000 1.0
C      1  0.5224620000000  0.4431770000000  0.4719580000000 1.0
C      1  0.4762420000000  0.5607160000000  0.4714870000000 1.0
C      1  0.4453120000000  0.4733670000000  0.5224770000000 1.0
C      1  0.5628020000000  0.4702370000000  0.4766040000000 1.0
C      1  0.4368420000000  0.5288360000000  0.4764340000000 1.0
C      1  0.5284950000000  0.5208290000000  0.4446120000000 1.0
C      1  0.5236860000000  0.5610690000000  0.4714680000000 1.0
C      1  0.5623640000000  0.5286190000000  0.4771140000000 1.0
C      1  0.4691230000000  0.4763230000000  0.4378840000000 1.0
C      1  0.5258900000000  0.4772120000000  0.5534140000000 1.0
C      1  0.4715710000000  0.5228790000000  0.5613250000000 1.0
C      1  0.4772830000000  0.4390260000000  0.4696110000000 1.0
C      1  0.5238690000000  0.4373760000000  0.5277870000000 1.0
C      1  0.4786980000000  0.5522290000000  0.5243780000000 1.0
C      1  0.4432030000000  0.4723250000000  0.4777280000000 1.0
C      1  0.5625530000000  0.4696260000000  0.5228980000000 1.0
C      1  0.4372730000000  0.5285530000000  0.5243520000000 1.0
C      1  0.4999310000000  0.5692450000000  0.4851580000000 1.0
C      1  0.5001330000000  0.4310240000000  0.4847770000000 1.0
C      1  0.5000510000000  0.5682690000000  0.5129220000000 1.0
C      1  0.5003220000000  0.4289630000000  0.5133060000000 1.0
C      1  0.4865520000000  0.4999290000000  0.5693440000000 1.0
C      1  0.5712820000000  0.4846240000000  0.5000580000000 1.0
C      1  0.4774310000000  0.4993570000000  0.4322850000000 1.0
C      1  0.5230590000000  0.4993240000000  0.4327000000000 1.0
C      1  0.4288310000000  0.5145590000000  0.5003590000000 1.0
C      1  0.5688780000000  0.5132080000000  0.5004050000000 1.0
C      1  0.4328720000000  0.4862650000000  0.5002300000000 1.0
C      1  0.5154380000000  0.5006330000000  0.5666080000000 1.0
C      1  0.4807500000000  0.4916950000000  0.5157550000000 1.0
C      1  0.5156050000000  0.5067230000000  0.4796660000000 1.0
C      1  0.4864520000000  0.5132050000000  0.4787990000000 1.0
C      1  0.5101510000000  0.4782730000000  0.4881250000000 1.0
C      1  0.5182470000000  0.5136010000000  0.5089730000000 1.0
C      1  0.4883930000000  0.5204120000000  0.5086280000000 1.0
C      1  0.5103470000000  0.4859630000000  0.5174710000000 1.0
C      1  0.4804380000000  0.4849600000000  0.4867400000000 1.0
END
