TITL C-2441156-4686-33 0.16250614627308 125000 -23599.5659313838 0 0 186 (C1) n - 1
REM
REM in /home/bkarasulu/work/CARBON/AIRSS/Generating-Clusters/ReaxFF-fromJPCA2015/Units_Real/with-SteepDescent/Higher-Symm
REM
REM
REM
REM
REM
REM ./C.cell (1df0a924f5614ab8850e4351716899ee)
REM
REM compiler GCC version 9.2.1 20190827 (Red Hat 9.2.1-1)
REM options -cpp -mtune=generic -march=x86-64 -g -O0 -fpre-include=/usr/include/finclude/math-vector-fortran.h
REM seed 1612921183 -480416460 679955884 -689317948 -1521152992 1322394841 95881096 586875480 -1040151561 158119311 -1584676919 -1092343126 1964857328 -1500068070 894022407 -433677845 -583886633 -648073168 438514555 424949016 1972118111 -1173412108 -1281167811 953387944 -783676961 -1899568157 -1731028104 -261346245 -1930931119 -1202491072 1888853445 -1147682761 1205651413
REM
CELL 1.54180   50.00000   50.00000   50.00000   90.00000   90.00000   90.00000
LATT -1
SFAC C  
C      1  0.3966790000000  0.4787880000000  0.5360390000000 1.0
C      1  0.4829000000000  0.5362790000000  0.3994040000000 1.0
C      1  0.5362730000000  0.4002360000000  0.4831670000000 1.0
C      1  0.6046310000000  0.4786700000000  0.4637740000000 1.0
C      1  0.6057180000000  0.5235380000000  0.5355360000000 1.0
C      1  0.3976430000000  0.5205750000000  0.4635400000000 1.0
C      1  0.5222540000000  0.5367780000000  0.6002730000000 1.0
C      1  0.5217230000000  0.4628120000000  0.3958490000000 1.0
C      1  0.4772550000000  0.4643210000000  0.6043210000000 1.0
C      1  0.4617920000000  0.3944810000000  0.5240980000000 1.0
C      1  0.4636170000000  0.6072860000000  0.4762460000000 1.0
C      1  0.5359160000000  0.6011720000000  0.5182060000000 1.0
C      1  0.5511440000000  0.4703770000000  0.4673440000000 1.0
C      1  0.4652770000000  0.4786290000000  0.5511150000000 1.0
C      1  0.4777870000000  0.5529110000000  0.4637120000000 1.0
C      1  0.4534040000000  0.4624830000000  0.5166250000000 1.0
C      1  0.4493790000000  0.5319890000000  0.4838810000000 1.0
C      1  0.5526240000000  0.5300410000000  0.5217350000000 1.0
C      1  0.5344130000000  0.4877520000000  0.4515270000000 1.0
C      1  0.5338150000000  0.5155390000000  0.5555260000000 1.0
C      1  0.4696510000000  0.5216160000000  0.4507360000000 1.0
C      1  0.5153700000000  0.5517310000000  0.5331300000000 1.0
C      1  0.5221340000000  0.4573520000000  0.4761620000000 1.0
C      1  0.4797140000000  0.4502370000000  0.5250750000000 1.0
C      1  0.5843420000000  0.4431190000000  0.4615910000000 1.0
C      1  0.4429560000000  0.4619920000000  0.5820370000000 1.0
C      1  0.4622920000000  0.5770360000000  0.4472810000000 1.0
C      1  0.4192980000000  0.4450410000000  0.5399940000000 1.0
C      1  0.4206560000000  0.5543440000000  0.4609560000000 1.0
C      1  0.5817800000000  0.5571830000000  0.5374520000000 1.0
C      1  0.5544230000000  0.4604870000000  0.4205580000000 1.0
C      1  0.5562840000000  0.5418170000000  0.5778660000000 1.0
C      1  0.4464100000000  0.5404630000000  0.4182610000000 1.0
C      1  0.5387620000000  0.5794660000000  0.5523510000000 1.0
C      1  0.5400770000000  0.4215720000000  0.4479110000000 1.0
C      1  0.4594450000000  0.4218270000000  0.5548490000000 1.0
C      1  0.4596020000000  0.5655520000000  0.4206400000000 1.0
C      1  0.5648440000000  0.4226190000000  0.4621740000000 1.0
C      1  0.4206640000000  0.4606470000000  0.5640890000000 1.0
C      1  0.5394820000000  0.5648730000000  0.5759470000000 1.0
C      1  0.5386530000000  0.4376430000000  0.4248160000000 1.0
C      1  0.4644890000000  0.4458210000000  0.5699790000000 1.0
C      1  0.4358030000000  0.4227870000000  0.5407100000000 1.0
C      1  0.4366810000000  0.5773590000000  0.4612380000000 1.0
C      1  0.5645730000000  0.5795000000000  0.5385730000000 1.0
C      1  0.5734180000000  0.4625880000000  0.4426850000000 1.0
C      1  0.5700240000000  0.5365340000000  0.5524060000000 1.0
C      1  0.4252320000000  0.5373280000000  0.4375510000000 1.0
C      1  0.5002680000000  0.4722500000000  0.4649850000000 1.0
C      1  0.4814390000000  0.4707810000000  0.4855250000000 1.0
C      1  0.4679170000000  0.4939020000000  0.4880150000000 1.0
C      1  0.5073710000000  0.4837490000000  0.5334570000000 1.0
C      1  0.5046650000000  0.5223930000000  0.4717280000000 1.0
C      1  0.4918400000000  0.5207870000000  0.5336670000000 1.0
C      1  0.5343200000000  0.4666330000000  0.5030220000000 1.0
C      1  0.5131190000000  0.5330660000000  0.4968320000000 1.0
C      1  0.4874380000000  0.5328310000000  0.5125180000000 1.0
C      1  0.5269000000000  0.4901110000000  0.5171540000000 1.0
C      1  0.5264740000000  0.5095970000000  0.4858250000000 1.0
C      1  0.4715030000000  0.5088240000000  0.5203790000000 1.0
C      1  0.5932850000000  0.4826640000000  0.4370080000000 1.0
C      1  0.4817980000000  0.4368740000000  0.5923160000000 1.0
C      1  0.4362920000000  0.5958420000000  0.4819050000000 1.0
C      1  0.4031740000000  0.4828590000000  0.5648660000000 1.0
C      1  0.4104730000000  0.5139260000000  0.4373070000000 1.0
C      1  0.5920400000000  0.5194250000000  0.5609280000000 1.0
C      1  0.5174190000000  0.4355600000000  0.4064670000000 1.0
C      1  0.5178690000000  0.5651190000000  0.5945180000000 1.0
C      1  0.4825410000000  0.5669310000000  0.4046750000000 1.0
C      1  0.5667870000000  0.5983940000000  0.5171250000000 1.0
C      1  0.5658990000000  0.4026000000000  0.4829650000000 1.0
C      1  0.4347220000000  0.4049250000000  0.5193060000000 1.0
C      1  0.4862600000000  0.5042870000000  0.4344850000000 1.0
C      1  0.5085580000000  0.4331740000000  0.4814010000000 1.0
C      1  0.4459120000000  0.4865830000000  0.5009380000000 1.0
C      1  0.5103320000000  0.4971770000000  0.5554070000000 1.0
C      1  0.5126210000000  0.4962200000000  0.4354100000000 1.0
C      1  0.4851260000000  0.4925000000000  0.5673080000000 1.0
C      1  0.4940670000000  0.4319410000000  0.5049720000000 1.0
C      1  0.4920730000000  0.5659760000000  0.4854290000000 1.0
C      1  0.5019440000000  0.5684340000000  0.5131220000000 1.0
C      1  0.5583400000000  0.4821910000000  0.4928920000000 1.0
C      1  0.5642720000000  0.5089450000000  0.5044730000000 1.0
C      1  0.4332160000000  0.5101870000000  0.4955030000000 1.0
C      1  0.4684270000000  0.4344550000000  0.4441680000000 1.0
C      1  0.4372280000000  0.4466800000000  0.4735840000000 1.0
C      1  0.4545800000000  0.4763700000000  0.4439640000000 1.0
C      1  0.5222060000000  0.4377860000000  0.5444310000000 1.0
C      1  0.5250420000000  0.5652550000000  0.4482210000000 1.0
C      1  0.4745300000000  0.5646450000000  0.5519400000000 1.0
C      1  0.5685700000000  0.4454670000000  0.5273710000000 1.0
C      1  0.5629120000000  0.5512660000000  0.4778240000000 1.0
C      1  0.4393390000000  0.5520410000000  0.5236970000000 1.0
C      1  0.5533680000000  0.4734990000000  0.5595630000000 1.0
C      1  0.5496970000000  0.5267170000000  0.4374820000000 1.0
C      1  0.4489320000000  0.5229300000000  0.5626670000000 1.0
C      1  0.5405870000000  0.5179430000000  0.5859970000000 1.0
C      1  0.5175650000000  0.5944000000000  0.5403490000000 1.0
C      1  0.5969820000000  0.5447970000000  0.5166550000000 1.0
C      1  0.4595510000000  0.5190290000000  0.4035760000000 1.0
C      1  0.4553570000000  0.4828830000000  0.5972050000000 1.0
C      1  0.5423230000000  0.4816790000000  0.4053690000000 1.0
C      1  0.4828390000000  0.5983790000000  0.4564230000000 1.0
C      1  0.4800010000000  0.4031950000000  0.5476030000000 1.0
C      1  0.5162770000000  0.4109160000000  0.4629830000000 1.0
C      1  0.4054090000000  0.5424730000000  0.4821830000000 1.0
C      1  0.4055130000000  0.4574380000000  0.5180700000000 1.0
C      1  0.5972660000000  0.4573910000000  0.4829790000000 1.0
C      1  0.5802820000000  0.5283650000000  0.4366490000000 1.0
C      1  0.5249390000000  0.4391310000000  0.5753830000000 1.0
C      1  0.4394270000000  0.5822970000000  0.5293750000000 1.0
C      1  0.4192190000000  0.5295370000000  0.5628770000000 1.0
C      1  0.4233750000000  0.4695290000000  0.4417350000000 1.0
C      1  0.5834000000000  0.4712030000000  0.5612510000000 1.0
C      1  0.4688700000000  0.4374120000000  0.4133030000000 1.0
C      1  0.4684240000000  0.5650130000000  0.5818320000000 1.0
C      1  0.5297100000000  0.5660930000000  0.4188630000000 1.0
C      1  0.5649230000000  0.5799360000000  0.4698470000000 1.0
C      1  0.5702910000000  0.4161780000000  0.5351060000000 1.0
C      1  0.4366780000000  0.4165180000000  0.4726240000000 1.0
C      1  0.5371640000000  0.4151660000000  0.5079750000000 1.0
C      1  0.4118620000000  0.5026010000000  0.5285020000000 1.0
C      1  0.5031830000000  0.5368880000000  0.4198560000000 1.0
C      1  0.4741000000000  0.3951100000000  0.4988560000000 1.0
C      1  0.4744360000000  0.6070480000000  0.5029280000000 1.0
C      1  0.5367510000000  0.5805250000000  0.4980850000000 1.0
C      1  0.6030930000000  0.5052960000000  0.4733750000000 1.0
C      1  0.6062900000000  0.4974150000000  0.5246750000000 1.0
C      1  0.3955050000000  0.4949640000000  0.4759910000000 1.0
C      1  0.4964830000000  0.5293980000000  0.5885170000000 1.0
C      1  0.4950330000000  0.4730050000000  0.3989410000000 1.0
C      1  0.5029340000000  0.4771910000000  0.6032520000000 1.0
C      1  0.4112000000000  0.4532350000000  0.4883300000000 1.0
C      1  0.4509420000000  0.4901350000000  0.4087090000000 1.0
C      1  0.4832090000000  0.4106580000000  0.4525000000000 1.0
C      1  0.5910520000000  0.4565040000000  0.5120370000000 1.0
C      1  0.5904900000000  0.5466130000000  0.4871660000000 1.0
C      1  0.4117180000000  0.5476010000000  0.5119130000000 1.0
C      1  0.5470710000000  0.4840000000000  0.5861170000000 1.0
C      1  0.5406840000000  0.5119210000000  0.4115690000000 1.0
C      1  0.4525220000000  0.5138890000000  0.5909040000000 1.0
C      1  0.5084090000000  0.4078540000000  0.5399670000000 1.0
C      1  0.5117420000000  0.5909540000000  0.4573670000000 1.0
C      1  0.4879890000000  0.5905790000000  0.5457810000000 1.0
C      1  0.4555370000000  0.4992010000000  0.4616120000000 1.0
C      1  0.4796160000000  0.4616100000000  0.4472270000000 1.0
C      1  0.4609430000000  0.4516990000000  0.4895820000000 1.0
C      1  0.5463670000000  0.4948480000000  0.5390830000000 1.0
C      1  0.5452820000000  0.5120810000000  0.4624660000000 1.0
C      1  0.4500300000000  0.5014930000000  0.5407190000000 1.0
C      1  0.5008520000000  0.4582540000000  0.5418950000000 1.0
C      1  0.5041330000000  0.5430180000000  0.4490660000000 1.0
C      1  0.4945520000000  0.5418450000000  0.5540250000000 1.0
C      1  0.5408970000000  0.4429750000000  0.5188110000000 1.0
C      1  0.5428370000000  0.5502870000000  0.5010140000000 1.0
C      1  0.4616050000000  0.5466880000000  0.5047380000000 1.0
C      1  0.4226990000000  0.4905880000000  0.4225790000000 1.0
C      1  0.4933030000000  0.4234350000000  0.4156480000000 1.0
C      1  0.4223340000000  0.4170910000000  0.4965900000000 1.0
C      1  0.5833080000000  0.4961010000000  0.5740970000000 1.0
C      1  0.5793810000000  0.5035140000000  0.4242740000000 1.0
C      1  0.4158410000000  0.5053960000000  0.5770940000000 1.0
C      1  0.5017210000000  0.4232900000000  0.5768210000000 1.0
C      1  0.5049610000000  0.5792300000000  0.4173870000000 1.0
C      1  0.4937700000000  0.5770630000000  0.5845640000000 1.0
C      1  0.5769510000000  0.4100430000000  0.5082320000000 1.0
C      1  0.5777860000000  0.5850870000000  0.4944450000000 1.0
C      1  0.4249310000000  0.5849070000000  0.5056930000000 1.0
C      1  0.4056080000000  0.5310540000000  0.5360080000000 1.0
C      1  0.5275360000000  0.5385960000000  0.4046060000000 1.0
C      1  0.5449160000000  0.4022260000000  0.5323330000000 1.0
C      1  0.5961100000000  0.5308120000000  0.4624580000000 1.0
C      1  0.5999180000000  0.4713150000000  0.5353590000000 1.0
C      1  0.4040070000000  0.4694470000000  0.4643750000000 1.0
C      1  0.4681530000000  0.5385000000000  0.5961550000000 1.0
C      1  0.4677100000000  0.4654740000000  0.4027210000000 1.0
C      1  0.5272300000000  0.4642680000000  0.5923980000000 1.0
C      1  0.4638650000000  0.4025910000000  0.4718620000000 1.0
C      1  0.4647830000000  0.5989170000000  0.5294780000000 1.0
C      1  0.5387290000000  0.5947780000000  0.4728490000000 1.0
C      1  0.4917720000000  0.5011150000000  0.5926090000000 1.0
C      1  0.4986260000000  0.5918250000000  0.4951850000000 1.0
C      1  0.5934860000000  0.5070520000000  0.5006360000000 1.0
C      1  0.5032550000000  0.4986690000000  0.4100090000000 1.0
C      1  0.4986760000000  0.4044680000000  0.5113180000000 1.0
C      1  0.4061390000000  0.5049570000000  0.5006990000000 1.0
END
