TITL C-2441162-9305-135 0.0778779293908449 125000 -20430.8376039066 0 0 148 (C1) n - 1
REM
REM in /home/bkarasulu/work/CARBON/AIRSS/Generating-Clusters/ReaxFF-fromJPCA2015/Units_Real/with-SteepDescent/Higher-Symm
REM
REM
REM
REM
REM
REM ./C.cell (1df0a924f5614ab8850e4351716899ee)
REM
REM compiler GCC version 9.2.1 20190827 (Red Hat 9.2.1-1)
REM options -cpp -mtune=generic -march=x86-64 -g -O0 -fpre-include=/usr/include/finclude/math-vector-fortran.h
REM seed 1065423440 -581892211 -522068498 -1441113573 -997312738 48023330 1957700609 -62452392 1341818002 931253001 1498616926 2009041676 -260508933 1766912824 964617600 597763744 -1015733293 -835242481 -1782138089 447440401 568122638 -543109553 1096643497 -150211748 1406874740 1061102311 -1399930409 -684516158 265273206 744345819 -774956020 751878282 860892914
REM
CELL 1.54180   50.00000   50.00000   50.00000   90.00000   90.00000   90.00000
LATT -1
SFAC C  
C      1  0.4057760000000  0.5327080000000  0.5125450000000 1.0
C      1  0.5298470000000  0.5153790000000  0.4067920000000 1.0
C      1  0.5148160000000  0.4120770000000  0.5329040000000 1.0
C      1  0.4092050000000  0.4669740000000  0.4861750000000 1.0
C      1  0.5896750000000  0.5333520000000  0.4897750000000 1.0
C      1  0.5899860000000  0.4677180000000  0.5105790000000 1.0
C      1  0.5287670000000  0.4849520000000  0.5920460000000 1.0
C      1  0.4666450000000  0.5133290000000  0.5905740000000 1.0
C      1  0.4656100000000  0.4859540000000  0.4108670000000 1.0
C      1  0.5138990000000  0.5892720000000  0.4667420000000 1.0
C      1  0.4851950000000  0.4094470000000  0.4650580000000 1.0
C      1  0.4898360000000  0.5869690000000  0.5338210000000 1.0
C      1  0.4111500000000  0.5145090000000  0.5350140000000 1.0
C      1  0.5345810000000  0.4121790000000  0.5136000000000 1.0
C      1  0.5099010000000  0.5341410000000  0.4100820000000 1.0
C      1  0.4123330000000  0.4861390000000  0.4661210000000 1.0
C      1  0.5897020000000  0.4896220000000  0.5303930000000 1.0
C      1  0.5923080000000  0.5142030000000  0.4698220000000 1.0
C      1  0.5334610000000  0.5887680000000  0.4864260000000 1.0
C      1  0.4696540000000  0.5874650000000  0.5146400000000 1.0
C      1  0.4651920000000  0.4089700000000  0.4844780000000 1.0
C      1  0.5099520000000  0.4646430000000  0.5917110000000 1.0
C      1  0.4855750000000  0.4664090000000  0.4083540000000 1.0
C      1  0.4869250000000  0.5331120000000  0.5904370000000 1.0
C      1  0.6086170000000  0.5334990000000  0.5123470000000 1.0
C      1  0.5305500000000  0.5101650000000  0.6060340000000 1.0
C      1  0.5126700000000  0.6048680000000  0.5313340000000 1.0
C      1  0.6091120000000  0.4675820000000  0.4879730000000 1.0
C      1  0.3907480000000  0.5295900000000  0.4864720000000 1.0
C      1  0.3952360000000  0.4694160000000  0.5113730000000 1.0
C      1  0.5300820000000  0.4895410000000  0.3927690000000 1.0
C      1  0.4656700000000  0.5104720000000  0.3945570000000 1.0
C      1  0.4663010000000  0.4888500000000  0.6054580000000 1.0
C      1  0.5109950000000  0.3961840000000  0.4690140000000 1.0
C      1  0.4899650000000  0.6044460000000  0.4692420000000 1.0
C      1  0.4903410000000  0.3965700000000  0.5303720000000 1.0
C      1  0.6101210000000  0.5108520000000  0.5315470000000 1.0
C      1  0.5327830000000  0.6037900000000  0.5103800000000 1.0
C      1  0.5117010000000  0.5321470000000  0.6051950000000 1.0
C      1  0.6079380000000  0.4891310000000  0.4674720000000 1.0
C      1  0.3955270000000  0.4899620000000  0.5326870000000 1.0
C      1  0.3953860000000  0.5098420000000  0.4655050000000 1.0
C      1  0.5315410000000  0.3967240000000  0.4896170000000 1.0
C      1  0.4695070000000  0.3955050000000  0.5101040000000 1.0
C      1  0.4704260000000  0.6040720000000  0.4906970000000 1.0
C      1  0.5104740000000  0.4683120000000  0.3936300000000 1.0
C      1  0.4857410000000  0.4672900000000  0.6075900000000 1.0
C      1  0.4857630000000  0.5325240000000  0.3933130000000 1.0
C      1  0.5308810000000  0.4022250000000  0.4487180000000 1.0
C      1  0.4033160000000  0.4495200000000  0.5306860000000 1.0
C      1  0.4461680000000  0.5288060000000  0.4063280000000 1.0
C      1  0.5326060000000  0.5973630000000  0.5509680000000 1.0
C      1  0.4703950000000  0.4014940000000  0.5507820000000 1.0
C      1  0.4692050000000  0.5980000000000  0.4500030000000 1.0
C      1  0.4013350000000  0.5506950000000  0.4691550000000 1.0
C      1  0.5947710000000  0.4496360000000  0.4700620000000 1.0
C      1  0.5988420000000  0.5508880000000  0.5337830000000 1.0
C      1  0.4460150000000  0.4698230000000  0.5971290000000 1.0
C      1  0.5519540000000  0.5279160000000  0.5974300000000 1.0
C      1  0.5507290000000  0.4711130000000  0.4018580000000 1.0
C      1  0.5310070000000  0.4494450000000  0.4015980000000 1.0
C      1  0.4032860000000  0.5311250000000  0.4471780000000 1.0
C      1  0.4494900000000  0.4016910000000  0.5302890000000 1.0
C      1  0.5328590000000  0.5501470000000  0.5971760000000 1.0
C      1  0.4657410000000  0.5509570000000  0.4038810000000 1.0
C      1  0.4657080000000  0.4481900000000  0.5990860000000 1.0
C      1  0.4045630000000  0.4699440000000  0.5518330000000 1.0
C      1  0.5954460000000  0.4700980000000  0.4489730000000 1.0
C      1  0.5998720000000  0.5282570000000  0.5530240000000 1.0
C      1  0.4494500000000  0.5980810000000  0.4715670000000 1.0
C      1  0.5529060000000  0.5963500000000  0.5298670000000 1.0
C      1  0.5515980000000  0.4033040000000  0.4695880000000 1.0
C      1  0.4718620000000  0.5482180000000  0.4322690000000 1.0
C      1  0.5498630000000  0.4323770000000  0.4687840000000 1.0
C      1  0.4334980000000  0.4743390000000  0.5455560000000 1.0
C      1  0.4700260000000  0.4503180000000  0.5701980000000 1.0
C      1  0.5308230000000  0.5477470000000  0.5684110000000 1.0
C      1  0.5284480000000  0.4520160000000  0.4303990000000 1.0
C      1  0.5507410000000  0.5670790000000  0.5297320000000 1.0
C      1  0.4509360000000  0.4308740000000  0.5297430000000 1.0
C      1  0.4510430000000  0.5689480000000  0.4725810000000 1.0
C      1  0.4320470000000  0.5292750000000  0.4521290000000 1.0
C      1  0.5669380000000  0.4734520000000  0.4517040000000 1.0
C      1  0.5710350000000  0.5224370000000  0.5474330000000 1.0
C      1  0.4710230000000  0.4306250000000  0.5497110000000 1.0
C      1  0.5482330000000  0.4722400000000  0.4309280000000 1.0
C      1  0.4305220000000  0.5492090000000  0.4720190000000 1.0
C      1  0.4704140000000  0.5687860000000  0.4518140000000 1.0
C      1  0.5299830000000  0.5682710000000  0.5489790000000 1.0
C      1  0.5293200000000  0.4315920000000  0.4502030000000 1.0
C      1  0.5510410000000  0.5274560000000  0.5681350000000 1.0
C      1  0.4547850000000  0.5246480000000  0.4350100000000 1.0
C      1  0.4506930000000  0.4708750000000  0.5682720000000 1.0
C      1  0.4320990000000  0.4519390000000  0.5270060000000 1.0
C      1  0.5644090000000  0.4562760000000  0.4748050000000 1.0
C      1  0.5701930000000  0.5459260000000  0.5295610000000 1.0
C      1  0.4508510000000  0.5280380000000  0.5711730000000 1.0
C      1  0.5285020000000  0.5690760000000  0.4507500000000 1.0
C      1  0.5746520000000  0.4489350000000  0.5282220000000 1.0
C      1  0.4499430000000  0.4679250000000  0.4293180000000 1.0
C      1  0.5473430000000  0.5307080000000  0.4239940000000 1.0
C      1  0.5443800000000  0.4716520000000  0.5723910000000 1.0
C      1  0.5293610000000  0.4315640000000  0.5498040000000 1.0
C      1  0.4727470000000  0.5717660000000  0.5526460000000 1.0
C      1  0.4788130000000  0.4324980000000  0.4485280000000 1.0
C      1  0.5728010000000  0.5507090000000  0.4721590000000 1.0
C      1  0.4243330000000  0.4468890000000  0.4708530000000 1.0
C      1  0.4233910000000  0.5521510000000  0.5153170000000 1.0
C      1  0.4518240000000  0.5736430000000  0.5330940000000 1.0
C      1  0.5263500000000  0.4490010000000  0.5728250000000 1.0
C      1  0.5754070000000  0.5299850000000  0.4524340000000 1.0
C      1  0.4471290000000  0.4312360000000  0.4796190000000 1.0
C      1  0.5509210000000  0.4320180000000  0.5291490000000 1.0
C      1  0.5491480000000  0.5686140000000  0.4715100000000 1.0
C      1  0.5278350000000  0.5513990000000  0.4268270000000 1.0
C      1  0.4714300000000  0.5490470000000  0.5705760000000 1.0
C      1  0.4709250000000  0.4477980000000  0.4254180000000 1.0
C      1  0.5767050000000  0.4702100000000  0.5489310000000 1.0
C      1  0.4295610000000  0.4678140000000  0.4501910000000 1.0
C      1  0.4325670000000  0.5261120000000  0.5502490000000 1.0
C      1  0.4551810000000  0.4990240000000  0.5217890000000 1.0
C      1  0.4998450000000  0.5216780000000  0.4584400000000 1.0
C      1  0.5202630000000  0.4603050000000  0.4994730000000 1.0
C      1  0.4603270000000  0.5003960000000  0.4804330000000 1.0
C      1  0.5398320000000  0.4998380000000  0.4802050000000 1.0
C      1  0.5399340000000  0.4961840000000  0.5270410000000 1.0
C      1  0.4978710000000  0.4797630000000  0.5417740000000 1.0
C      1  0.4984280000000  0.5204150000000  0.5406790000000 1.0
C      1  0.4989530000000  0.4803830000000  0.4593940000000 1.0
C      1  0.5207860000000  0.5380860000000  0.5018700000000 1.0
C      1  0.4792510000000  0.4593790000000  0.5000000000000 1.0
C      1  0.4798900000000  0.5401470000000  0.5011480000000 1.0
C      1  0.4590060000000  0.5205250000000  0.5010830000000 1.0
C      1  0.5000240000000  0.4604090000000  0.5200870000000 1.0
C      1  0.5190590000000  0.5006830000000  0.4604660000000 1.0
C      1  0.4592970000000  0.4793410000000  0.5000800000000 1.0
C      1  0.5444960000000  0.4751790000000  0.4937620000000 1.0
C      1  0.5392070000000  0.5152720000000  0.5035960000000 1.0
C      1  0.5004450000000  0.5407810000000  0.4804090000000 1.0
C      1  0.4995190000000  0.5399000000000  0.5208920000000 1.0
C      1  0.4991160000000  0.4591690000000  0.4796320000000 1.0
C      1  0.5174240000000  0.4999690000000  0.5428260000000 1.0
C      1  0.4782630000000  0.5016270000000  0.4571250000000 1.0
C      1  0.4775970000000  0.5002310000000  0.5411240000000 1.0
C      1  0.5489700000000  0.5248930000000  0.4503930000000 1.0
C      1  0.5523140000000  0.4818840000000  0.5483740000000 1.0
C      1  0.4387970000000  0.5493570000000  0.5337540000000 1.0
C      1  0.4639470000000  0.4490330000000  0.4661970000000 1.0
END
