TITL C-2441165-58-237 0.112823867489371 125000 -2997.42961161663 0 0 44 (C1) n - 1
REM
REM in /home/bkarasulu/work/CARBON/AIRSS/Generating-Clusters/ReaxFF-fromJPCA2015/Units_Real/with-SteepDescent/Higher-Symm
REM
REM
REM
REM
REM
REM ./C.cell (1df0a924f5614ab8850e4351716899ee)
REM
REM compiler GCC version 9.2.1 20190827 (Red Hat 9.2.1-1)
REM options -cpp -mtune=generic -march=x86-64 -g -O0 -fpre-include=/usr/include/finclude/math-vector-fortran.h
REM seed -1001481685 -680464982 -448993110 344506625 1400246526 -1681516203 1584985561 -2033052046 -686054359 -91851586 548297573 -1167394404 -2054694429 -1824351202 1332632470 -1844058079 185944810 -717775837 213647829 -1845349464 1956033699 -195915211 1075860631 1747540908 -1824891219 -765290809 824412032 762257074 -1599394616 -722784009 -746445584 736871928 1456087396
REM
CELL 1.54180   50.00000   50.00000   50.00000   90.00000   90.00000   90.00000
LATT -1
SFAC C  
C      1  0.4643050000000  0.5459120000000  0.5247540000000 1.0
C      1  0.4646890000000  0.5375660000000  0.4623790000000 1.0
C      1  0.4646260000000  0.4755490000000  0.4514770000000 1.0
C      1  0.4640500000000  0.4453020000000  0.5067750000000 1.0
C      1  0.4646890000000  0.4890150000000  0.5519070000000 1.0
C      1  0.5299440000000  0.5463110000000  0.4739200000000 1.0
C      1  0.5295340000000  0.5374820000000  0.5361640000000 1.0
C      1  0.5297120000000  0.4755110000000  0.5479950000000 1.0
C      1  0.5295680000000  0.4455170000000  0.4922750000000 1.0
C      1  0.5297430000000  0.4893570000000  0.4467610000000 1.0
C      1  0.4533260000000  0.5159210000000  0.5486530000000 1.0
C      1  0.4529840000000  0.5510730000000  0.4979940000000 1.0
C      1  0.4530750000000  0.5135720000000  0.4492320000000 1.0
C      1  0.4533290000000  0.4560900000000  0.4698200000000 1.0
C      1  0.4538090000000  0.4561460000000  0.5316160000000 1.0
C      1  0.5410230000000  0.5160690000000  0.4502150000000 1.0
C      1  0.5403740000000  0.5521170000000  0.5004320000000 1.0
C      1  0.5409310000000  0.5138740000000  0.5493370000000 1.0
C      1  0.5411260000000  0.4555380000000  0.5292880000000 1.0
C      1  0.5409720000000  0.4571510000000  0.4679010000000 1.0
C      1  0.4933440000000  0.4735170000000  0.4636490000000 1.0
C      1  0.4920760000000  0.4572050000000  0.5123150000000 1.0
C      1  0.4931340000000  0.4978940000000  0.5434650000000 1.0
C      1  0.4923490000000  0.5396500000000  0.5137550000000 1.0
C      1  0.4918500000000  0.5252850000000  0.4653530000000 1.0
C      1  0.5018530000000  0.4741540000000  0.5349140000000 1.0
C      1  0.5008710000000  0.4569570000000  0.4865110000000 1.0
C      1  0.5006240000000  0.4986590000000  0.4557450000000 1.0
C      1  0.5024150000000  0.5397460000000  0.4850690000000 1.0
C      1  0.5011000000000  0.5252700000000  0.5345940000000 1.0
C      1  0.4641190000000  0.5193720000000  0.5288680000000 1.0
C      1  0.4629480000000  0.5327070000000  0.4890280000000 1.0
C      1  0.4635360000000  0.4996000000000  0.4637880000000 1.0
C      1  0.4637350000000  0.4648440000000  0.4881580000000 1.0
C      1  0.4627020000000  0.4788400000000  0.5264150000000 1.0
C      1  0.5311310000000  0.5192670000000  0.4704770000000 1.0
C      1  0.5316090000000  0.5307300000000  0.5095440000000 1.0
C      1  0.5301110000000  0.4993950000000  0.5354440000000 1.0
C      1  0.5320570000000  0.4655410000000  0.5110540000000 1.0
C      1  0.5305660000000  0.4771520000000  0.4709840000000 1.0
C      1  0.4247140000000  0.4987610000000  0.4994390000000 1.0
C      1  0.5695060000000  0.4987580000000  0.4994350000000 1.0
C      1  0.5412010000000  0.4981150000000  0.4994710000000 1.0
C      1  0.4528510000000  0.4990550000000  0.4991090000000 1.0
END
