TITL C-2441159-1093-604 0.000866703821820311 125000 -4458.6841465918 0 0 32 (C1) n - 1
REM
REM in /home/bkarasulu/work/CARBON/AIRSS/Generating-Clusters/ReaxFF-fromJPCA2015/Units_Real/with-SteepDescent/Higher-Symm
REM
REM
REM
REM
REM
REM ./C.cell (1df0a924f5614ab8850e4351716899ee)
REM
REM compiler GCC version 9.2.1 20190827 (Red Hat 9.2.1-1)
REM options -cpp -mtune=generic -march=x86-64 -g -O0 -fpre-include=/usr/include/finclude/math-vector-fortran.h
REM seed 1910616342 818445348 -1224600110 -126157467 1177684691 -1051736938 -188008188 1859263913 955288135 1596749966 -2041348617 -694420775 1782861760 1357995574 -1006180195 1984943361 183476245 -741430529 -2068753832 -2070394250 -1014437177 189746293 -613238621 1108376901 -300646848 1016762651 1003969538 -162310364 -1720607926 -471114994 -1462336192 -882557328 -1754164640
REM
CELL 1.54180   50.00000   50.00000   50.00000   90.00000   90.00000   90.00000
LATT -1
SFAC C  
C      1  0.5295710000000  0.4731810000000  0.4547690000000 1.0
C      1  0.5511570000000  0.5050690000000  0.5533690000000 1.0
C      1  0.4578370000000  0.4735860000000  0.5190340000000 1.0
C      1  0.4832730000000  0.4728930000000  0.4470050000000 1.0
C      1  0.5502310000000  0.4981450000000  0.5291960000000 1.0
C      1  0.5580720000000  0.5120820000000  0.4799410000000 1.0
C      1  0.4565230000000  0.4687140000000  0.4596800000000 1.0
C      1  0.5715380000000  0.5040570000000  0.5043370000000 1.0
C      1  0.5020910000000  0.5379230000000  0.4273610000000 1.0
C      1  0.4584730000000  0.4971170000000  0.4706420000000 1.0
C      1  0.4538890000000  0.5019090000000  0.5198060000000 1.0
C      1  0.5058130000000  0.4813760000000  0.5062300000000 1.0
C      1  0.4905450000000  0.4575280000000  0.5569250000000 1.0
C      1  0.4744090000000  0.5492350000000  0.4677830000000 1.0
C      1  0.4627400000000  0.5405390000000  0.4932880000000 1.0
C      1  0.4725340000000  0.4540300000000  0.5324680000000 1.0
C      1  0.5125020000000  0.4446800000000  0.5636770000000 1.0
C      1  0.4879700000000  0.4995320000000  0.4618580000000 1.0
C      1  0.5478460000000  0.5349480000000  0.4931580000000 1.0
C      1  0.4885820000000  0.5308990000000  0.4482980000000 1.0
C      1  0.5067830000000  0.4850590000000  0.5552350000000 1.0
C      1  0.5278320000000  0.5464870000000  0.5040930000000 1.0
C      1  0.5346690000000  0.4939360000000  0.4700180000000 1.0
C      1  0.5043570000000  0.5486450000000  0.5130350000000 1.0
C      1  0.4822890000000  0.4651480000000  0.5090280000000 1.0
C      1  0.4505050000000  0.5133460000000  0.4936420000000 1.0
C      1  0.4778070000000  0.5440380000000  0.5189620000000 1.0
C      1  0.5100040000000  0.4554690000000  0.4443990000000 1.0
C      1  0.5094240000000  0.4957320000000  0.4818310000000 1.0
C      1  0.4884450000000  0.5081830000000  0.5557010000000 1.0
C      1  0.5220910000000  0.4861980000000  0.5296170000000 1.0
C      1  0.4701990000000  0.5203170000000  0.5356130000000 1.0
END
