TITL C-2441159-1093-424 0.0937040486052448 125000 -26197.1987399127 0 0 191 (C1) n - 1
REM
REM in /home/bkarasulu/work/CARBON/AIRSS/Generating-Clusters/ReaxFF-fromJPCA2015/Units_Real/with-SteepDescent/Higher-Symm
REM
REM
REM
REM
REM
REM ./C.cell (1df0a924f5614ab8850e4351716899ee)
REM
REM compiler GCC version 9.2.1 20190827 (Red Hat 9.2.1-1)
REM options -cpp -mtune=generic -march=x86-64 -g -O0 -fpre-include=/usr/include/finclude/math-vector-fortran.h
REM seed -1023647381 1540644010 -110277052 932292145 1177675577 -34614965 -1786392203 1437033237 1229372150 -163498313 1535267154 1996135132 895758529 -89151984 -210617125 -662713468 -1839910503 -255960706 1914267355 452043601 -1127560772 -47647054 1324569853 -1888774816 1797705844 -1236819360 1928391917 173190832 1485367574 -715819572 53587345 -1718206784 -679841021
REM
CELL 1.54180   50.00000   50.00000   50.00000   90.00000   90.00000   90.00000
LATT -1
SFAC C  
C      1  0.4552710000000  0.5475250000000  0.5315210000000 1.0
C      1  0.5597960000000  0.5097950000000  0.5277620000000 1.0
C      1  0.4781960000000  0.4398560000000  0.5347310000000 1.0
C      1  0.4938320000000  0.5761600000000  0.4427960000000 1.0
C      1  0.5721790000000  0.4664370000000  0.4382530000000 1.0
C      1  0.4382850000000  0.4509850000000  0.4392860000000 1.0
C      1  0.4660320000000  0.5004060000000  0.4413480000000 1.0
C      1  0.5199760000000  0.5258930000000  0.4402090000000 1.0
C      1  0.5089700000000  0.4750410000000  0.4343330000000 1.0
C      1  0.4625580000000  0.4200550000000  0.5515940000000 1.0
C      1  0.4502330000000  0.5790550000000  0.5572930000000 1.0
C      1  0.5917260000000  0.5036970000000  0.5569020000000 1.0
C      1  0.4613390000000  0.4549060000000  0.5080830000000 1.0
C      1  0.4791010000000  0.5550680000000  0.5078650000000 1.0
C      1  0.5604640000000  0.4889920000000  0.5077080000000 1.0
C      1  0.3847900000000  0.4984260000000  0.4635440000000 1.0
C      1  0.5560320000000  0.5999790000000  0.4627110000000 1.0
C      1  0.5539060000000  0.4032310000000  0.4647420000000 1.0
C      1  0.5929850000000  0.4595880000000  0.5308500000000 1.0
C      1  0.4197550000000  0.4384090000000  0.5288430000000 1.0
C      1  0.4940950000000  0.5983110000000  0.5370450000000 1.0
C      1  0.4543050000000  0.5626060000000  0.4254130000000 1.0
C      1  0.5793760000000  0.5113080000000  0.4249610000000 1.0
C      1  0.4711340000000  0.4247880000000  0.4262220000000 1.0
C      1  0.5419510000000  0.6031940000000  0.5219720000000 1.0
C      1  0.5641920000000  0.4174330000000  0.5249590000000 1.0
C      1  0.3940360000000  0.4854660000000  0.5221430000000 1.0
C      1  0.4269690000000  0.5487420000000  0.4795420000000 1.0
C      1  0.5752650000000  0.5403660000000  0.4833680000000 1.0
C      1  0.4983750000000  0.4170180000000  0.4889250000000 1.0
C      1  0.4400370000000  0.5302860000000  0.5907040000000 1.0
C      1  0.5551510000000  0.5386270000000  0.5898200000000 1.0
C      1  0.5027750000000  0.4302450000000  0.5913300000000 1.0
C      1  0.5325840000000  0.4587390000000  0.5971320000000 1.0
C      1  0.4494800000000  0.4911780000000  0.5983490000000 1.0
C      1  0.5159490000000  0.5466900000000  0.6018490000000 1.0
C      1  0.4901100000000  0.5312370000000  0.5978250000000 1.0
C      1  0.5390350000000  0.4985700000000  0.6078350000000 1.0
C      1  0.4809080000000  0.4691020000000  0.6020090000000 1.0
C      1  0.5637870000000  0.4934970000000  0.5936580000000 1.0
C      1  0.4618850000000  0.4478490000000  0.5916080000000 1.0
C      1  0.4733400000000  0.5544800000000  0.5874240000000 1.0
C      1  0.5369410000000  0.3933420000000  0.4871000000000 1.0
C      1  0.3895020000000  0.5210360000000  0.4821060000000 1.0
C      1  0.5730100000000  0.5862470000000  0.4823570000000 1.0
C      1  0.5889980000000  0.4750660000000  0.5561430000000 1.0
C      1  0.4354690000000  0.4362650000000  0.5529310000000 1.0
C      1  0.4774510000000  0.5905510000000  0.5591790000000 1.0
C      1  0.4929320000000  0.4838560000000  0.5772620000000 1.0
C      1  0.4987030000000  0.5131620000000  0.5742450000000 1.0
C      1  0.5258990000000  0.4856680000000  0.5838080000000 1.0
C      1  0.5071410000000  0.4741220000000  0.4752170000000 1.0
C      1  0.4700710000000  0.4955640000000  0.4703650000000 1.0
C      1  0.5077410000000  0.5214980000000  0.4858700000000 1.0
C      1  0.4834180000000  0.5480900000000  0.4562670000000 1.0
C      1  0.5491240000000  0.4787810000000  0.4591360000000 1.0
C      1  0.4557120000000  0.4622740000000  0.4622710000000 1.0
C      1  0.5073810000000  0.3890670000000  0.4906030000000 1.0
C      1  0.4014370000000  0.5437060000000  0.4677650000000 1.0
C      1  0.5833380000000  0.5635980000000  0.4670930000000 1.0
C      1  0.4378410000000  0.5384840000000  0.4205740000000 1.0
C      1  0.5618410000000  0.5363170000000  0.4258230000000 1.0
C      1  0.4997990000000  0.4258910000000  0.4201050000000 1.0
C      1  0.4270880000000  0.4205530000000  0.5061540000000 1.0
C      1  0.4766890000000  0.5986570000000  0.5108180000000 1.0
C      1  0.6040460000000  0.4746900000000  0.5082950000000 1.0
C      1  0.5628400000000  0.4955940000000  0.4801590000000 1.0
C      1  0.4637310000000  0.4435470000000  0.4818710000000 1.0
C      1  0.4695230000000  0.5560120000000  0.4800980000000 1.0
C      1  0.4741090000000  0.5947700000000  0.4566910000000 1.0
C      1  0.5957030000000  0.4756700000000  0.4545760000000 1.0
C      1  0.4313280000000  0.4259650000000  0.4540110000000 1.0
C      1  0.5538740000000  0.5828860000000  0.4389930000000 1.0
C      1  0.5464710000000  0.4118880000000  0.4367820000000 1.0
C      1  0.3984950000000  0.5057180000000  0.4384820000000 1.0
C      1  0.4420550000000  0.5006240000000  0.5138040000000 1.0
C      1  0.5302750000000  0.5521290000000  0.5242750000000 1.0
C      1  0.5280650000000  0.4512290000000  0.5167810000000 1.0
C      1  0.6093610000000  0.4995900000000  0.5184680000000 1.0
C      1  0.4506860000000  0.4040090000000  0.5044910000000 1.0
C      1  0.4499550000000  0.5904210000000  0.5069100000000 1.0
C      1  0.4448800000000  0.5722440000000  0.4777010000000 1.0
C      1  0.5828920000000  0.5143390000000  0.4729360000000 1.0
C      1  0.4673840000000  0.4148340000000  0.4784350000000 1.0
C      1  0.5090500000000  0.5628340000000  0.5075450000000 1.0
C      1  0.5495190000000  0.4616870000000  0.5005900000000 1.0
C      1  0.4392540000000  0.4735910000000  0.5049640000000 1.0
C      1  0.4985710000000  0.5539490000000  0.5548460000000 1.0
C      1  0.5480820000000  0.4791930000000  0.5512070000000 1.0
C      1  0.4535320000000  0.4776390000000  0.5568020000000 1.0
C      1  0.5402480000000  0.4914840000000  0.4075340000000 1.0
C      1  0.4694130000000  0.4690230000000  0.4026540000000 1.0
C      1  0.4839820000000  0.5374640000000  0.4088770000000 1.0
C      1  0.5141490000000  0.4970390000000  0.5255750000000 1.0
C      1  0.4866750000000  0.4859500000000  0.5299570000000 1.0
C      1  0.4913890000000  0.5157530000000  0.5289280000000 1.0
C      1  0.4607680000000  0.5164450000000  0.6062170000000 1.0
C      1  0.5368420000000  0.5282290000000  0.6094700000000 1.0
C      1  0.5049370000000  0.4538560000000  0.6081660000000 1.0
C      1  0.4007620000000  0.4579960000000  0.5152120000000 1.0
C      1  0.5213400000000  0.6133310000000  0.5077060000000 1.0
C      1  0.5841740000000  0.4352160000000  0.5169060000000 1.0
C      1  0.5231010000000  0.5973390000000  0.5449800000000 1.0
C      1  0.5579180000000  0.4303210000000  0.5481220000000 1.0
C      1  0.4091340000000  0.4841780000000  0.5470120000000 1.0
C      1  0.5284840000000  0.4355290000000  0.5800220000000 1.0
C      1  0.4261740000000  0.5045520000000  0.5868650000000 1.0
C      1  0.5347760000000  0.5568440000000  0.5791180000000 1.0
C      1  0.4134880000000  0.5326780000000  0.4422040000000 1.0
C      1  0.5723810000000  0.5610430000000  0.4402760000000 1.0
C      1  0.5178310000000  0.4169470000000  0.4404420000000 1.0
C      1  0.5678810000000  0.4868730000000  0.4155720000000 1.0
C      1  0.4548960000000  0.4466400000000  0.4154660000000 1.0
C      1  0.4827710000000  0.5652720000000  0.4167100000000 1.0
C      1  0.5465250000000  0.5464420000000  0.4747750000000 1.0
C      1  0.5189590000000  0.4334340000000  0.4663780000000 1.0
C      1  0.4309690000000  0.5027670000000  0.4675910000000 1.0
C      1  0.5107490000000  0.6158590000000  0.4821450000000 1.0
C      1  0.5885670000000  0.4378490000000  0.4873970000000 1.0
C      1  0.4006910000000  0.4528660000000  0.4856230000000 1.0
C      1  0.5638750000000  0.5152260000000  0.5727540000000 1.0
C      1  0.4758100000000  0.4261810000000  0.5791280000000 1.0
C      1  0.4516280000000  0.5510760000000  0.5673190000000 1.0
C      1  0.4450560000000  0.5130000000000  0.4066520000000 1.0
C      1  0.5341340000000  0.5380900000000  0.4034670000000 1.0
C      1  0.5169810000000  0.4473310000000  0.4039220000000 1.0
C      1  0.6111000000000  0.5168110000000  0.5397060000000 1.0
C      1  0.4656130000000  0.3962060000000  0.5272850000000 1.0
C      1  0.4350750000000  0.5890110000000  0.5324180000000 1.0
C      1  0.4002920000000  0.5359830000000  0.5264840000000 1.0
C      1  0.5756200000000  0.5660030000000  0.5282630000000 1.0
C      1  0.5172890000000  0.4061860000000  0.5283470000000 1.0
C      1  0.5372660000000  0.4518440000000  0.5445580000000 1.0
C      1  0.4368090000000  0.4945010000000  0.5420600000000 1.0
C      1  0.5251300000000  0.5486960000000  0.5521340000000 1.0
C      1  0.5365170000000  0.5037240000000  0.5615910000000 1.0
C      1  0.4809120000000  0.4709760000000  0.5526890000000 1.0
C      1  0.4884630000000  0.5281660000000  0.5529100000000 1.0
C      1  0.5044010000000  0.4565100000000  0.4547120000000 1.0
C      1  0.4383590000000  0.5276590000000  0.4601480000000 1.0
C      1  0.5456270000000  0.5320880000000  0.4509840000000 1.0
C      1  0.5951180000000  0.5044950000000  0.4488010000000 1.0
C      1  0.4569350000000  0.4136970000000  0.4498080000000 1.0
C      1  0.4506860000000  0.5808840000000  0.4489550000000 1.0
C      1  0.6001600000000  0.4628840000000  0.4800280000000 1.0
C      1  0.4173600000000  0.4296120000000  0.4801280000000 1.0
C      1  0.4827490000000  0.6056530000000  0.4828680000000 1.0
C      1  0.3950010000000  0.5122560000000  0.5088960000000 1.0
C      1  0.5656680000000  0.5863860000000  0.5102770000000 1.0
C      1  0.5423180000000  0.4058890000000  0.5116040000000 1.0
C      1  0.4961860000000  0.4239670000000  0.5185010000000 1.0
C      1  0.4296050000000  0.5468720000000  0.5138490000000 1.0
C      1  0.5802440000000  0.5371150000000  0.5167720000000 1.0
C      1  0.5400050000000  0.4463940000000  0.4154690000000 1.0
C      1  0.4372090000000  0.4935550000000  0.4268560000000 1.0
C      1  0.5208090000000  0.5511000000000  0.4248860000000 1.0
C      1  0.4931470000000  0.5727120000000  0.5775740000000 1.0
C      1  0.5654910000000  0.4714580000000  0.5748480000000 1.0
C      1  0.4401620000000  0.4572640000000  0.5732960000000 1.0
C      1  0.5289580000000  0.4966100000000  0.4357020000000 1.0
C      1  0.4826670000000  0.4803430000000  0.4266810000000 1.0
C      1  0.4780310000000  0.5284420000000  0.4364270000000 1.0
C      1  0.5279970000000  0.6025480000000  0.4636600000000 1.0
C      1  0.5730040000000  0.4250550000000  0.4666110000000 1.0
C      1  0.3970700000000  0.4723830000000  0.4641450000000 1.0
C      1  0.4865830000000  0.3826160000000  0.5119630000000 1.0
C      1  0.4164020000000  0.5715080000000  0.5210740000000 1.0
C      1  0.6096060000000  0.5408130000000  0.5180190000000 1.0
C      1  0.4829450000000  0.5260980000000  0.5037690000000 1.0
C      1  0.5257650000000  0.5082440000000  0.5034150000000 1.0
C      1  0.4825080000000  0.4713340000000  0.5094170000000 1.0
C      1  0.5200530000000  0.5514450000000  0.4840330000000 1.0
C      1  0.5418760000000  0.4549420000000  0.4742530000000 1.0
C      1  0.4347290000000  0.4777830000000  0.4775670000000 1.0
C      1  0.4127150000000  0.4803010000000  0.4367940000000 1.0
C      1  0.5237160000000  0.5848020000000  0.4419270000000 1.0
C      1  0.5664270000000  0.4345430000000  0.4388790000000 1.0
C      1  0.5233640000000  0.4005430000000  0.5550660000000 1.0
C      1  0.4011930000000  0.5259580000000  0.5521850000000 1.0
C      1  0.5614110000000  0.5742260000000  0.5501930000000 1.0
C      1  0.4018340000000  0.5038160000000  0.5683660000000 1.0
C      1  0.5414940000000  0.5849150000000  0.5651250000000 1.0
C      1  0.5438160000000  0.4142230000000  0.5684900000000 1.0
C      1  0.5184910000000  0.4773610000000  0.3943540000000 1.0
C      1  0.4673530000000  0.4966160000000  0.3922240000000 1.0
C      1  0.5081510000000  0.5260280000000  0.3943600000000 1.0
C      1  0.5059840000000  0.4615590000000  0.5007460000000 1.0
C      1  0.4607790000000  0.5109720000000  0.4936840000000 1.0
C      1  0.5415130000000  0.5268930000000  0.5136810000000 1.0
C      1  0.4974950000000  0.4986060000000  0.3901840000000 1.0
C      1  0.4977730000000  0.4996290000000  0.4700100000000 1.0
END
