TITL C-2441162-9305-649 0.0219166228237556 125000 -9325.15330921546 0 0 68 (C2h) n - 1
REM
REM in /home/bkarasulu/work/CARBON/AIRSS/Generating-Clusters/ReaxFF-fromJPCA2015/Units_Real/with-SteepDescent/Higher-Symm
REM
REM
REM
REM
REM
REM ./C.cell (1df0a924f5614ab8850e4351716899ee)
REM
REM compiler GCC version 9.2.1 20190827 (Red Hat 9.2.1-1)
REM options -cpp -mtune=generic -march=x86-64 -g -O0 -fpre-include=/usr/include/finclude/math-vector-fortran.h
REM seed 1183188481 188011310 287445283 -213170474 1516154445 1010817656 -554479849 -1509656825 870097414 -1932836448 -990504753 -1060827374 -664545377 2105205514 1818133856 -1925408825 -1854637660 1000462505 -1206928406 -644201575 -769452615 -1554795648 614671137 -17961170 -1780909700 -705969243 -330972519 -1430573708 -920495733 -1903485394 1023118166 -633340917 -473479633
REM
CELL 1.54180   50.00000   50.00000   50.00000   90.00000   90.00000   90.00000
LATT -1
SFAC C  
C      1  0.4963780000000  0.4681880000000  0.4214020000000 1.0
C      1  0.5035520000000  0.4683230000000  0.5784710000000 1.0
C      1  0.4964060000000  0.5318640000000  0.4215420000000 1.0
C      1  0.5036000000000  0.5316570000000  0.5784190000000 1.0
C      1  0.5179810000000  0.4722230000000  0.5410860000000 1.0
C      1  0.4823610000000  0.4724300000000  0.4589950000000 1.0
C      1  0.5181880000000  0.5275220000000  0.5410820000000 1.0
C      1  0.4822360000000  0.5276090000000  0.4590450000000 1.0
C      1  0.5549620000000  0.5445160000000  0.5352240000000 1.0
C      1  0.4450660000000  0.5443620000000  0.4649530000000 1.0
C      1  0.5547430000000  0.4559280000000  0.5347170000000 1.0
C      1  0.4452500000000  0.4559000000000  0.4652730000000 1.0
C      1  0.5231230000000  0.4711580000000  0.5128830000000 1.0
C      1  0.4766480000000  0.4713330000000  0.4871890000000 1.0
C      1  0.5233860000000  0.5284620000000  0.5127770000000 1.0
C      1  0.4767270000000  0.5286590000000  0.4872390000000 1.0
C      1  0.4796110000000  0.4852520000000  0.5809030000000 1.0
C      1  0.5202800000000  0.4852690000000  0.4189450000000 1.0
C      1  0.4796420000000  0.5147580000000  0.5809830000000 1.0
C      1  0.5203580000000  0.5147040000000  0.4190830000000 1.0
C      1  0.5231610000000  0.4857600000000  0.5656820000000 1.0
C      1  0.4769490000000  0.4858760000000  0.4344420000000 1.0
C      1  0.5232500000000  0.5140630000000  0.5656790000000 1.0
C      1  0.4770030000000  0.5141480000000  0.4344830000000 1.0
C      1  0.4354370000000  0.5145910000000  0.5516640000000 1.0
C      1  0.5651470000000  0.5144970000000  0.4484520000000 1.0
C      1  0.4347690000000  0.4853810000000  0.5514160000000 1.0
C      1  0.5645270000000  0.4852950000000  0.4482830000000 1.0
C      1  0.4606490000000  0.5251810000000  0.5612180000000 1.0
C      1  0.5391750000000  0.5247270000000  0.4390450000000 1.0
C      1  0.4607450000000  0.4752690000000  0.5608870000000 1.0
C      1  0.5392140000000  0.4748960000000  0.4388290000000 1.0
C      1  0.5654400000000  0.5146610000000  0.4782540000000 1.0
C      1  0.4350250000000  0.5137750000000  0.5219740000000 1.0
C      1  0.5652610000000  0.4860370000000  0.4780120000000 1.0
C      1  0.4342640000000  0.4851530000000  0.5215670000000 1.0
C      1  0.5050570000000  0.4504470000000  0.5549580000000 1.0
C      1  0.4948940000000  0.4504390000000  0.4450870000000 1.0
C      1  0.5051050000000  0.5492930000000  0.5546820000000 1.0
C      1  0.4949840000000  0.5495090000000  0.4452470000000 1.0
C      1  0.4356860000000  0.4820650000000  0.4697540000000 1.0
C      1  0.5640540000000  0.4820870000000  0.5300360000000 1.0
C      1  0.4360180000000  0.5182740000000  0.4700610000000 1.0
C      1  0.5638840000000  0.5183900000000  0.5300800000000 1.0
C      1  0.4735930000000  0.5647610000000  0.5113350000000 1.0
C      1  0.5266010000000  0.5646380000000  0.4885600000000 1.0
C      1  0.4736750000000  0.4353370000000  0.5114890000000 1.0
C      1  0.5263120000000  0.4352600000000  0.4886170000000 1.0
C      1  0.5272210000000  0.5313900000000  0.4652330000000 1.0
C      1  0.4725910000000  0.5316470000000  0.5347490000000 1.0
C      1  0.5270890000000  0.4684430000000  0.4652270000000 1.0
C      1  0.4729220000000  0.4686530000000  0.5347770000000 1.0
C      1  0.5173700000000  0.4401790000000  0.4625190000000 1.0
C      1  0.4826440000000  0.4402300000000  0.5375340000000 1.0
C      1  0.5174400000000  0.5597750000000  0.4625770000000 1.0
C      1  0.4826970000000  0.5597970000000  0.5373600000000 1.0
C      1  0.5776420000000  0.4859570000000  0.5048420000000 1.0
C      1  0.4221640000000  0.4856670000000  0.4951160000000 1.0
C      1  0.5774580000000  0.5147370000000  0.5047350000000 1.0
C      1  0.4224560000000  0.5144400000000  0.4953040000000 1.0
C      1  0.5334010000000  0.5557410000000  0.5138010000000 1.0
C      1  0.4666950000000  0.5559470000000  0.4860570000000 1.0
C      1  0.5331440000000  0.4437810000000  0.5139720000000 1.0
C      1  0.4668190000000  0.4439180000000  0.4861740000000 1.0
C      1  0.5219110000000  0.4856910000000  0.4882530000000 1.0
C      1  0.4780800000000  0.4858870000000  0.5117020000000 1.0
C      1  0.5219150000000  0.5139910000000  0.4882730000000 1.0
C      1  0.4779610000000  0.5142050000000  0.5117880000000 1.0
END
