TITL C-2441158-471-1157 -0.00508695054471721 125000 -3577.29144840067 0 0 24 (C2v) n - 1
REM
REM in /home/bkarasulu/work/CARBON/AIRSS/Generating-Clusters/ReaxFF-fromJPCA2015/Units_Real/with-SteepDescent/Higher-Symm
REM
REM
REM
REM
REM
REM ./C.cell (1df0a924f5614ab8850e4351716899ee)
REM
REM compiler GCC version 9.2.1 20190827 (Red Hat 9.2.1-1)
REM options -cpp -mtune=generic -march=x86-64 -g -O0 -fpre-include=/usr/include/finclude/math-vector-fortran.h
REM seed 1068592816 755236415 -139132304 -2037565859 -1074598448 812461643 -776664203 844035519 -65391253 -1497384435 -1669135064 -921396672 1490990920 246911543 -1134165816 -1422879428 -1080403278 536093792 124655505 499127200 698750105 -1907703789 2054012656 -1961495770 311251592 -1809782199 -987449860 -1403382034 1949667728 1896607015 1454245832 2125401658 -1412755383
REM
CELL 1.54180   50.00000   50.00000   50.00000   90.00000   90.00000   90.00000
LATT -1
SFAC C  
C      1  0.4860050000000  0.5596500000000  0.4618940000000 1.0
C      1  0.4859770000000  0.4404870000000  0.5381570000000 1.0
C      1  0.4791300000000  0.4400410000000  0.4613060000000 1.0
C      1  0.4793850000000  0.5599680000000  0.5387220000000 1.0
C      1  0.5135440000000  0.5292030000000  0.5291990000000 1.0
C      1  0.5136320000000  0.4701730000000  0.4701740000000 1.0
C      1  0.5055840000000  0.4757610000000  0.5242850000000 1.0
C      1  0.5055600000000  0.5242770000000  0.4757850000000 1.0
C      1  0.4936400000000  0.4885930000000  0.5479450000000 1.0
C      1  0.4938330000000  0.5113800000000  0.4520380000000 1.0
C      1  0.4986410000000  0.5172780000000  0.5511780000000 1.0
C      1  0.4985800000000  0.4826630000000  0.4485390000000 1.0
C      1  0.4986690000000  0.5512060000000  0.5172800000000 1.0
C      1  0.4986090000000  0.4485170000000  0.4826620000000 1.0
C      1  0.4938690000000  0.4520010000000  0.5113810000000 1.0
C      1  0.4936560000000  0.5479610000000  0.4885980000000 1.0
C      1  0.4859820000000  0.5381600000000  0.4404860000000 1.0
C      1  0.4859690000000  0.4618970000000  0.5596200000000 1.0
C      1  0.4791060000000  0.4612990000000  0.4400750000000 1.0
C      1  0.4793600000000  0.5387230000000  0.5599370000000 1.0
C      1  0.5335430000000  0.4854650000000  0.4854650000000 1.0
C      1  0.5329690000000  0.5144480000000  0.5144430000000 1.0
C      1  0.5323680000000  0.5149090000000  0.4859310000000 1.0
C      1  0.5323860000000  0.4859380000000  0.5149000000000 1.0
END
