TITL C-2441167-4473-504 0.0933331975943267 125000 -12255.6174380012 0 0 99 (C1) n - 1
REM
REM in /home/bkarasulu/work/CARBON/AIRSS/Generating-Clusters/ReaxFF-fromJPCA2015/Units_Real/with-SteepDescent/Higher-Symm
REM
REM
REM
REM
REM
REM ./C.cell (1df0a924f5614ab8850e4351716899ee)
REM
REM compiler GCC version 9.2.1 20190827 (Red Hat 9.2.1-1)
REM options -cpp -mtune=generic -march=x86-64 -g -O0 -fpre-include=/usr/include/finclude/math-vector-fortran.h
REM seed -2142971550 -1946131345 1005257535 156084696 1766803477 -379956862 686239897 843803083 -1603237510 -956834353 290310438 -430160093 303934821 1712434288 -1012006839 1518297664 841597180 -1616332893 1370628434 1407419526 842244087 -1358768577 1640997702 -762774793 -126809808 -435872009 -976855421 368640201 -16727302 -567722344 151971563 -1872031611 -555504784
REM
CELL 1.54180   50.00000   50.00000   50.00000   90.00000   90.00000   90.00000
LATT -1
SFAC C  
C      1  0.5399850000000  0.5146060000000  0.4182310000000 1.0
C      1  0.4641550000000  0.4856290000000  0.4195920000000 1.0
C      1  0.5380270000000  0.5167250000000  0.5804640000000 1.0
C      1  0.4644340000000  0.4856890000000  0.5807800000000 1.0
C      1  0.4636460000000  0.5152510000000  0.4187840000000 1.0
C      1  0.5397740000000  0.4854230000000  0.4180890000000 1.0
C      1  0.4625360000000  0.5156100000000  0.5807000000000 1.0
C      1  0.5411640000000  0.4876400000000  0.5822120000000 1.0
C      1  0.5477900000000  0.4557460000000  0.4846220000000 1.0
C      1  0.4547260000000  0.5429100000000  0.4847830000000 1.0
C      1  0.5476580000000  0.4563540000000  0.5143920000000 1.0
C      1  0.4577500000000  0.5409790000000  0.5151210000000 1.0
C      1  0.4576950000000  0.4613040000000  0.4839110000000 1.0
C      1  0.5443840000000  0.5439730000000  0.4853790000000 1.0
C      1  0.4547730000000  0.4585430000000  0.5141580000000 1.0
C      1  0.5466890000000  0.5447630000000  0.5151710000000 1.0
C      1  0.4843420000000  0.4167260000000  0.4711240000000 1.0
C      1  0.5137910000000  0.5824270000000  0.4710270000000 1.0
C      1  0.4845610000000  0.4178370000000  0.5268360000000 1.0
C      1  0.5136850000000  0.5809290000000  0.5288420000000 1.0
C      1  0.5137640000000  0.4189990000000  0.4711550000000 1.0
C      1  0.4846090000000  0.5839910000000  0.4712960000000 1.0
C      1  0.5137790000000  0.4196450000000  0.5273190000000 1.0
C      1  0.4849790000000  0.5824430000000  0.5287440000000 1.0
C      1  0.5152130000000  0.5296350000000  0.4239650000000 1.0
C      1  0.4883980000000  0.4792700000000  0.4356690000000 1.0
C      1  0.5142710000000  0.5190810000000  0.5624660000000 1.0
C      1  0.4893810000000  0.4793640000000  0.5659020000000 1.0
C      1  0.4886010000000  0.5216290000000  0.4333760000000 1.0
C      1  0.5144560000000  0.4709530000000  0.4239580000000 1.0
C      1  0.4861440000000  0.5227990000000  0.5649440000000 1.0
C      1  0.5170550000000  0.4721680000000  0.5765520000000 1.0
C      1  0.4170920000000  0.5131510000000  0.5272200000000 1.0
C      1  0.5811590000000  0.4838310000000  0.5329030000000 1.0
C      1  0.4162960000000  0.5148820000000  0.4727320000000 1.0
C      1  0.5846080000000  0.4853220000000  0.4715000000000 1.0
C      1  0.5824420000000  0.5131700000000  0.5283870000000 1.0
C      1  0.4166820000000  0.4841110000000  0.5270120000000 1.0
C      1  0.5821290000000  0.5144860000000  0.4706300000000 1.0
C      1  0.4168200000000  0.4858800000000  0.4726550000000 1.0
C      1  0.4854730000000  0.4877440000000  0.5378500000000 1.0
C      1  0.5118740000000  0.5186220000000  0.5332050000000 1.0
C      1  0.4853900000000  0.4857500000000  0.4647550000000 1.0
C      1  0.5131480000000  0.5185950000000  0.4758410000000 1.0
C      1  0.5117850000000  0.4910910000000  0.5263000000000 1.0
C      1  0.4814640000000  0.5186160000000  0.5335040000000 1.0
C      1  0.5123780000000  0.4887960000000  0.4775130000000 1.0
C      1  0.4861350000000  0.5149760000000  0.4615110000000 1.0
C      1  0.4637920000000  0.4314020000000  0.4854810000000 1.0
C      1  0.5374030000000  0.5739250000000  0.4855480000000 1.0
C      1  0.4627090000000  0.4304890000000  0.5135250000000 1.0
C      1  0.5375860000000  0.5729710000000  0.5141590000000 1.0
C      1  0.5377550000000  0.4275960000000  0.4847590000000 1.0
C      1  0.4631320000000  0.5718970000000  0.4857300000000 1.0
C      1  0.5378300000000  0.4279110000000  0.5132690000000 1.0
C      1  0.4635930000000  0.5701550000000  0.5142180000000 1.0
C      1  0.5773490000000  0.4608890000000  0.5152080000000 1.0
C      1  0.4272300000000  0.5380550000000  0.5154500000000 1.0
C      1  0.5771920000000  0.4617260000000  0.4862620000000 1.0
C      1  0.4245990000000  0.5387870000000  0.4867210000000 1.0
C      1  0.4252580000000  0.4604610000000  0.5129060000000 1.0
C      1  0.5761230000000  0.5378360000000  0.5143300000000 1.0
C      1  0.4269090000000  0.4615870000000  0.4845380000000 1.0
C      1  0.5744420000000  0.5383530000000  0.4852600000000 1.0
C      1  0.4834590000000  0.4374200000000  0.5484610000000 1.0
C      1  0.5138990000000  0.5602600000000  0.5479250000000 1.0
C      1  0.4828820000000  0.4357960000000  0.4487030000000 1.0
C      1  0.5102440000000  0.5558050000000  0.4601900000000 1.0
C      1  0.5123990000000  0.4417400000000  0.5446900000000 1.0
C      1  0.4827140000000  0.5645710000000  0.5507740000000 1.0
C      1  0.5094240000000  0.4465040000000  0.4617650000000 1.0
C      1  0.4829050000000  0.5651710000000  0.4491060000000 1.0
C      1  0.4424420000000  0.5297050000000  0.5640360000000 1.0
C      1  0.5548360000000  0.4713800000000  0.5611400000000 1.0
C      1  0.4430070000000  0.5307740000000  0.4334780000000 1.0
C      1  0.5524080000000  0.4690120000000  0.4377130000000 1.0
C      1  0.5568770000000  0.5313400000000  0.5632240000000 1.0
C      1  0.4433840000000  0.4698500000000  0.5672380000000 1.0
C      1  0.5538000000000  0.5311070000000  0.4381170000000 1.0
C      1  0.4431230000000  0.4704610000000  0.4338510000000 1.0
C      1  0.5293340000000  0.4529290000000  0.4412570000000 1.0
C      1  0.4604920000000  0.5516310000000  0.4397360000000 1.0
C      1  0.5321930000000  0.4524140000000  0.5622540000000 1.0
C      1  0.4587900000000  0.5522740000000  0.5592530000000 1.0
C      1  0.4600160000000  0.4488670000000  0.4398220000000 1.0
C      1  0.5298720000000  0.5473090000000  0.4411000000000 1.0
C      1  0.4607450000000  0.4494550000000  0.5596030000000 1.0
C      1  0.5385300000000  0.5520530000000  0.5587810000000 1.0
C      1  0.4424310000000  0.4877770000000  0.4588000000000 1.0
C      1  0.5567290000000  0.5116490000000  0.4580660000000 1.0
C      1  0.4431720000000  0.4836430000000  0.5397420000000 1.0
C      1  0.5547220000000  0.5137970000000  0.5381370000000 1.0
C      1  0.5575920000000  0.4842490000000  0.4594630000000 1.0
C      1  0.4418380000000  0.5152940000000  0.4594270000000 1.0
C      1  0.5536280000000  0.4862210000000  0.5383860000000 1.0
C      1  0.4424810000000  0.5110800000000  0.5403910000000 1.0
C      1  0.5044000000000  0.5407560000000  0.4916920000000 1.0
C      1  0.5025040000000  0.4536080000000  0.4947190000000 1.0
C      1  0.5096640000000  0.4796090000000  0.5013270000000 1.0
END
