TITL C-2441157-2117-1344 0.0382047446256267 125000 -12182.7265421752 0 0 87 (C1) n - 1
REM
REM in /home/bkarasulu/work/CARBON/AIRSS/Generating-Clusters/ReaxFF-fromJPCA2015/Units_Real/with-SteepDescent/Higher-Symm
REM
REM
REM
REM
REM
REM ./C.cell (1df0a924f5614ab8850e4351716899ee)
REM
REM compiler GCC version 9.2.1 20190827 (Red Hat 9.2.1-1)
REM options -cpp -mtune=generic -march=x86-64 -g -O0 -fpre-include=/usr/include/finclude/math-vector-fortran.h
REM seed -1804156420 1082878806 -1578218698 160809425 1077393694 -216323277 -455832364 -69660229 194385936 -439021916 -1609149196 842726969 -1379082479 -1899228741 350116656 615875805 -1166152244 -1339950325 672294366 -732587486 -1028228769 -1503984845 890646219 -7185729 369850641 839133712 162969014 -2008580885 -380924579 -66156824 -2038370242 -353428456 1093830308
REM
CELL 1.54180   50.00000   50.00000   50.00000   90.00000   90.00000   90.00000
LATT -1
SFAC C  
C      1  0.5353520000000  0.4634280000000  0.5608310000000 1.0
C      1  0.4504490000000  0.4876760000000  0.5610470000000 1.0
C      1  0.5141180000000  0.5492570000000  0.5609990000000 1.0
C      1  0.5349280000000  0.4634990000000  0.4405000000000 1.0
C      1  0.4509300000000  0.4881740000000  0.4403040000000 1.0
C      1  0.5138790000000  0.5495600000000  0.4402990000000 1.0
C      1  0.4645450000000  0.4632660000000  0.5611810000000 1.0
C      1  0.5495960000000  0.4876270000000  0.5611000000000 1.0
C      1  0.4860710000000  0.5487580000000  0.5613140000000 1.0
C      1  0.4696510000000  0.4672270000000  0.4472510000000 1.0
C      1  0.5487730000000  0.4878550000000  0.4412290000000 1.0
C      1  0.4853680000000  0.5500180000000  0.4390960000000 1.0
C      1  0.4738730000000  0.5072560000000  0.4779480000000 1.0
C      1  0.5187640000000  0.5218120000000  0.4775970000000 1.0
C      1  0.5092880000000  0.4737190000000  0.4772990000000 1.0
C      1  0.4719550000000  0.4980900000000  0.5255410000000 1.0
C      1  0.5127410000000  0.5242590000000  0.5230180000000 1.0
C      1  0.5148770000000  0.4759650000000  0.5242910000000 1.0
C      1  0.5268640000000  0.4956540000000  0.4784600000000 1.0
C      1  0.4915720000000  0.5292040000000  0.4771830000000 1.0
C      1  0.4821620000000  0.4805080000000  0.4719640000000 1.0
C      1  0.5276110000000  0.5010210000000  0.5239990000000 1.0
C      1  0.4845360000000  0.5234880000000  0.5232520000000 1.0
C      1  0.4866800000000  0.4741860000000  0.5235740000000 1.0
C      1  0.4854470000000  0.5251360000000  0.5781380000000 1.0
C      1  0.5293320000000  0.5001400000000  0.5780480000000 1.0
C      1  0.4854210000000  0.4745960000000  0.5780620000000 1.0
C      1  0.4851240000000  0.5252980000000  0.4231590000000 1.0
C      1  0.5294080000000  0.5004710000000  0.4234540000000 1.0
C      1  0.4858790000000  0.4753530000000  0.4232190000000 1.0
C      1  0.5150160000000  0.5253780000000  0.5783130000000 1.0
C      1  0.4707950000000  0.5000980000000  0.5781290000000 1.0
C      1  0.5144470000000  0.4746750000000  0.5779170000000 1.0
C      1  0.5146270000000  0.5255260000000  0.4237410000000 1.0
C      1  0.4708610000000  0.4997120000000  0.4236530000000 1.0
C      1  0.5146100000000  0.4749770000000  0.4228050000000 1.0
C      1  0.5572170000000  0.5509850000000  0.4640300000000 1.0
C      1  0.5147470000000  0.4249840000000  0.4639640000000 1.0
C      1  0.4270600000000  0.5244780000000  0.4638140000000 1.0
C      1  0.5571730000000  0.5508510000000  0.5377020000000 1.0
C      1  0.5152510000000  0.4248370000000  0.5377140000000 1.0
C      1  0.4266410000000  0.5243900000000  0.5379930000000 1.0
C      1  0.4419340000000  0.5512090000000  0.4632060000000 1.0
C      1  0.4844740000000  0.4251860000000  0.4650230000000 1.0
C      1  0.5724460000000  0.5246540000000  0.4640730000000 1.0
C      1  0.4421400000000  0.5507030000000  0.5378170000000 1.0
C      1  0.4846180000000  0.4246470000000  0.5384910000000 1.0
C      1  0.5728600000000  0.5242260000000  0.5378310000000 1.0
C      1  0.5667300000000  0.4955900000000  0.5397590000000 1.0
C      1  0.4630270000000  0.4444840000000  0.5399350000000 1.0
C      1  0.4705490000000  0.5592670000000  0.5400880000000 1.0
C      1  0.5655840000000  0.4959870000000  0.4626540000000 1.0
C      1  0.4631750000000  0.4438300000000  0.4634300000000 1.0
C      1  0.4691960000000  0.5608930000000  0.4597810000000 1.0
C      1  0.4332520000000  0.4956460000000  0.5394350000000 1.0
C      1  0.5369990000000  0.4445740000000  0.5394400000000 1.0
C      1  0.5294230000000  0.5597090000000  0.5392870000000 1.0
C      1  0.4345480000000  0.4962250000000  0.4620420000000 1.0
C      1  0.5363180000000  0.4450570000000  0.4621810000000 1.0
C      1  0.5292350000000  0.5596450000000  0.4623450000000 1.0
C      1  0.5675030000000  0.4776900000000  0.5157400000000 1.0
C      1  0.4473320000000  0.4526700000000  0.5158990000000 1.0
C      1  0.4856680000000  0.5678780000000  0.5165360000000 1.0
C      1  0.5644540000000  0.4787590000000  0.4859000000000 1.0
C      1  0.4492080000000  0.4537340000000  0.4860180000000 1.0
C      1  0.4863060000000  0.5575600000000  0.4839710000000 1.0
C      1  0.4328830000000  0.4776840000000  0.5156120000000 1.0
C      1  0.5530590000000  0.4525740000000  0.5155080000000 1.0
C      1  0.5134870000000  0.5693690000000  0.5150350000000 1.0
C      1  0.4345940000000  0.4784200000000  0.4856610000000 1.0
C      1  0.5507430000000  0.4542630000000  0.4857230000000 1.0
C      1  0.5134610000000  0.5676990000000  0.4856070000000 1.0
C      1  0.4395920000000  0.5632910000000  0.5134540000000 1.0
C      1  0.5855820000000  0.5210190000000  0.5135990000000 1.0
C      1  0.4756560000000  0.4151470000000  0.5142410000000 1.0
C      1  0.4396690000000  0.5637470000000  0.4877920000000 1.0
C      1  0.5853480000000  0.5209680000000  0.4881650000000 1.0
C      1  0.4752420000000  0.4148540000000  0.4888500000000 1.0
C      1  0.5611560000000  0.5636360000000  0.5135350000000 1.0
C      1  0.4142450000000  0.5211890000000  0.5135430000000 1.0
C      1  0.5243040000000  0.4155230000000  0.5133750000000 1.0
C      1  0.5607860000000  0.5636990000000  0.4881600000000 1.0
C      1  0.4147910000000  0.5210860000000  0.4882140000000 1.0
C      1  0.5245170000000  0.4155860000000  0.4879720000000 1.0
C      1  0.5337580000000  0.5197100000000  0.5025210000000 1.0
C      1  0.4643930000000  0.5153920000000  0.5039610000000 1.0
C      1  0.5021140000000  0.4619290000000  0.5026680000000 1.0
END
