TITL C-2441157-2117-1373 0.0207546416602149 125000 -7478.89050244231 0 0 54 (C1) n - 1
REM
REM in /home/bkarasulu/work/CARBON/AIRSS/Generating-Clusters/ReaxFF-fromJPCA2015/Units_Real/with-SteepDescent/Higher-Symm
REM
REM
REM
REM
REM
REM ./C.cell (1df0a924f5614ab8850e4351716899ee)
REM
REM compiler GCC version 9.2.1 20190827 (Red Hat 9.2.1-1)
REM options -cpp -mtune=generic -march=x86-64 -g -O0 -fpre-include=/usr/include/finclude/math-vector-fortran.h
REM seed -921635432 -865378207 -477912888 -2077570514 576217048 -1992614373 -585066992 -842548803 2140755221 1915121870 1028876620 945241303 -668959857 992827430 887517360 284035251 -117222201 -885168373 1416031490 -1471747287 -284631488 1756856153 1657652072 1506443450 501813051 1394628817 47409119 -201943580 367572404 -363548099 1129163330 923627796 1799212323
REM
CELL 1.54180   50.00000   50.00000   50.00000   90.00000   90.00000   90.00000
LATT -1
SFAC C  
C      1  0.5079870000000  0.5552390000000  0.5389070000000 1.0
C      1  0.4919850000000  0.4450370000000  0.5385920000000 1.0
C      1  0.4919210000000  0.5552700000000  0.4640010000000 1.0
C      1  0.5078720000000  0.4447290000000  0.4641030000000 1.0
C      1  0.5553000000000  0.5080010000000  0.5389100000000 1.0
C      1  0.4447520000000  0.4921940000000  0.5388350000000 1.0
C      1  0.5552230000000  0.4920010000000  0.4640920000000 1.0
C      1  0.4448330000000  0.5081430000000  0.4641780000000 1.0
C      1  0.5280600000000  0.4322920000000  0.4976370000000 1.0
C      1  0.4721940000000  0.5676000000000  0.4975310000000 1.0
C      1  0.4721070000000  0.4315220000000  0.5052300000000 1.0
C      1  0.5278100000000  0.5678120000000  0.5053040000000 1.0
C      1  0.4320090000000  0.5280940000000  0.4976420000000 1.0
C      1  0.5679500000000  0.4720520000000  0.4975500000000 1.0
C      1  0.4323590000000  0.4723810000000  0.5055050000000 1.0
C      1  0.5676320000000  0.5277630000000  0.5054580000000 1.0
C      1  0.4640690000000  0.4419610000000  0.5302180000000 1.0
C      1  0.5359850000000  0.5581840000000  0.5305580000000 1.0
C      1  0.5359480000000  0.4419070000000  0.4723040000000 1.0
C      1  0.4637740000000  0.5583470000000  0.4722970000000 1.0
C      1  0.4417700000000  0.4639750000000  0.5305750000000 1.0
C      1  0.5582360000000  0.5361670000000  0.5306200000000 1.0
C      1  0.4417230000000  0.5361460000000  0.4723590000000 1.0
C      1  0.5581490000000  0.4639760000000  0.4723170000000 1.0
C      1  0.5118410000000  0.4678750000000  0.5098060000000 1.0
C      1  0.4881530000000  0.5317810000000  0.5096400000000 1.0
C      1  0.4878170000000  0.4676600000000  0.4937100000000 1.0
C      1  0.5119700000000  0.5318830000000  0.4934210000000 1.0
C      1  0.4679320000000  0.5119010000000  0.5091490000000 1.0
C      1  0.5319660000000  0.4879550000000  0.5093640000000 1.0
C      1  0.4680980000000  0.4880340000000  0.4929620000000 1.0
C      1  0.5318750000000  0.5118000000000  0.4932030000000 1.0
C      1  0.5585800000000  0.4826450000000  0.5216790000000 1.0
C      1  0.4414470000000  0.5175590000000  0.5217480000000 1.0
C      1  0.4412130000000  0.4826510000000  0.4812890000000 1.0
C      1  0.5585940000000  0.5174510000000  0.4812230000000 1.0
C      1  0.4825850000000  0.5584480000000  0.5217120000000 1.0
C      1  0.5177190000000  0.4412930000000  0.5219880000000 1.0
C      1  0.4825320000000  0.4411090000000  0.4811240000000 1.0
C      1  0.5172900000000  0.5585480000000  0.4811130000000 1.0
C      1  0.4718740000000  0.4925680000000  0.5494090000000 1.0
C      1  0.5282520000000  0.5076060000000  0.5495900000000 1.0
C      1  0.5281630000000  0.4923910000000  0.4534360000000 1.0
C      1  0.4718360000000  0.5075690000000  0.4533900000000 1.0
C      1  0.4924670000000  0.4719940000000  0.5495900000000 1.0
C      1  0.5076490000000  0.5281760000000  0.5495540000000 1.0
C      1  0.4924540000000  0.5281410000000  0.4535010000000 1.0
C      1  0.5074990000000  0.4718220000000  0.4534210000000 1.0
C      1  0.5155210000000  0.4846620000000  0.5637440000000 1.0
C      1  0.4846860000000  0.5153940000000  0.5636440000000 1.0
C      1  0.5154470000000  0.5154140000000  0.4393800000000 1.0
C      1  0.4847180000000  0.4846940000000  0.4391110000000 1.0
C      1  0.5000490000000  0.5000020000000  0.5846550000000 1.0
C      1  0.5001250000000  0.5001820000000  0.4182350000000 1.0
END
