TITL C-2441164-471-1142 0.0399508932276455 125000 -15932.4808939894 0 0 117 (C1) n - 1
REM
REM in /home/bkarasulu/work/CARBON/AIRSS/Generating-Clusters/ReaxFF-fromJPCA2015/Units_Real/with-SteepDescent/Higher-Symm
REM
REM
REM
REM
REM
REM ./C.cell (1df0a924f5614ab8850e4351716899ee)
REM
REM compiler GCC version 9.2.1 20190827 (Red Hat 9.2.1-1)
REM options -cpp -mtune=generic -march=x86-64 -g -O0 -fpre-include=/usr/include/finclude/math-vector-fortran.h
REM seed 123753938 -2076733439 632433831 1890800818 -1024154085 296863322 -1952361611 1622590708 50965012 1719332024 2038076780 400833455 1796253283 -1189654944 913642330 219378641 113651218 -577962225 2070997109 -641344304 -158934109 1988682036 -754841794 -2050340861 337046715 -826299152 1998544523 -1532717584 785417939 -2121192726 587865044 345365833 -722145895
REM
CELL 1.54180   50.00000   50.00000   50.00000   90.00000   90.00000   90.00000
LATT -1
SFAC C  
C      1  0.5967240000000  0.4954460000000  0.5093350000000 1.0
C      1  0.5018990000000  0.4349420000000  0.4482470000000 1.0
C      1  0.4916250000000  0.4616190000000  0.4410840000000 1.0
C      1  0.5263520000000  0.4883990000000  0.4524490000000 1.0
C      1  0.4317150000000  0.4926780000000  0.5597950000000 1.0
C      1  0.5745940000000  0.5333760000000  0.4721900000000 1.0
C      1  0.5031610000000  0.5097310000000  0.5939280000000 1.0
C      1  0.5004540000000  0.4405690000000  0.5750680000000 1.0
C      1  0.4174520000000  0.4993030000000  0.5374740000000 1.0
C      1  0.4415880000000  0.5139670000000  0.5407620000000 1.0
C      1  0.5656620000000  0.4415530000000  0.4825460000000 1.0
C      1  0.4672250000000  0.4962270000000  0.4273300000000 1.0
C      1  0.5583270000000  0.5114210000000  0.4819680000000 1.0
C      1  0.4817350000000  0.5940220000000  0.5017500000000 1.0
C      1  0.4181380000000  0.4954010000000  0.4609570000000 1.0
C      1  0.5437390000000  0.5146450000000  0.5054380000000 1.0
C      1  0.5810190000000  0.4802730000000  0.5269720000000 1.0
C      1  0.5570290000000  0.5610930000000  0.5030610000000 1.0
C      1  0.5276780000000  0.4203800000000  0.4886310000000 1.0
C      1  0.4386640000000  0.5416250000000  0.5548800000000 1.0
C      1  0.5182580000000  0.4725250000000  0.5274060000000 1.0
C      1  0.5111120000000  0.5158970000000  0.5405500000000 1.0
C      1  0.4569840000000  0.4300010000000  0.4601940000000 1.0
C      1  0.4282960000000  0.4678900000000  0.4602660000000 1.0
C      1  0.4694000000000  0.4684410000000  0.5265760000000 1.0
C      1  0.5597540000000  0.5053230000000  0.4315280000000 1.0
C      1  0.4152020000000  0.5034400000000  0.4891680000000 1.0
C      1  0.5532480000000  0.5086010000000  0.5685990000000 1.0
C      1  0.4980390000000  0.5538650000000  0.5269110000000 1.0
C      1  0.4926010000000  0.4785750000000  0.5394030000000 1.0
C      1  0.4571930000000  0.5575360000000  0.5397560000000 1.0
C      1  0.4844620000000  0.4323110000000  0.5516940000000 1.0
C      1  0.4591970000000  0.4690070000000  0.4183940000000 1.0
C      1  0.5109890000000  0.5751670000000  0.5417850000000 1.0
C      1  0.4912140000000  0.5106080000000  0.4632090000000 1.0
C      1  0.4466280000000  0.4563890000000  0.4419030000000 1.0
C      1  0.5654710000000  0.4313450000000  0.5093990000000 1.0
C      1  0.5640010000000  0.4782150000000  0.4363560000000 1.0
C      1  0.5329420000000  0.4209210000000  0.5346550000000 1.0
C      1  0.4814300000000  0.5471990000000  0.5467190000000 1.0
C      1  0.5935670000000  0.4868410000000  0.4810280000000 1.0
C      1  0.4618500000000  0.5088060000000  0.5140580000000 1.0
C      1  0.5796940000000  0.5414660000000  0.4998420000000 1.0
C      1  0.4883530000000  0.5046750000000  0.5503500000000 1.0
C      1  0.4554920000000  0.4246190000000  0.5131720000000 1.0
C      1  0.5318810000000  0.4746190000000  0.5785880000000 1.0
C      1  0.5216110000000  0.5349700000000  0.5604740000000 1.0
C      1  0.4936250000000  0.4834590000000  0.5999330000000 1.0
C      1  0.5482770000000  0.4651910000000  0.4880350000000 1.0
C      1  0.4798120000000  0.4860480000000  0.4522530000000 1.0
C      1  0.4387550000000  0.4418610000000  0.5295060000000 1.0
C      1  0.5835530000000  0.5207320000000  0.5205590000000 1.0
C      1  0.4242940000000  0.5451670000000  0.5165330000000 1.0
C      1  0.4557460000000  0.5820780000000  0.4974400000000 1.0
C      1  0.5403740000000  0.4592360000000  0.4273030000000 1.0
C      1  0.4967830000000  0.5624560000000  0.4397780000000 1.0
C      1  0.5618680000000  0.5524720000000  0.5521690000000 1.0
C      1  0.4811850000000  0.4571980000000  0.5022930000000 1.0
C      1  0.4300820000000  0.5212540000000  0.4476380000000 1.0
C      1  0.5112240000000  0.4627770000000  0.5894020000000 1.0
C      1  0.5582150000000  0.4704850000000  0.5154530000000 1.0
C      1  0.5280270000000  0.5906900000000  0.5081910000000 1.0
C      1  0.5358680000000  0.5418960000000  0.5091800000000 1.0
C      1  0.5693230000000  0.5242940000000  0.5482330000000 1.0
C      1  0.4495580000000  0.4733540000000  0.5704740000000 1.0
C      1  0.4769000000000  0.5138730000000  0.5776840000000 1.0
C      1  0.5170970000000  0.4694610000000  0.4105040000000 1.0
C      1  0.5201360000000  0.4727580000000  0.4758270000000 1.0
C      1  0.5610300000000  0.4235410000000  0.5326400000000 1.0
C      1  0.5509650000000  0.5306450000000  0.4244540000000 1.0
C      1  0.4478070000000  0.5005770000000  0.4906100000000 1.0
C      1  0.4879120000000  0.5078700000000  0.5026670000000 1.0
C      1  0.5175720000000  0.5126050000000  0.4634220000000 1.0
C      1  0.4521390000000  0.5171000000000  0.4677310000000 1.0
C      1  0.4185490000000  0.5377360000000  0.4901670000000 1.0
C      1  0.4669670000000  0.4873710000000  0.5891990000000 1.0
C      1  0.4887610000000  0.4609450000000  0.4125340000000 1.0
C      1  0.4807110000000  0.4141830000000  0.4532610000000 1.0
C      1  0.5292470000000  0.5187170000000  0.5831370000000 1.0
C      1  0.4842590000000  0.4340950000000  0.4707650000000 1.0
C      1  0.4750710000000  0.5335210000000  0.4678830000000 1.0
C      1  0.4714370000000  0.5248450000000  0.4198410000000 1.0
C      1  0.5812840000000  0.4701740000000  0.4601490000000 1.0
C      1  0.5093280000000  0.5752090000000  0.4649580000000 1.0
C      1  0.4869130000000  0.5914110000000  0.4734700000000 1.0
C      1  0.5457070000000  0.4249850000000  0.4671270000000 1.0
C      1  0.4683990000000  0.5582480000000  0.4488150000000 1.0
C      1  0.5134000000000  0.4177530000000  0.5111140000000 1.0
C      1  0.4958330000000  0.4801840000000  0.4902670000000 1.0
C      1  0.4211900000000  0.4589690000000  0.5124680000000 1.0
C      1  0.5647740000000  0.4858310000000  0.4756960000000 1.0
C      1  0.4575380000000  0.4535970000000  0.5489320000000 1.0
C      1  0.5382840000000  0.5766090000000  0.4866550000000 1.0
C      1  0.4850530000000  0.4301910000000  0.5175160000000 1.0
C      1  0.5236080000000  0.4998210000000  0.5197180000000 1.0
C      1  0.5286270000000  0.5378300000000  0.4628510000000 1.0
C      1  0.5553100000000  0.5426510000000  0.4514780000000 1.0
C      1  0.5073190000000  0.5502250000000  0.4772870000000 1.0
C      1  0.4565110000000  0.5395050000000  0.5780640000000 1.0
C      1  0.5055340000000  0.5381570000000  0.5039310000000 1.0
C      1  0.5447860000000  0.4675950000000  0.5384960000000 1.0
C      1  0.5335250000000  0.4371810000000  0.4437460000000 1.0
C      1  0.4601920000000  0.5799560000000  0.4690530000000 1.0
C      1  0.4988220000000  0.5396250000000  0.4229750000000 1.0
C      1  0.4303950000000  0.5507790000000  0.4672520000000 1.0
C      1  0.4804810000000  0.5562950000000  0.5764860000000 1.0
C      1  0.5190890000000  0.4949970000000  0.4241930000000 1.0
C      1  0.5229340000000  0.5235920000000  0.4168280000000 1.0
C      1  0.4428600000000  0.4281050000000  0.4876910000000 1.0
C      1  0.4252530000000  0.4501180000000  0.4856150000000 1.0
C      1  0.4497270000000  0.5382960000000  0.4322230000000 1.0
C      1  0.4476980000000  0.5598060000000  0.5130890000000 1.0
C      1  0.5332980000000  0.5614050000000  0.5560880000000 1.0
C      1  0.5132320000000  0.4314140000000  0.5538730000000 1.0
C      1  0.4122420000000  0.4861500000000  0.5138420000000 1.0
C      1  0.5039660000000  0.5959250000000  0.5216270000000 1.0
C      1  0.5501160000000  0.4810030000000  0.5638820000000 1.0
END
