TITL C-2441163-1170-534 0.0463358823449394 125000 -16301.717212279 0 0 116 (C1) n - 1
REM
REM in /home/bkarasulu/work/CARBON/AIRSS/Generating-Clusters/ReaxFF-fromJPCA2015/Units_Real/with-SteepDescent/Higher-Symm
REM
REM
REM
REM
REM
REM ./C.cell (1df0a924f5614ab8850e4351716899ee)
REM
REM compiler GCC version 9.2.1 20190827 (Red Hat 9.2.1-1)
REM options -cpp -mtune=generic -march=x86-64 -g -O0 -fpre-include=/usr/include/finclude/math-vector-fortran.h
REM seed -755644631 1428104501 -617582598 -1705410231 2003312786 -409523510 -161057675 1054352141 -278003443 -767738975 280390076 1753191182 1205701282 -1126060360 1426061833 1522456214 1174528609 -56399139 -1452552436 1593342933 -451565875 -950464516 1344874455 -589652030 -212872151 -1853454335 -201860996 1584407280 -439095830 1523882430 -923232192 -215191222 1090313299
REM
CELL 1.54180   50.00000   50.00000   50.00000   90.00000   90.00000   90.00000
LATT -1
SFAC C  
C      1  0.4728350000000  0.4557820000000  0.5765950000000 1.0
C      1  0.5346130000000  0.4602970000000  0.5755600000000 1.0
C      1  0.5467030000000  0.5185370000000  0.5764010000000 1.0
C      1  0.4956520000000  0.5494740000000  0.5750670000000 1.0
C      1  0.4500220000000  0.5114530000000  0.5745320000000 1.0
C      1  0.5271170000000  0.4552120000000  0.4230920000000 1.0
C      1  0.4660980000000  0.4616140000000  0.4235480000000 1.0
C      1  0.4530240000000  0.5184890000000  0.4242310000000 1.0
C      1  0.5043550000000  0.5499640000000  0.4219200000000 1.0
C      1  0.5506880000000  0.5116100000000  0.4231160000000 1.0
C      1  0.5961490000000  0.5168990000000  0.5005030000000 1.0
C      1  0.5179560000000  0.5845880000000  0.5014580000000 1.0
C      1  0.4135830000000  0.5572110000000  0.4982090000000 1.0
C      1  0.4232030000000  0.4331930000000  0.4976460000000 1.0
C      1  0.5388290000000  0.4152510000000  0.4998190000000 1.0
C      1  0.4068650000000  0.5162020000000  0.4993900000000 1.0
C      1  0.4773060000000  0.5884220000000  0.5012380000000 1.0
C      1  0.5842370000000  0.5572520000000  0.5002810000000 1.0
C      1  0.5773490000000  0.4305420000000  0.5001960000000 1.0
C      1  0.4610720000000  0.4161650000000  0.4983120000000 1.0
C      1  0.5663190000000  0.4745490000000  0.4799270000000 1.0
C      1  0.5419390000000  0.5603570000000  0.4772000000000 1.0
C      1  0.4547080000000  0.5610020000000  0.4760580000000 1.0
C      1  0.4302550000000  0.4802630000000  0.4801410000000 1.0
C      1  0.4979050000000  0.4257870000000  0.4787680000000 1.0
C      1  0.4327880000000  0.4748490000000  0.5211730000000 1.0
C      1  0.4594340000000  0.5565800000000  0.5171860000000 1.0
C      1  0.5447370000000  0.5591610000000  0.5218000000000 1.0
C      1  0.5741540000000  0.4744180000000  0.5208060000000 1.0
C      1  0.5026430000000  0.4273960000000  0.5196030000000 1.0
C      1  0.5415870000000  0.5318020000000  0.4801600000000 1.0
C      1  0.4822290000000  0.5530450000000  0.4799270000000 1.0
C      1  0.4339630000000  0.5077280000000  0.4897800000000 1.0
C      1  0.4748720000000  0.4411760000000  0.4893610000000 1.0
C      1  0.5381540000000  0.4643270000000  0.4825740000000 1.0
C      1  0.4549100000000  0.5267310000000  0.5129240000000 1.0
C      1  0.5165230000000  0.5567390000000  0.5179000000000 1.0
C      1  0.5753700000000  0.5016890000000  0.5150800000000 1.0
C      1  0.5263680000000  0.4412970000000  0.5084970000000 1.0
C      1  0.4600150000000  0.4653530000000  0.5142840000000 1.0
C      1  0.5203610000000  0.4800960000000  0.4652300000000 1.0
C      1  0.5182190000000  0.5169610000000  0.4793550000000 1.0
C      1  0.4901130000000  0.5258010000000  0.4754160000000 1.0
C      1  0.4769150000000  0.5014210000000  0.4666870000000 1.0
C      1  0.4958500000000  0.4837210000000  0.4804290000000 1.0
C      1  0.4801670000000  0.4848760000000  0.5234650000000 1.0
C      1  0.4803520000000  0.5141060000000  0.5199180000000 1.0
C      1  0.5056160000000  0.5248110000000  0.5296310000000 1.0
C      1  0.5207230000000  0.4980150000000  0.5259140000000 1.0
C      1  0.5043490000000  0.4759870000000  0.5358310000000 1.0
C      1  0.4852740000000  0.4402870000000  0.5388570000000 1.0
C      1  0.5492830000000  0.4697160000000  0.5349060000000 1.0
C      1  0.5549710000000  0.5414460000000  0.5413830000000 1.0
C      1  0.4745160000000  0.5656240000000  0.5403910000000 1.0
C      1  0.4280610000000  0.4961690000000  0.5397310000000 1.0
C      1  0.5174080000000  0.4325390000000  0.4582790000000 1.0
C      1  0.4516500000000  0.4719250000000  0.4626650000000 1.0
C      1  0.4432800000000  0.5442330000000  0.4562540000000 1.0
C      1  0.5250820000000  0.5691620000000  0.4557240000000 1.0
C      1  0.5709020000000  0.4954300000000  0.4604130000000 1.0
C      1  0.5660490000000  0.5015470000000  0.5637370000000 1.0
C      1  0.5190760000000  0.5623400000000  0.5664520000000 1.0
C      1  0.4457850000000  0.5368690000000  0.5626620000000 1.0
C      1  0.4481990000000  0.4598310000000  0.5630980000000 1.0
C      1  0.5227280000000  0.4379870000000  0.5633010000000 1.0
C      1  0.4332590000000  0.5025230000000  0.4361240000000 1.0
C      1  0.4809160000000  0.5621000000000  0.4323980000000 1.0
C      1  0.5536190000000  0.5369140000000  0.4352500000000 1.0
C      1  0.5523550000000  0.4589530000000  0.4348930000000 1.0
C      1  0.4773370000000  0.4391060000000  0.4369170000000 1.0
C      1  0.5037360000000  0.5706870000000  0.5406470000000 1.0
C      1  0.4329960000000  0.5256230000000  0.5368600000000 1.0
C      1  0.4554660000000  0.4443330000000  0.5369700000000 1.0
C      1  0.5403540000000  0.4409710000000  0.5354560000000 1.0
C      1  0.5716810000000  0.5177260000000  0.5384890000000 1.0
C      1  0.4955900000000  0.5707370000000  0.4580510000000 1.0
C      1  0.5648140000000  0.5263410000000  0.4629880000000 1.0
C      1  0.5455630000000  0.4416120000000  0.4603320000000 1.0
C      1  0.4605760000000  0.4419730000000  0.4630310000000 1.0
C      1  0.4279070000000  0.5207270000000  0.4626970000000 1.0
C      1  0.5018350000000  0.5222250000000  0.4233590000000 1.0
C      1  0.4787860000000  0.5065510000000  0.4331800000000 1.0
C      1  0.4863020000000  0.4810650000000  0.4239340000000 1.0
C      1  0.5139990000000  0.4795780000000  0.4312980000000 1.0
C      1  0.5231260000000  0.5056570000000  0.4213500000000 1.0
C      1  0.4995510000000  0.5232710000000  0.5637380000000 1.0
C      1  0.5211620000000  0.5078860000000  0.5732960000000 1.0
C      1  0.5130260000000  0.4810880000000  0.5676270000000 1.0
C      1  0.4862850000000  0.4806550000000  0.5787120000000 1.0
C      1  0.4776180000000  0.5062140000000  0.5742760000000 1.0
C      1  0.5589900000000  0.4202240000000  0.5209860000000 1.0
C      1  0.5936910000000  0.5378960000000  0.5203650000000 1.0
C      1  0.4986120000000  0.5952360000000  0.5208050000000 1.0
C      1  0.4097470000000  0.5372990000000  0.5193660000000 1.0
C      1  0.4409490000000  0.4234650000000  0.5185790000000 1.0
C      1  0.4406210000000  0.4212640000000  0.4777590000000 1.0
C      1  0.4059390000000  0.5362730000000  0.4785140000000 1.0
C      1  0.4971740000000  0.5928170000000  0.4805490000000 1.0
C      1  0.5889650000000  0.5368030000000  0.4799650000000 1.0
C      1  0.5592290000000  0.4213960000000  0.4794680000000 1.0
C      1  0.5626810000000  0.4863670000000  0.4350540000000 1.0
C      1  0.5317750000000  0.5553500000000  0.4323780000000 1.0
C      1  0.4566350000000  0.5463150000000  0.4318020000000 1.0
C      1  0.4417390000000  0.4752210000000  0.4353430000000 1.0
C      1  0.5063110000000  0.4372500000000  0.4337450000000 1.0
C      1  0.4373450000000  0.4865520000000  0.5639800000000 1.0
C      1  0.4682740000000  0.5551590000000  0.5655270000000 1.0
C      1  0.5429530000000  0.5461280000000  0.5660330000000 1.0
C      1  0.5572040000000  0.4740720000000  0.5627460000000 1.0
C      1  0.4937930000000  0.4367200000000  0.5660770000000 1.0
C      1  0.4403140000000  0.5709710000000  0.4994300000000 1.0
C      1  0.5576230000000  0.5718840000000  0.4993100000000 1.0
C      1  0.4178200000000  0.4625320000000  0.4993070000000 1.0
C      1  0.4997800000000  0.4072450000000  0.5001590000000 1.0
C      1  0.5836600000000  0.4592110000000  0.4981620000000 1.0
C      1  0.5120910000000  0.4989510000000  0.4986570000000 1.0
END
