TITL C-2441163-1170-143 0.0340902813946098 125000 -20328.6319115301 0 0 140 (C1) n - 1
REM
REM in /home/bkarasulu/work/CARBON/AIRSS/Generating-Clusters/ReaxFF-fromJPCA2015/Units_Real/with-SteepDescent/Higher-Symm
REM
REM
REM
REM
REM
REM ./C.cell (1df0a924f5614ab8850e4351716899ee)
REM
REM compiler GCC version 9.2.1 20190827 (Red Hat 9.2.1-1)
REM options -cpp -mtune=generic -march=x86-64 -g -O0 -fpre-include=/usr/include/finclude/math-vector-fortran.h
REM seed -1389790129 286772858 -2048841945 -1659261459 1997121580 -1324330641 669550894 1344831622 -195448084 1996164187 -584661354 -246382931 -1725449598 -513566312 806707517 670926348 1527118803 -331108163 -550060599 1060662997 -1841524854 1309995577 -337115086 2115041939 508702618 868900189 -591198969 1124260478 181168650 -1620406758 -730938308 -1830311066 934491717
REM
CELL 1.54180   50.00000   50.00000   50.00000   90.00000   90.00000   90.00000
LATT -1
SFAC C  
C      1  0.5606090000000  0.5597960000000  0.5302260000000 1.0
C      1  0.5675280000000  0.4622620000000  0.5270310000000 1.0
C      1  0.4825740000000  0.4223790000000  0.5272100000000 1.0
C      1  0.4183900000000  0.4862170000000  0.5290900000000 1.0
C      1  0.4679160000000  0.5689540000000  0.5303250000000 1.0
C      1  0.5854390000000  0.4782430000000  0.5107920000000 1.0
C      1  0.5050730000000  0.4048270000000  0.5107200000000 1.0
C      1  0.4153700000000  0.4652980000000  0.5087300000000 1.0
C      1  0.4458800000000  0.5711220000000  0.5134420000000 1.0
C      1  0.5497400000000  0.5795380000000  0.5104150000000 1.0
C      1  0.5012930000000  0.4803160000000  0.5549170000000 1.0
C      1  0.4752030000000  0.4898500000000  0.5545040000000 1.0
C      1  0.4792110000000  0.5162400000000  0.5435620000000 1.0
C      1  0.5036440000000  0.5274500000000  0.5583440000000 1.0
C      1  0.5203350000000  0.5017210000000  0.5510720000000 1.0
C      1  0.5315030000000  0.4467090000000  0.5711580000000 1.0
C      1  0.4575250000000  0.4507810000000  0.5759200000000 1.0
C      1  0.4311760000000  0.5206950000000  0.5710980000000 1.0
C      1  0.5021950000000  0.5737990000000  0.5704820000000 1.0
C      1  0.5620730000000  0.5121210000000  0.5743430000000 1.0
C      1  0.4303660000000  0.5431950000000  0.4427120000000 1.0
C      1  0.5176210000000  0.5772440000000  0.4426970000000 1.0
C      1  0.5804480000000  0.5081850000000  0.4434300000000 1.0
C      1  0.5300950000000  0.4246710000000  0.4454460000000 1.0
C      1  0.4358240000000  0.4501530000000  0.4461990000000 1.0
C      1  0.5839810000000  0.5038460000000  0.4704010000000 1.0
C      1  0.5195240000000  0.4277640000000  0.4734460000000 1.0
C      1  0.4426040000000  0.4612050000000  0.4727090000000 1.0
C      1  0.4293330000000  0.5469130000000  0.4710510000000 1.0
C      1  0.5195570000000  0.5804090000000  0.4700120000000 1.0
C      1  0.5347570000000  0.5065860000000  0.4660760000000 1.0
C      1  0.5271230000000  0.4836490000000  0.4790890000000 1.0
C      1  0.4851510000000  0.4726760000000  0.4745870000000 1.0
C      1  0.4697010000000  0.5115310000000  0.4715700000000 1.0
C      1  0.5045970000000  0.5349310000000  0.4748350000000 1.0
C      1  0.5808810000000  0.5037150000000  0.5180350000000 1.0
C      1  0.5310000000000  0.4067100000000  0.5146610000000 1.0
C      1  0.4372390000000  0.4463440000000  0.5160340000000 1.0
C      1  0.4342920000000  0.5447780000000  0.5180260000000 1.0
C      1  0.5210320000000  0.5794720000000  0.5168080000000 1.0
C      1  0.4593180000000  0.4093120000000  0.4915080000000 1.0
C      1  0.4017030000000  0.5096980000000  0.4949150000000 1.0
C      1  0.4777200000000  0.5951080000000  0.4927850000000 1.0
C      1  0.5843410000000  0.5506470000000  0.4943310000000 1.0
C      1  0.5729130000000  0.4346670000000  0.4905670000000 1.0
C      1  0.4802490000000  0.5095480000000  0.4446380000000 1.0
C      1  0.5052460000000  0.5230030000000  0.4457880000000 1.0
C      1  0.5250870000000  0.5023040000000  0.4412340000000 1.0
C      1  0.5131260000000  0.4756580000000  0.4421270000000 1.0
C      1  0.4847730000000  0.4805510000000  0.4455160000000 1.0
C      1  0.5843940000000  0.4520150000000  0.4707720000000 1.0
C      1  0.4787910000000  0.4045660000000  0.4710560000000 1.0
C      1  0.4030200000000  0.4889830000000  0.4756180000000 1.0
C      1  0.4604810000000  0.5859920000000  0.4715430000000 1.0
C      1  0.5700590000000  0.5662780000000  0.4753870000000 1.0
C      1  0.4869890000000  0.4879390000000  0.4985150000000 1.0
C      1  0.4762300000000  0.5136600000000  0.5130900000000 1.0
C      1  0.5063200000000  0.5296630000000  0.5045540000000 1.0
C      1  0.5283180000000  0.5090160000000  0.5200760000000 1.0
C      1  0.5180590000000  0.4816580000000  0.5089330000000 1.0
C      1  0.5558640000000  0.5134980000000  0.5119120000000 1.0
C      1  0.5343250000000  0.4576340000000  0.5180990000000 1.0
C      1  0.4663450000000  0.4479070000000  0.5156190000000 1.0
C      1  0.4482600000000  0.5216800000000  0.5088240000000 1.0
C      1  0.5014820000000  0.5580920000000  0.5112910000000 1.0
C      1  0.5896170000000  0.4782700000000  0.4823080000000 1.0
C      1  0.5056750000000  0.4017620000000  0.4819130000000 1.0
C      1  0.4134280000000  0.4624530000000  0.4792840000000 1.0
C      1  0.4398490000000  0.5707170000000  0.4839270000000 1.0
C      1  0.5467400000000  0.5816390000000  0.4814480000000 1.0
C      1  0.4647840000000  0.4400550000000  0.4870740000000 1.0
C      1  0.4308520000000  0.5193340000000  0.4863810000000 1.0
C      1  0.4957720000000  0.5728100000000  0.4859910000000 1.0
C      1  0.5673400000000  0.5235470000000  0.4868010000000 1.0
C      1  0.5423140000000  0.4436430000000  0.4918140000000 1.0
C      1  0.5146860000000  0.5203060000000  0.6063360000000 1.0
C      1  0.5243380000000  0.4931630000000  0.6037180000000 1.0
C      1  0.5020980000000  0.4765340000000  0.6023950000000 1.0
C      1  0.4782660000000  0.4905440000000  0.6032400000000 1.0
C      1  0.4852700000000  0.5186180000000  0.6048180000000 1.0
C      1  0.4909370000000  0.4443820000000  0.4722290000000 1.0
C      1  0.4445630000000  0.4964030000000  0.4712810000000 1.0
C      1  0.4761170000000  0.5405060000000  0.4732520000000 1.0
C      1  0.5443830000000  0.5313550000000  0.4718320000000 1.0
C      1  0.5457080000000  0.4646340000000  0.4718690000000 1.0
C      1  0.4775420000000  0.5630410000000  0.5790800000000 1.0
C      1  0.5497160000000  0.5393060000000  0.5745710000000 1.0
C      1  0.5528030000000  0.4658670000000  0.5738130000000 1.0
C      1  0.4833050000000  0.4381600000000  0.5741320000000 1.0
C      1  0.4312380000000  0.4936800000000  0.5765390000000 1.0
C      1  0.5450430000000  0.4448230000000  0.4314780000000 1.0
C      1  0.4596060000000  0.4407600000000  0.4317850000000 1.0
C      1  0.4319230000000  0.5165460000000  0.4300280000000 1.0
C      1  0.4937550000000  0.5673070000000  0.4315060000000 1.0
C      1  0.5641790000000  0.5284440000000  0.4303130000000 1.0
C      1  0.4256060000000  0.4949380000000  0.4479810000000 1.0
C      1  0.4707590000000  0.5648080000000  0.4508000000000 1.0
C      1  0.5548390000000  0.5482020000000  0.4500680000000 1.0
C      1  0.5626300000000  0.4619630000000  0.4474910000000 1.0
C      1  0.4818150000000  0.4260960000000  0.4461260000000 1.0
C      1  0.4362790000000  0.4471150000000  0.5574820000000 1.0
C      1  0.4331470000000  0.5456190000000  0.5598940000000 1.0
C      1  0.5239960000000  0.5819540000000  0.5577800000000 1.0
C      1  0.5825590000000  0.5031740000000  0.5574230000000 1.0
C      1  0.5270310000000  0.4363390000000  0.5440340000000 1.0
C      1  0.5050990000000  0.5222370000000  0.3982680000000 1.0
C      1  0.5250480000000  0.5016440000000  0.3973550000000 1.0
C      1  0.5096940000000  0.4776000000000  0.3980170000000 1.0
C      1  0.4815600000000  0.4823730000000  0.3986140000000 1.0
C      1  0.4786950000000  0.5110880000000  0.3981950000000 1.0
C      1  0.5408320000000  0.4923850000000  0.5788250000000 1.0
C      1  0.5050790000000  0.4589940000000  0.5800140000000 1.0
C      1  0.4595830000000  0.4814180000000  0.5818240000000 1.0
C      1  0.4793210000000  0.5335140000000  0.5806030000000 1.0
C      1  0.5222710000000  0.5345760000000  0.5822720000000 1.0
C      1  0.4057830000000  0.5120230000000  0.5240030000000 1.0
C      1  0.4794170000000  0.5931420000000  0.5226680000000 1.0
C      1  0.5855810000000  0.5461820000000  0.5231630000000 1.0
C      1  0.5722860000000  0.4331320000000  0.5194600000000 1.0
C      1  0.4561780000000  0.4082250000000  0.5212200000000 1.0
C      1  0.5090240000000  0.5422500000000  0.4229350000000 1.0
C      1  0.5480150000000  0.5052110000000  0.4188560000000 1.0
C      1  0.5195190000000  0.4557300000000  0.4209770000000 1.0
C      1  0.4642390000000  0.4683700000000  0.4210980000000 1.0
C      1  0.4606970000000  0.5225470000000  0.4212730000000 1.0
C      1  0.4367030000000  0.4253290000000  0.5359550000000 1.0
C      1  0.4139960000000  0.5372830000000  0.5375300000000 1.0
C      1  0.5063950000000  0.5955420000000  0.5356520000000 1.0
C      1  0.5928010000000  0.5205590000000  0.5360360000000 1.0
C      1  0.5503390000000  0.4176910000000  0.5308990000000 1.0
C      1  0.5466990000000  0.5608260000000  0.5551640000000 1.0
C      1  0.5712180000000  0.4764090000000  0.5546660000000 1.0
C      1  0.4983980000000  0.4277710000000  0.5523200000000 1.0
C      1  0.4252420000000  0.4745260000000  0.5548830000000 1.0
C      1  0.4585300000000  0.5614830000000  0.5568010000000 1.0
C      1  0.5682150000000  0.4871030000000  0.4306870000000 1.0
C      1  0.5068550000000  0.4288550000000  0.4295980000000 1.0
C      1  0.4353990000000  0.4747580000000  0.4297020000000 1.0
C      1  0.4552100000000  0.5513410000000  0.4297470000000 1.0
C      1  0.5343530000000  0.5576950000000  0.4305810000000 1.0
END
