TITL C-2441157-2117-1293 0.189332077390495 125000 -25124.2523998722 0 0 197 (C1) n - 1
REM
REM in /home/bkarasulu/work/CARBON/AIRSS/Generating-Clusters/ReaxFF-fromJPCA2015/Units_Real/with-SteepDescent/Higher-Symm
REM
REM
REM
REM
REM
REM ./C.cell (1df0a924f5614ab8850e4351716899ee)
REM
REM compiler GCC version 9.2.1 20190827 (Red Hat 9.2.1-1)
REM options -cpp -mtune=generic -march=x86-64 -g -O0 -fpre-include=/usr/include/finclude/math-vector-fortran.h
REM seed -1447281696 148939248 -418590460 1062294702 1244000679 -167681129 1970266789 440024227 -372893629 1602005798 -366303598 -317202757 -463353177 -1907891043 990411850 -1225245689 1287581004 652721805 -1395218824 -2083034389 1802423646 963546209 342220192 -20039934 -2141482133 -1524079034 -1510231633 -1466701671 -500580552 595173283 -2030985547 1782109344 -408097663
REM
CELL 1.54180   50.00000   50.00000   50.00000   90.00000   90.00000   90.00000
LATT -1
SFAC C  
C      1  0.5590930000000  0.5894340000000  0.4754310000000 1.0
C      1  0.5559040000000  0.5505490000000  0.5781650000000 1.0
C      1  0.5546350000000  0.4403360000000  0.5702050000000 1.0
C      1  0.5588790000000  0.4132730000000  0.4676820000000 1.0
C      1  0.5414820000000  0.5089890000000  0.4089270000000 1.0
C      1  0.5094770000000  0.4118400000000  0.4622750000000 1.0
C      1  0.5135240000000  0.5132680000000  0.4173340000000 1.0
C      1  0.5061220000000  0.5856770000000  0.4843220000000 1.0
C      1  0.5092330000000  0.5359310000000  0.5703570000000 1.0
C      1  0.5115630000000  0.4410430000000  0.5609900000000 1.0
C      1  0.4874850000000  0.4757160000000  0.5974400000000 1.0
C      1  0.4836190000000  0.3966910000000  0.5136060000000 1.0
C      1  0.4871980000000  0.4601170000000  0.4074560000000 1.0
C      1  0.4830750000000  0.5771850000000  0.4290230000000 1.0
C      1  0.4886350000000  0.5791820000000  0.5561470000000 1.0
C      1  0.5304930000000  0.5266930000000  0.5523480000000 1.0
C      1  0.5376260000000  0.4627130000000  0.5361350000000 1.0
C      1  0.5254880000000  0.4469950000000  0.4729250000000 1.0
C      1  0.5343470000000  0.5067180000000  0.4511340000000 1.0
C      1  0.5337980000000  0.5529100000000  0.4890470000000 1.0
C      1  0.5425190000000  0.4823550000000  0.4405360000000 1.0
C      1  0.5526380000000  0.5401290000000  0.4707300000000 1.0
C      1  0.5457220000000  0.5485380000000  0.5387390000000 1.0
C      1  0.5444670000000  0.4782280000000  0.5575970000000 1.0
C      1  0.5454580000000  0.4441470000000  0.4939810000000 1.0
C      1  0.4706990000000  0.5378480000000  0.4410300000000 1.0
C      1  0.4721050000000  0.5648510000000  0.5145600000000 1.0
C      1  0.4735250000000  0.5060670000000  0.5675630000000 1.0
C      1  0.4734660000000  0.4358510000000  0.5231000000000 1.0
C      1  0.4767190000000  0.4493360000000  0.4557360000000 1.0
C      1  0.5864880000000  0.4778250000000  0.4390020000000 1.0
C      1  0.5906670000000  0.5519750000000  0.4591330000000 1.0
C      1  0.5880860000000  0.5527490000000  0.5352930000000 1.0
C      1  0.5872520000000  0.4825840000000  0.5626000000000 1.0
C      1  0.5894870000000  0.4353540000000  0.5022300000000 1.0
C      1  0.3942910000000  0.5226620000000  0.5101140000000 1.0
C      1  0.3885100000000  0.4980950000000  0.5291900000000 1.0
C      1  0.3879960000000  0.4735200000000  0.5126240000000 1.0
C      1  0.3917250000000  0.4788830000000  0.4821820000000 1.0
C      1  0.3948860000000  0.5147740000000  0.4777210000000 1.0
C      1  0.5173580000000  0.5855470000000  0.5602850000000 1.0
C      1  0.5156520000000  0.4713080000000  0.5972120000000 1.0
C      1  0.5333980000000  0.3995140000000  0.5052510000000 1.0
C      1  0.5143130000000  0.4624060000000  0.4035650000000 1.0
C      1  0.5333710000000  0.5778550000000  0.4375780000000 1.0
C      1  0.6131050000000  0.5128960000000  0.5211230000000 1.0
C      1  0.6142020000000  0.4844370000000  0.5188770000000 1.0
C      1  0.6140850000000  0.4781360000000  0.4903400000000 1.0
C      1  0.6141250000000  0.5028460000000  0.4745850000000 1.0
C      1  0.6145640000000  0.5245280000000  0.4936930000000 1.0
C      1  0.5619770000000  0.5355510000000  0.4231740000000 1.0
C      1  0.5674690000000  0.5850820000000  0.5049970000000 1.0
C      1  0.5652430000000  0.5216390000000  0.5827400000000 1.0
C      1  0.5636320000000  0.4278050000000  0.5446860000000 1.0
C      1  0.5675610000000  0.4331090000000  0.4469120000000 1.0
C      1  0.4507070000000  0.5137500000000  0.3972010000000 1.0
C      1  0.4546320000000  0.6021650000000  0.4839130000000 1.0
C      1  0.4482240000000  0.5458570000000  0.5924090000000 1.0
C      1  0.4495270000000  0.4282860000000  0.5729410000000 1.0
C      1  0.4531420000000  0.4078480000000  0.4540360000000 1.0
C      1  0.5114210000000  0.5223310000000  0.5957690000000 1.0
C      1  0.5109790000000  0.4141040000000  0.5490940000000 1.0
C      1  0.5144950000000  0.4199230000000  0.4314150000000 1.0
C      1  0.5100770000000  0.5413020000000  0.4100710000000 1.0
C      1  0.5107970000000  0.5960380000000  0.5116490000000 1.0
C      1  0.4386230000000  0.4259190000000  0.5463220000000 1.0
C      1  0.4421180000000  0.4305660000000  0.4401770000000 1.0
C      1  0.4404140000000  0.5352710000000  0.4147590000000 1.0
C      1  0.4422750000000  0.5910810000000  0.5072630000000 1.0
C      1  0.4393800000000  0.5187400000000  0.5867760000000 1.0
C      1  0.4070850000000  0.5508210000000  0.5181430000000 1.0
C      1  0.4051340000000  0.4978700000000  0.5530310000000 1.0
C      1  0.4036310000000  0.4485180000000  0.5169440000000 1.0
C      1  0.4030970000000  0.4632070000000  0.4576250000000 1.0
C      1  0.4065750000000  0.5343660000000  0.4575580000000 1.0
C      1  0.5564340000000  0.5887430000000  0.5309310000000 1.0
C      1  0.5554270000000  0.4974890000000  0.5943770000000 1.0
C      1  0.5574120000000  0.4077190000000  0.5195440000000 1.0
C      1  0.5570110000000  0.4452690000000  0.4228910000000 1.0
C      1  0.5586150000000  0.5660940000000  0.4296310000000 1.0
C      1  0.4147420000000  0.5600580000000  0.4696300000000 1.0
C      1  0.4156500000000  0.5493130000000  0.5454070000000 1.0
C      1  0.4156190000000  0.4719530000000  0.5608160000000 1.0
C      1  0.4136910000000  0.4333810000000  0.4936660000000 1.0
C      1  0.4198230000000  0.4771040000000  0.4382730000000 1.0
C      1  0.5321920000000  0.4812520000000  0.4880960000000 1.0
C      1  0.5214280000000  0.5042910000000  0.4747660000000 1.0
C      1  0.5219290000000  0.5235170000000  0.4965910000000 1.0
C      1  0.5303460000000  0.5097640000000  0.5214880000000 1.0
C      1  0.5266580000000  0.4822010000000  0.5184640000000 1.0
C      1  0.4687220000000  0.5048970000000  0.5967000000000 1.0
C      1  0.4677820000000  0.4094640000000  0.5365590000000 1.0
C      1  0.4692090000000  0.4378520000000  0.4270830000000 1.0
C      1  0.4659450000000  0.5530650000000  0.4146460000000 1.0
C      1  0.4665640000000  0.5932970000000  0.5239090000000 1.0
C      1  0.5653510000000  0.4711360000000  0.5786590000000 1.0
C      1  0.5720370000000  0.4129560000000  0.4945360000000 1.0
C      1  0.5640010000000  0.4749020000000  0.4205160000000 1.0
C      1  0.5726900000000  0.5739210000000  0.4538300000000 1.0
C      1  0.5668460000000  0.5659390000000  0.5504140000000 1.0
C      1  0.4937000000000  0.4640710000000  0.5575990000000 1.0
C      1  0.4989040000000  0.4354290000000  0.4768340000000 1.0
C      1  0.4966340000000  0.4989800000000  0.4360810000000 1.0
C      1  0.4989340000000  0.5621290000000  0.4712740000000 1.0
C      1  0.4909310000000  0.5495570000000  0.5527690000000 1.0
C      1  0.4970320000000  0.5296460000000  0.5063330000000 1.0
C      1  0.4902980000000  0.5096080000000  0.5245380000000 1.0
C      1  0.5009860000000  0.4701120000000  0.5168220000000 1.0
C      1  0.4889530000000  0.4774830000000  0.4826390000000 1.0
C      1  0.4932510000000  0.5116330000000  0.4623210000000 1.0
C      1  0.4529400000000  0.4521320000000  0.4767870000000 1.0
C      1  0.4515690000000  0.5071420000000  0.4466280000000 1.0
C      1  0.4564640000000  0.5533420000000  0.4896070000000 1.0
C      1  0.4557970000000  0.5285690000000  0.5478010000000 1.0
C      1  0.4672900000000  0.4629750000000  0.5444550000000 1.0
C      1  0.4540850000000  0.4368060000000  0.5019130000000 1.0
C      1  0.4494120000000  0.4775530000000  0.4424770000000 1.0
C      1  0.4570260000000  0.5538890000000  0.4606000000000 1.0
C      1  0.4546860000000  0.5542700000000  0.5348170000000 1.0
C      1  0.4549780000000  0.4838670000000  0.5623110000000 1.0
C      1  0.4780010000000  0.5132190000000  0.3874300000000 1.0
C      1  0.4851030000000  0.6074560000000  0.4810250000000 1.0
C      1  0.4753050000000  0.5545170000000  0.6011580000000 1.0
C      1  0.4763980000000  0.4235060000000  0.5826450000000 1.0
C      1  0.4823260000000  0.3968960000000  0.4531730000000 1.0
C      1  0.4863840000000  0.6107460000000  0.5104740000000 1.0
C      1  0.4852510000000  0.5273730000000  0.6066990000000 1.0
C      1  0.4856280000000  0.4088990000000  0.5600100000000 1.0
C      1  0.4871100000000  0.4133080000000  0.4288330000000 1.0
C      1  0.4856460000000  0.5392850000000  0.3967120000000 1.0
C      1  0.5998680000000  0.5488900000000  0.4869850000000 1.0
C      1  0.5966390000000  0.5262920000000  0.5414460000000 1.0
C      1  0.5943230000000  0.4694250000000  0.5367050000000 1.0
C      1  0.5994720000000  0.4540180000000  0.4818530000000 1.0
C      1  0.5930030000000  0.5046020000000  0.4521780000000 1.0
C      1  0.5869120000000  0.4539800000000  0.4553430000000 1.0
C      1  0.5862440000000  0.5309250000000  0.4397440000000 1.0
C      1  0.5875210000000  0.5639550000000  0.5087590000000 1.0
C      1  0.5847010000000  0.5108740000000  0.5634380000000 1.0
C      1  0.5852850000000  0.4409300000000  0.5305170000000 1.0
C      1  0.5338870000000  0.4028910000000  0.4762900000000 1.0
C      1  0.5348320000000  0.4858680000000  0.3935270000000 1.0
C      1  0.5366020000000  0.5995370000000  0.4592550000000 1.0
C      1  0.5334540000000  0.5687420000000  0.5796830000000 1.0
C      1  0.5295690000000  0.4462990000000  0.5828620000000 1.0
C      1  0.5303830000000  0.5580150000000  0.5173440000000 1.0
C      1  0.5280230000000  0.4997830000000  0.5609550000000 1.0
C      1  0.5326850000000  0.4392740000000  0.5201030000000 1.0
C      1  0.5249170000000  0.4627240000000  0.4498440000000 1.0
C      1  0.5416950000000  0.5326310000000  0.4453140000000 1.0
C      1  0.4492280000000  0.4840270000000  0.3969800000000 1.0
C      1  0.4476780000000  0.5960480000000  0.4557330000000 1.0
C      1  0.4464890000000  0.5713310000000  0.5759130000000 1.0
C      1  0.4467980000000  0.4513560000000  0.5916950000000 1.0
C      1  0.4482500000000  0.3997330000000  0.4827780000000 1.0
C      1  0.5103500000000  0.4011530000000  0.5230360000000 1.0
C      1  0.5292260000000  0.4395940000000  0.4160450000000 1.0
C      1  0.5092520000000  0.5659050000000  0.4257390000000 1.0
C      1  0.5288700000000  0.5954180000000  0.5349950000000 1.0
C      1  0.5281310000000  0.4974020000000  0.6018050000000 1.0
C      1  0.5673560000000  0.5129760000000  0.4761350000000 1.0
C      1  0.5675810000000  0.5246730000000  0.5041280000000 1.0
C      1  0.5557120000000  0.5084260000000  0.5241070000000 1.0
C      1  0.5700560000000  0.4834630000000  0.5159260000000 1.0
C      1  0.5584700000000  0.4696810000000  0.4906940000000 1.0
C      1  0.4749980000000  0.5961790000000  0.4479990000000 1.0
C      1  0.4742370000000  0.5775770000000  0.5819200000000 1.0
C      1  0.4753320000000  0.4494510000000  0.5980350000000 1.0
C      1  0.4746760000000  0.3922810000000  0.4868900000000 1.0
C      1  0.4782220000000  0.4820750000000  0.3915670000000 1.0
C      1  0.4329580000000  0.5205990000000  0.4933110000000 1.0
C      1  0.4220780000000  0.5144040000000  0.5164360000000 1.0
C      1  0.4278550000000  0.4842850000000  0.5179570000000 1.0
C      1  0.4199000000000  0.4799160000000  0.4894130000000 1.0
C      1  0.4222510000000  0.5040760000000  0.4767760000000 1.0
C      1  0.4380470000000  0.4658260000000  0.4179090000000 1.0
C      1  0.4344370000000  0.5699320000000  0.4509470000000 1.0
C      1  0.4350180000000  0.5706870000000  0.5487530000000 1.0
C      1  0.4350110000000  0.4771690000000  0.5825450000000 1.0
C      1  0.4340150000000  0.4157150000000  0.5046420000000 1.0
C      1  0.4231090000000  0.4427010000000  0.4650710000000 1.0
C      1  0.4272060000000  0.5243130000000  0.4377060000000 1.0
C      1  0.4251360000000  0.5654790000000  0.4977510000000 1.0
C      1  0.4237130000000  0.5223720000000  0.5616250000000 1.0
C      1  0.4194940000000  0.4467550000000  0.5421650000000 1.0
C      1  0.4633570000000  0.5117440000000  0.5240270000000 1.0
C      1  0.4572730000000  0.4820290000000  0.5194190000000 1.0
C      1  0.4623060000000  0.4792490000000  0.4870930000000 1.0
C      1  0.4659830000000  0.5072710000000  0.4725180000000 1.0
C      1  0.4576860000000  0.5240800000000  0.4940660000000 1.0
C      1  0.4999540000000  0.5527910000000  0.5234190000000 1.0
C      1  0.5001750000000  0.4934620000000  0.5553780000000 1.0
C      1  0.5011060000000  0.4414320000000  0.5087290000000 1.0
C      1  0.4984090000000  0.4734690000000  0.4510590000000 1.0
C      1  0.4959460000000  0.5400520000000  0.4550950000000 1.0
C      1  0.4936060000000  0.4925620000000  0.5035040000000 1.0
C      1  0.5833620000000  0.5024660000000  0.4984570000000 1.0
END
