TITL C-2441165-58-116 0.0882613696250054 125000 -21729.9039981221 0 0 180 (C1) n - 1
REM
REM in /home/bkarasulu/work/CARBON/AIRSS/Generating-Clusters/ReaxFF-fromJPCA2015/Units_Real/with-SteepDescent/Higher-Symm
REM
REM
REM
REM
REM
REM ./C.cell (1df0a924f5614ab8850e4351716899ee)
REM
REM compiler GCC version 9.2.1 20190827 (Red Hat 9.2.1-1)
REM options -cpp -mtune=generic -march=x86-64 -g -O0 -fpre-include=/usr/include/finclude/math-vector-fortran.h
REM seed -1229903025 -1435922216 -1451670820 487364505 -605362938 -1445778850 -704354968 -1684087753 2011878779 -61120514 -1596950639 1660611419 -930293159 -700396616 -840277684 74633308 -1906774971 -1959244077 466401555 -1717390812 -1428525288 -792358712 1006236600 910702897 -1476874742 -1886815235 -1701922255 380404909 -263442895 1879247020 -2018222367 869850494 201466831
REM
CELL 1.54180   50.00000   50.00000   50.00000   90.00000   90.00000   90.00000
LATT -1
SFAC C  
C      1  0.4571050000000  0.5735600000000  0.4513250000000 1.0
C      1  0.5739920000000  0.4505090000000  0.4564530000000 1.0
C      1  0.4505970000000  0.4561620000000  0.5743700000000 1.0
C      1  0.5427550000000  0.4262960000000  0.4510650000000 1.0
C      1  0.4571060000000  0.4257520000000  0.5490760000000 1.0
C      1  0.5433230000000  0.5743370000000  0.5493750000000 1.0
C      1  0.4261150000000  0.5488470000000  0.4571700000000 1.0
C      1  0.5736950000000  0.5488240000000  0.5427050000000 1.0
C      1  0.4259220000000  0.4506770000000  0.5432980000000 1.0
C      1  0.5491370000000  0.5432440000000  0.5738700000000 1.0
C      1  0.4511620000000  0.5427920000000  0.4262180000000 1.0
C      1  0.5497200000000  0.4567610000000  0.4252430000000 1.0
C      1  0.4571190000000  0.5739500000000  0.5487540000000 1.0
C      1  0.5734630000000  0.4510630000000  0.5432950000000 1.0
C      1  0.4511400000000  0.4571190000000  0.4262000000000 1.0
C      1  0.5432460000000  0.4255710000000  0.5493810000000 1.0
C      1  0.4570610000000  0.4263550000000  0.4511030000000 1.0
C      1  0.5430700000000  0.5740450000000  0.4507410000000 1.0
C      1  0.4257310000000  0.5493910000000  0.5431900000000 1.0
C      1  0.5736800000000  0.5489470000000  0.4571520000000 1.0
C      1  0.4262500000000  0.4513650000000  0.4572120000000 1.0
C      1  0.5494870000000  0.5432850000000  0.4256540000000 1.0
C      1  0.4507190000000  0.5435520000000  0.5742180000000 1.0
C      1  0.5489580000000  0.4564450000000  0.5748360000000 1.0
C      1  0.5316770000000  0.5677230000000  0.4790130000000 1.0
C      1  0.5655500000000  0.4788820000000  0.5323840000000 1.0
C      1  0.4785590000000  0.5340120000000  0.5670050000000 1.0
C      1  0.4689330000000  0.4349780000000  0.4781900000000 1.0
C      1  0.5328460000000  0.4314470000000  0.5207050000000 1.0
C      1  0.4693660000000  0.5669340000000  0.5209750000000 1.0
C      1  0.4311240000000  0.5208820000000  0.5327080000000 1.0
C      1  0.5671260000000  0.5207210000000  0.4683450000000 1.0
C      1  0.4331570000000  0.4789830000000  0.4690840000000 1.0
C      1  0.5208290000000  0.4680040000000  0.5678090000000 1.0
C      1  0.4796250000000  0.4681630000000  0.4319160000000 1.0
C      1  0.5210360000000  0.5323730000000  0.4317810000000 1.0
C      1  0.5328880000000  0.5680550000000  0.5208300000000 1.0
C      1  0.5657400000000  0.4778500000000  0.4674840000000 1.0
C      1  0.4794920000000  0.5319420000000  0.4325150000000 1.0
C      1  0.4694170000000  0.4328870000000  0.5203630000000 1.0
C      1  0.5310600000000  0.4329600000000  0.4788640000000 1.0
C      1  0.4686780000000  0.5662010000000  0.4788660000000 1.0
C      1  0.4328670000000  0.5203250000000  0.4688610000000 1.0
C      1  0.5663410000000  0.5212310000000  0.5307360000000 1.0
C      1  0.4312720000000  0.4792410000000  0.5331420000000 1.0
C      1  0.5216650000000  0.4677130000000  0.4313480000000 1.0
C      1  0.4781520000000  0.4672430000000  0.5663800000000 1.0
C      1  0.5199080000000  0.5316480000000  0.5678080000000 1.0
C      1  0.5207300000000  0.5757710000000  0.5698620000000 1.0
C      1  0.5753760000000  0.5696110000000  0.5204230000000 1.0
C      1  0.5690840000000  0.5206630000000  0.5745370000000 1.0
C      1  0.4797520000000  0.4251990000000  0.5695030000000 1.0
C      1  0.5205340000000  0.4247150000000  0.4302130000000 1.0
C      1  0.4795860000000  0.5748140000000  0.4304020000000 1.0
C      1  0.4265200000000  0.4307310000000  0.5203070000000 1.0
C      1  0.5750710000000  0.4301620000000  0.4796860000000 1.0
C      1  0.4260630000000  0.5693180000000  0.4797530000000 1.0
C      1  0.4305150000000  0.4791840000000  0.5757260000000 1.0
C      1  0.5699590000000  0.4797070000000  0.4250420000000 1.0
C      1  0.4307630000000  0.5202950000000  0.4258760000000 1.0
C      1  0.5204920000000  0.5747690000000  0.4302060000000 1.0
C      1  0.5750410000000  0.5697260000000  0.4796480000000 1.0
C      1  0.5698420000000  0.5204030000000  0.4251700000000 1.0
C      1  0.4797600000000  0.4251630000000  0.4303670000000 1.0
C      1  0.5204290000000  0.4247770000000  0.5698050000000 1.0
C      1  0.4793150000000  0.5755000000000  0.5698000000000 1.0
C      1  0.4260820000000  0.4306560000000  0.4796880000000 1.0
C      1  0.5751230000000  0.4306360000000  0.5205080000000 1.0
C      1  0.4260530000000  0.5694500000000  0.5204030000000 1.0
C      1  0.4306590000000  0.4796020000000  0.4257310000000 1.0
C      1  0.5714660000000  0.4796960000000  0.5740970000000 1.0
C      1  0.4307100000000  0.5203180000000  0.5757260000000 1.0
C      1  0.5389160000000  0.5146530000000  0.5136100000000 1.0
C      1  0.5099620000000  0.5142260000000  0.5467720000000 1.0
C      1  0.5179120000000  0.5421850000000  0.5147620000000 1.0
C      1  0.4569460000000  0.4849980000000  0.5185690000000 1.0
C      1  0.5359330000000  0.4821070000000  0.4778420000000 1.0
C      1  0.4561210000000  0.5135530000000  0.4878300000000 1.0
C      1  0.4820000000000  0.4778930000000  0.5368640000000 1.0
C      1  0.5180210000000  0.4860620000000  0.4541880000000 1.0
C      1  0.4866590000000  0.5164390000000  0.4585220000000 1.0
C      1  0.4887680000000  0.4552280000000  0.5211980000000 1.0
C      1  0.5155510000000  0.4593000000000  0.4854560000000 1.0
C      1  0.4860160000000  0.5390420000000  0.4828810000000 1.0
C      1  0.5389560000000  0.5136330000000  0.4839200000000 1.0
C      1  0.5159100000000  0.5146300000000  0.4543050000000 1.0
C      1  0.5156090000000  0.5430140000000  0.4854670000000 1.0
C      1  0.4584790000000  0.4836170000000  0.4881540000000 1.0
C      1  0.5366830000000  0.4851620000000  0.5214360000000 1.0
C      1  0.4558520000000  0.5146450000000  0.5172420000000 1.0
C      1  0.4875060000000  0.4829670000000  0.4571750000000 1.0
C      1  0.5156930000000  0.4868670000000  0.5427030000000 1.0
C      1  0.4831770000000  0.5217490000000  0.5382030000000 1.0
C      1  0.4843400000000  0.4634400000000  0.4791520000000 1.0
C      1  0.5168460000000  0.4567680000000  0.5146310000000 1.0
C      1  0.4883240000000  0.5425690000000  0.5173780000000 1.0
C      1  0.4524000000000  0.4749070000000  0.5967720000000 1.0
C      1  0.4751430000000  0.5962270000000  0.4520700000000 1.0
C      1  0.5961240000000  0.4520590000000  0.4752110000000 1.0
C      1  0.5479940000000  0.5250860000000  0.5963550000000 1.0
C      1  0.4519230000000  0.5245740000000  0.4038050000000 1.0
C      1  0.5487450000000  0.4753720000000  0.4029940000000 1.0
C      1  0.5249450000000  0.4033130000000  0.4519130000000 1.0
C      1  0.4752740000000  0.4034260000000  0.5477830000000 1.0
C      1  0.5249350000000  0.5967190000000  0.5480740000000 1.0
C      1  0.4038230000000  0.5481050000000  0.4754390000000 1.0
C      1  0.5967190000000  0.5478070000000  0.5249650000000 1.0
C      1  0.4039350000000  0.4514640000000  0.5244890000000 1.0
C      1  0.4518580000000  0.4753480000000  0.4036520000000 1.0
C      1  0.4750250000000  0.5967490000000  0.5478000000000 1.0
C      1  0.5958440000000  0.4526980000000  0.5249150000000 1.0
C      1  0.5483290000000  0.5248380000000  0.4033860000000 1.0
C      1  0.4523780000000  0.5249090000000  0.5964400000000 1.0
C      1  0.5482960000000  0.4747790000000  0.5969620000000 1.0
C      1  0.5248590000000  0.4032430000000  0.5483780000000 1.0
C      1  0.4752260000000  0.4038810000000  0.4523080000000 1.0
C      1  0.5249410000000  0.5966770000000  0.4516840000000 1.0
C      1  0.4033780000000  0.5487570000000  0.5246350000000 1.0
C      1  0.5966180000000  0.5481980000000  0.4750260000000 1.0
C      1  0.4037760000000  0.4519000000000  0.4755420000000 1.0
C      1  0.3971130000000  0.5136030000000  0.5759120000000 1.0
C      1  0.5108850000000  0.5761930000000  0.3983620000000 1.0
C      1  0.5761160000000  0.3983770000000  0.5109230000000 1.0
C      1  0.5995460000000  0.4864510000000  0.5774790000000 1.0
C      1  0.3989760000000  0.4891390000000  0.4239030000000 1.0
C      1  0.6013980000000  0.5109440000000  0.4235850000000 1.0
C      1  0.4890410000000  0.4237580000000  0.3988930000000 1.0
C      1  0.5108880000000  0.4237220000000  0.6020940000000 1.0
C      1  0.4891510000000  0.5763760000000  0.6015090000000 1.0
C      1  0.4237510000000  0.6006000000000  0.5108900000000 1.0
C      1  0.5760470000000  0.6019920000000  0.4890490000000 1.0
C      1  0.4237460000000  0.3992990000000  0.4890130000000 1.0
C      1  0.3991270000000  0.5109950000000  0.4239540000000 1.0
C      1  0.5108970000000  0.5762050000000  0.6027320000000 1.0
C      1  0.5761140000000  0.3983620000000  0.4891080000000 1.0
C      1  0.6014660000000  0.4890600000000  0.4235200000000 1.0
C      1  0.3970450000000  0.4863010000000  0.5760050000000 1.0
C      1  0.6031870000000  0.5129130000000  0.5767680000000 1.0
C      1  0.4890790000000  0.4236650000000  0.6011090000000 1.0
C      1  0.5108420000000  0.4238140000000  0.3977540000000 1.0
C      1  0.4890480000000  0.5761960000000  0.3986530000000 1.0
C      1  0.4238100000000  0.6007930000000  0.4889830000000 1.0
C      1  0.5761920000000  0.6017780000000  0.5108360000000 1.0
C      1  0.4238120000000  0.3996630000000  0.5109350000000 1.0
C      1  0.4054840000000  0.5215270000000  0.5148020000000 1.0
C      1  0.5213300000000  0.5146350000000  0.4054280000000 1.0
C      1  0.5150740000000  0.4055970000000  0.5212080000000 1.0
C      1  0.5918690000000  0.4794540000000  0.5144890000000 1.0
C      1  0.4065100000000  0.4790530000000  0.4855880000000 1.0
C      1  0.5931660000000  0.5210930000000  0.4851050000000 1.0
C      1  0.4790140000000  0.4854490000000  0.4060730000000 1.0
C      1  0.5214900000000  0.4853060000000  0.5942520000000 1.0
C      1  0.4792940000000  0.5149760000000  0.5922330000000 1.0
C      1  0.4856730000000  0.5936430000000  0.5208970000000 1.0
C      1  0.5146190000000  0.5939560000000  0.4786900000000 1.0
C      1  0.4851930000000  0.4078170000000  0.4791510000000 1.0
C      1  0.4058190000000  0.5210270000000  0.4854980000000 1.0
C      1  0.5210640000000  0.5146380000000  0.5945680000000 1.0
C      1  0.5145530000000  0.4068170000000  0.4789100000000 1.0
C      1  0.5917260000000  0.4788300000000  0.4852320000000 1.0
C      1  0.4059530000000  0.4787060000000  0.5149330000000 1.0
C      1  0.5930630000000  0.5208860000000  0.5144770000000 1.0
C      1  0.4788830000000  0.4857280000000  0.5918470000000 1.0
C      1  0.5215740000000  0.4853590000000  0.4054470000000 1.0
C      1  0.4790450000000  0.5147740000000  0.4062290000000 1.0
C      1  0.4853030000000  0.5930330000000  0.4790020000000 1.0
C      1  0.5150110000000  0.5937980000000  0.5210130000000 1.0
C      1  0.4857210000000  0.4057050000000  0.5207920000000 1.0
C      1  0.4389240000000  0.4996190000000  0.5552920000000 1.0
C      1  0.5611510000000  0.5000690000000  0.4462530000000 1.0
C      1  0.5007360000000  0.4460420000000  0.5611770000000 1.0
C      1  0.4474800000000  0.5598680000000  0.5000020000000 1.0
C      1  0.4400900000000  0.4997190000000  0.4469890000000 1.0
C      1  0.5610220000000  0.5010780000000  0.5528830000000 1.0
C      1  0.5002700000000  0.5552430000000  0.5611720000000 1.0
C      1  0.5000940000000  0.5543120000000  0.4393750000000 1.0
C      1  0.5006230000000  0.4456660000000  0.4391290000000 1.0
C      1  0.5542390000000  0.4393740000000  0.4999970000000 1.0
C      1  0.4475340000000  0.4403650000000  0.4993760000000 1.0
C      1  0.5546700000000  0.5607410000000  0.5001710000000 1.0
END
