TITL C-2441169-1362-1140 0.0107865568519604 125000 -9733.44102004461 0 0 70 (C1) n - 1
REM
REM in /home/bkarasulu/work/CARBON/AIRSS/Generating-Clusters/ReaxFF-fromJPCA2015/Units_Real/with-SteepDescent/Higher-Symm
REM
REM
REM
REM
REM
REM ./C.cell (1df0a924f5614ab8850e4351716899ee)
REM
REM compiler GCC version 9.2.1 20190827 (Red Hat 9.2.1-1)
REM options -cpp -mtune=generic -march=x86-64 -g -O0 -fpre-include=/usr/include/finclude/math-vector-fortran.h
REM seed -681013637 866505094 1068968777 -584558134 1997252480 -376852999 1289848007 497235679 1939925932 -599223397 -588735459 1004933070 -481070493 1151462952 -352152110 369611185 -2071142928 203739935 -115669897 1547264949 681133539 718207090 -863317145 517322606 -1451824653 -872666339 667116188 -1878150464 -968754599 1555711831 -847176177 726521463 1286084629
REM
CELL 1.54180   50.00000   50.00000   50.00000   90.00000   90.00000   90.00000
LATT -1
SFAC C  
C      1  0.5206010000000  0.4824340000000  0.5004070000000 1.0
C      1  0.4880880000000  0.4932390000000  0.4280540000000 1.0
C      1  0.5147020000000  0.5087530000000  0.4620080000000 1.0
C      1  0.5450170000000  0.5325910000000  0.4524160000000 1.0
C      1  0.4532120000000  0.4785160000000  0.4650440000000 1.0
C      1  0.5109370000000  0.4249610000000  0.4872990000000 1.0
C      1  0.4821290000000  0.5174290000000  0.4864020000000 1.0
C      1  0.5683120000000  0.5296080000000  0.5156570000000 1.0
C      1  0.4578210000000  0.4504100000000  0.4587000000000 1.0
C      1  0.5754410000000  0.5029710000000  0.4779520000000 1.0
C      1  0.4252530000000  0.5202850000000  0.5280560000000 1.0
C      1  0.5140670000000  0.4807690000000  0.4337100000000 1.0
C      1  0.4522200000000  0.4556210000000  0.5417200000000 1.0
C      1  0.5101030000000  0.5238300000000  0.4875380000000 1.0
C      1  0.5330220000000  0.4621480000000  0.5147960000000 1.0
C      1  0.4650320000000  0.4931880000000  0.5491880000000 1.0
C      1  0.5382150000000  0.4343600000000  0.5212300000000 1.0
C      1  0.5050460000000  0.4801640000000  0.4749400000000 1.0
C      1  0.5379680000000  0.5012630000000  0.4464770000000 1.0
C      1  0.4985100000000  0.4422730000000  0.5341020000000 1.0
C      1  0.4797430000000  0.5353210000000  0.5625130000000 1.0
C      1  0.5199030000000  0.5201620000000  0.5362740000000 1.0
C      1  0.4867600000000  0.4631370000000  0.5171200000000 1.0
C      1  0.5323710000000  0.5650930000000  0.4955290000000 1.0
C      1  0.4508050000000  0.5574400000000  0.4807820000000 1.0
C      1  0.5100240000000  0.4576210000000  0.4511950000000 1.0
C      1  0.5088090000000  0.5789530000000  0.5049790000000 1.0
C      1  0.4766140000000  0.4479630000000  0.5548590000000 1.0
C      1  0.4782040000000  0.4908110000000  0.4771450000000 1.0
C      1  0.4991320000000  0.5189050000000  0.4356330000000 1.0
C      1  0.5404300000000  0.5250720000000  0.5542540000000 1.0
C      1  0.4822260000000  0.4920280000000  0.5250780000000 1.0
C      1  0.5550230000000  0.4491680000000  0.4999720000000 1.0
C      1  0.5121910000000  0.5069750000000  0.5122450000000 1.0
C      1  0.5031310000000  0.5227100000000  0.5706760000000 1.0
C      1  0.4780490000000  0.4750470000000  0.5686810000000 1.0
C      1  0.5482000000000  0.5397080000000  0.4954250000000 1.0
C      1  0.4815640000000  0.5793260000000  0.4966420000000 1.0
C      1  0.5011030000000  0.4928010000000  0.5753050000000 1.0
C      1  0.4608930000000  0.4352680000000  0.4819090000000 1.0
C      1  0.4413270000000  0.5312370000000  0.4733980000000 1.0
C      1  0.4544440000000  0.5406310000000  0.5511500000000 1.0
C      1  0.5233250000000  0.5467350000000  0.5447310000000 1.0
C      1  0.4362870000000  0.5122140000000  0.4981120000000 1.0
C      1  0.5656260000000  0.4839950000000  0.5340810000000 1.0
C      1  0.5241900000000  0.5525070000000  0.4564110000000 1.0
C      1  0.5242070000000  0.5652530000000  0.5233150000000 1.0
C      1  0.5637200000000  0.5129780000000  0.5398500000000 1.0
C      1  0.4667630000000  0.5432830000000  0.5243240000000 1.0
C      1  0.5198450000000  0.4776520000000  0.5644180000000 1.0
C      1  0.4784510000000  0.5383570000000  0.4390260000000 1.0
C      1  0.5556380000000  0.4903880000000  0.4905220000000 1.0
C      1  0.4943810000000  0.5584080000000  0.4527590000000 1.0
C      1  0.4744180000000  0.5717880000000  0.4696570000000 1.0
C      1  0.5654400000000  0.5309320000000  0.4734180000000 1.0
C      1  0.4603950000000  0.4959690000000  0.4404650000000 1.0
C      1  0.4675430000000  0.5172860000000  0.5107340000000 1.0
C      1  0.5706940000000  0.4748670000000  0.5067650000000 1.0
C      1  0.4843460000000  0.4415280000000  0.4496400000000 1.0
C      1  0.4604600000000  0.5644030000000  0.5070950000000 1.0
C      1  0.5585110000000  0.4878850000000  0.4610330000000 1.0
C      1  0.4371900000000  0.4831220000000  0.4939970000000 1.0
C      1  0.4411800000000  0.5130820000000  0.5502630000000 1.0
C      1  0.4392830000000  0.4638740000000  0.5165210000000 1.0
C      1  0.5448850000000  0.4710970000000  0.5526230000000 1.0
C      1  0.5322050000000  0.4401570000000  0.4731300000000 1.0
C      1  0.5120980000000  0.4224560000000  0.5172160000000 1.0
C      1  0.4633610000000  0.4533390000000  0.5023490000000 1.0
C      1  0.4538200000000  0.5231530000000  0.4485210000000 1.0
C      1  0.4850920000000  0.4231020000000  0.4725690000000 1.0
END
