TITL C-2441160-1326-1325 0.140305270059256 125000 -23144.7134928402 0 0 178 (C1) n - 1
REM
REM in /home/bkarasulu/work/CARBON/AIRSS/Generating-Clusters/ReaxFF-fromJPCA2015/Units_Real/with-SteepDescent/Higher-Symm
REM
REM
REM
REM
REM
REM ./C.cell (1df0a924f5614ab8850e4351716899ee)
REM
REM compiler GCC version 9.2.1 20190827 (Red Hat 9.2.1-1)
REM options -cpp -mtune=generic -march=x86-64 -g -O0 -fpre-include=/usr/include/finclude/math-vector-fortran.h
REM seed -1583760392 1044069842 -902356018 -136814746 -1906213470 612440937 61338285 1779304507 1782346134 790962511 -251888545 -510992817 1625188442 -1188170858 -307017512 -626132169 -46704240 445540899 1342314427 895383471 -1964343969 1109589572 1263987393 -1180540816 1274032285 1440298938 -1752299735 938331963 1757861157 -1678981256 1229677051 -496907177 -521372920
REM
CELL 1.54180   50.00000   50.00000   50.00000   90.00000   90.00000   90.00000
LATT -1
SFAC C  
C      1  0.4545950000000  0.4770270000000  0.5141330000000 1.0
C      1  0.5594000000000  0.5040280000000  0.4620720000000 1.0
C      1  0.5239860000000  0.4165740000000  0.4491960000000 1.0
C      1  0.4873810000000  0.5114830000000  0.4623140000000 1.0
C      1  0.4706320000000  0.5032770000000  0.4803240000000 1.0
C      1  0.5127740000000  0.4317780000000  0.5876350000000 1.0
C      1  0.5217800000000  0.4391510000000  0.4303370000000 1.0
C      1  0.5305050000000  0.4293220000000  0.5479080000000 1.0
C      1  0.4507190000000  0.5020390000000  0.4559170000000 1.0
C      1  0.5498630000000  0.4161040000000  0.4628730000000 1.0
C      1  0.5054260000000  0.3956990000000  0.4905230000000 1.0
C      1  0.5373770000000  0.5109440000000  0.5583530000000 1.0
C      1  0.4937950000000  0.4490400000000  0.5971660000000 1.0
C      1  0.5611690000000  0.4879120000000  0.4881100000000 1.0
C      1  0.4016570000000  0.5428960000000  0.5015810000000 1.0
C      1  0.5149820000000  0.5891650000000  0.5410860000000 1.0
C      1  0.4730890000000  0.5942690000000  0.4629210000000 1.0
C      1  0.6011200000000  0.5400310000000  0.5114660000000 1.0
C      1  0.4260650000000  0.5572470000000  0.5502470000000 1.0
C      1  0.5481800000000  0.5439780000000  0.5145320000000 1.0
C      1  0.5475140000000  0.5757090000000  0.4547030000000 1.0
C      1  0.5064790000000  0.4226560000000  0.5615710000000 1.0
C      1  0.5171580000000  0.4680790000000  0.6006830000000 1.0
C      1  0.4651680000000  0.4835410000000  0.6007280000000 1.0
C      1  0.5389830000000  0.4837240000000  0.5409280000000 1.0
C      1  0.5810150000000  0.5582370000000  0.5436540000000 1.0
C      1  0.4787850000000  0.4310950000000  0.4998020000000 1.0
C      1  0.5032120000000  0.5104010000000  0.4271750000000 1.0
C      1  0.5099130000000  0.5179490000000  0.5009240000000 1.0
C      1  0.4652160000000  0.5771990000000  0.4850820000000 1.0
C      1  0.4033740000000  0.4944070000000  0.5017860000000 1.0
C      1  0.4926530000000  0.4676190000000  0.4390370000000 1.0
C      1  0.5218930000000  0.5337890000000  0.5192170000000 1.0
C      1  0.5234820000000  0.4718660000000  0.3962720000000 1.0
C      1  0.4496410000000  0.5114090000000  0.5994010000000 1.0
C      1  0.4206270000000  0.4382380000000  0.5563770000000 1.0
C      1  0.4228220000000  0.4878210000000  0.4806630000000 1.0
C      1  0.5149890000000  0.5363260000000  0.4430460000000 1.0
C      1  0.4217260000000  0.5292780000000  0.4346670000000 1.0
C      1  0.4980830000000  0.5925090000000  0.4471720000000 1.0
C      1  0.4541890000000  0.4559710000000  0.4659890000000 1.0
C      1  0.5768960000000  0.4148750000000  0.5054510000000 1.0
C      1  0.5434790000000  0.5854280000000  0.5310930000000 1.0
C      1  0.5390050000000  0.5231050000000  0.4095330000000 1.0
C      1  0.4633770000000  0.4805970000000  0.4118170000000 1.0
C      1  0.4502180000000  0.5710540000000  0.5590300000000 1.0
C      1  0.4080480000000  0.4809310000000  0.4433470000000 1.0
C      1  0.4144850000000  0.5615420000000  0.5218290000000 1.0
C      1  0.5621140000000  0.5394330000000  0.4191370000000 1.0
C      1  0.3953960000000  0.4872470000000  0.5460790000000 1.0
C      1  0.4561460000000  0.4127210000000  0.4958000000000 1.0
C      1  0.4995530000000  0.5415790000000  0.5883990000000 1.0
C      1  0.4688970000000  0.4033800000000  0.4207800000000 1.0
C      1  0.4272380000000  0.5469940000000  0.4601380000000 1.0
C      1  0.5492850000000  0.4851010000000  0.4408060000000 1.0
C      1  0.5917660000000  0.5180870000000  0.5338280000000 1.0
C      1  0.4652640000000  0.5568840000000  0.4347370000000 1.0
C      1  0.5024770000000  0.4358100000000  0.5156830000000 1.0
C      1  0.6056690000000  0.4827210000000  0.5035720000000 1.0
C      1  0.4961340000000  0.4555840000000  0.5347020000000 1.0
C      1  0.4069420000000  0.5114680000000  0.4509000000000 1.0
C      1  0.5968970000000  0.4893350000000  0.5302360000000 1.0
C      1  0.5883620000000  0.5418200000000  0.4590300000000 1.0
C      1  0.5989990000000  0.5303540000000  0.4845530000000 1.0
C      1  0.5667440000000  0.5557670000000  0.4432060000000 1.0
C      1  0.5053820000000  0.5501490000000  0.4669700000000 1.0
C      1  0.4286370000000  0.4262980000000  0.5047510000000 1.0
C      1  0.5538150000000  0.4501920000000  0.5082040000000 1.0
C      1  0.4554490000000  0.5915840000000  0.5090510000000 1.0
C      1  0.4385800000000  0.5268190000000  0.4102190000000 1.0
C      1  0.5849800000000  0.4727780000000  0.5493940000000 1.0
C      1  0.4862370000000  0.6044580000000  0.5351620000000 1.0
C      1  0.5303250000000  0.6037790000000  0.4816990000000 1.0
C      1  0.5031750000000  0.4554560000000  0.4154520000000 1.0
C      1  0.4779500000000  0.4803270000000  0.4959110000000 1.0
C      1  0.4826290000000  0.4947410000000  0.5808620000000 1.0
C      1  0.5299150000000  0.5631920000000  0.4756160000000 1.0
C      1  0.5975620000000  0.4891150000000  0.4560930000000 1.0
C      1  0.5230680000000  0.5051650000000  0.4797400000000 1.0
C      1  0.4468660000000  0.4563420000000  0.4109660000000 1.0
C      1  0.4177890000000  0.5306450000000  0.5601510000000 1.0
C      1  0.5145140000000  0.5233380000000  0.5455660000000 1.0
C      1  0.4593400000000  0.4270650000000  0.5468500000000 1.0
C      1  0.4576280000000  0.5487910000000  0.4069540000000 1.0
C      1  0.5135420000000  0.4534730000000  0.4797820000000 1.0
C      1  0.5272430000000  0.5970230000000  0.4532950000000 1.0
C      1  0.5406890000000  0.5233850000000  0.4673530000000 1.0
C      1  0.4479110000000  0.5049070000000  0.5239620000000 1.0
C      1  0.5310290000000  0.3976740000000  0.5048200000000 1.0
C      1  0.4799110000000  0.5504020000000  0.4868550000000 1.0
C      1  0.3958220000000  0.5184590000000  0.5154600000000 1.0
C      1  0.5555220000000  0.5338150000000  0.5623780000000 1.0
C      1  0.5818550000000  0.5218450000000  0.5626720000000 1.0
C      1  0.5416570000000  0.4616980000000  0.5860290000000 1.0
C      1  0.4642650000000  0.4775180000000  0.4417310000000 1.0
C      1  0.4640070000000  0.4557970000000  0.5882390000000 1.0
C      1  0.5656640000000  0.5107700000000  0.4122240000000 1.0
C      1  0.5064520000000  0.5369200000000  0.3967110000000 1.0
C      1  0.5274170000000  0.4390580000000  0.5012740000000 1.0
C      1  0.4504510000000  0.5828180000000  0.4474730000000 1.0
C      1  0.4590390000000  0.4307110000000  0.4192700000000 1.0
C      1  0.5557540000000  0.4864560000000  0.5870750000000 1.0
C      1  0.4650870000000  0.5632160000000  0.5846780000000 1.0
C      1  0.5050050000000  0.5966440000000  0.4945710000000 1.0
C      1  0.4777690000000  0.5437340000000  0.5392520000000 1.0
C      1  0.5708910000000  0.4470240000000  0.5457690000000 1.0
C      1  0.4998510000000  0.5438270000000  0.5586730000000 1.0
C      1  0.5590100000000  0.5732690000000  0.5525260000000 1.0
C      1  0.5327840000000  0.5077590000000  0.5885900000000 1.0
C      1  0.5637280000000  0.5211290000000  0.5219380000000 1.0
C      1  0.4100620000000  0.5305780000000  0.4754210000000 1.0
C      1  0.4015480000000  0.4753520000000  0.5220270000000 1.0
C      1  0.4427790000000  0.5280960000000  0.5066610000000 1.0
C      1  0.4741670000000  0.4054390000000  0.4514630000000 1.0
C      1  0.5980550000000  0.4620610000000  0.4865630000000 1.0
C      1  0.5509470000000  0.5923640000000  0.5024320000000 1.0
C      1  0.4937850000000  0.5700880000000  0.5881950000000 1.0
C      1  0.5275510000000  0.5377130000000  0.5927340000000 1.0
C      1  0.4377830000000  0.4854270000000  0.5610570000000 1.0
C      1  0.4398980000000  0.5570150000000  0.5108410000000 1.0
C      1  0.5104720000000  0.4781030000000  0.5430230000000 1.0
C      1  0.4591820000000  0.5074420000000  0.4013980000000 1.0
C      1  0.4783170000000  0.5306110000000  0.3962540000000 1.0
C      1  0.5407920000000  0.4947950000000  0.4165480000000 1.0
C      1  0.5915580000000  0.5658430000000  0.5181050000000 1.0
C      1  0.5481950000000  0.5440190000000  0.4859650000000 1.0
C      1  0.5043840000000  0.4966490000000  0.4007290000000 1.0
C      1  0.5045450000000  0.4925730000000  0.4491330000000 1.0
C      1  0.4664970000000  0.5252030000000  0.4482930000000 1.0
C      1  0.4810770000000  0.6089830000000  0.5073940000000 1.0
C      1  0.5541080000000  0.4039920000000  0.4888880000000 1.0
C      1  0.4617480000000  0.5898530000000  0.5394600000000 1.0
C      1  0.5088740000000  0.4924610000000  0.5921940000000 1.0
C      1  0.5450960000000  0.4531540000000  0.5569980000000 1.0
C      1  0.5686320000000  0.4390190000000  0.4631910000000 1.0
C      1  0.4298790000000  0.4231860000000  0.5332080000000 1.0
C      1  0.4637930000000  0.4752720000000  0.5613630000000 1.0
C      1  0.4826960000000  0.4063250000000  0.5532330000000 1.0
C      1  0.5073370000000  0.5750850000000  0.5147550000000 1.0
C      1  0.5533390000000  0.4953490000000  0.5151550000000 1.0
C      1  0.4687610000000  0.5161520000000  0.5385780000000 1.0
C      1  0.6062780000000  0.5016150000000  0.4814660000000 1.0
C      1  0.4260020000000  0.4693970000000  0.4252240000000 1.0
C      1  0.4450950000000  0.4355910000000  0.5712720000000 1.0
C      1  0.4265980000000  0.5774550000000  0.4641790000000 1.0
C      1  0.5414170000000  0.4092910000000  0.5307450000000 1.0
C      1  0.4796500000000  0.3899890000000  0.5041470000000 1.0
C      1  0.5700800000000  0.4511640000000  0.4368610000000 1.0
C      1  0.5195920000000  0.4791280000000  0.4906240000000 1.0
C      1  0.4910530000000  0.5719790000000  0.4287540000000 1.0
C      1  0.4332000000000  0.5101530000000  0.5744610000000 1.0
C      1  0.5420600000000  0.5580930000000  0.5776460000000 1.0
C      1  0.5795050000000  0.4785700000000  0.4338290000000 1.0
C      1  0.4867380000000  0.5567380000000  0.5160270000000 1.0
C      1  0.4824810000000  0.3959550000000  0.5295600000000 1.0
C      1  0.4508450000000  0.4109110000000  0.4670800000000 1.0
C      1  0.4408590000000  0.4684780000000  0.4895950000000 1.0
C      1  0.4949000000000  0.5018460000000  0.5404630000000 1.0
C      1  0.5863240000000  0.4427080000000  0.5034270000000 1.0
C      1  0.5000150000000  0.4917520000000  0.5080030000000 1.0
C      1  0.4143520000000  0.4385160000000  0.4817480000000 1.0
C      1  0.4337830000000  0.4337270000000  0.4607790000000 1.0
C      1  0.4675560000000  0.4581750000000  0.5384190000000 1.0
C      1  0.4188610000000  0.4691000000000  0.5465670000000 1.0
C      1  0.5419980000000  0.4577850000000  0.4391170000000 1.0
C      1  0.5151590000000  0.5735080000000  0.5677390000000 1.0
C      1  0.5770910000000  0.4932900000000  0.5694920000000 1.0
C      1  0.4066130000000  0.4650830000000  0.4691130000000 1.0
C      1  0.4653820000000  0.5267170000000  0.4918030000000 1.0
C      1  0.5122990000000  0.5546330000000  0.4185710000000 1.0
C      1  0.4584200000000  0.5391340000000  0.6011400000000 1.0
C      1  0.3978760000000  0.5160080000000  0.5446460000000 1.0
C      1  0.5685660000000  0.4200430000000  0.5330120000000 1.0
C      1  0.5765520000000  0.5819980000000  0.4955660000000 1.0
C      1  0.4828330000000  0.4516520000000  0.4796540000000 1.0
C      1  0.5844790000000  0.5149380000000  0.4500520000000 1.0
C      1  0.5014440000000  0.4046200000000  0.4630450000000 1.0
C      1  0.5571840000000  0.4608930000000  0.4814440000000 1.0
END
