TITL C-2441154-10-1023 0.0376524939315017 125000 -21360.5307285721 0 0 148 (C1) n - 1
REM
REM in /home/bkarasulu/work/CARBON/AIRSS/Generating-Clusters/ReaxFF-fromJPCA2015/Units_Real/with-SteepDescent/Higher-Symm
REM
REM
REM
REM
REM
REM ./C.cell (1df0a924f5614ab8850e4351716899ee)
REM
REM compiler GCC version 9.2.1 20190827 (Red Hat 9.2.1-1)
REM options -cpp -mtune=generic -march=x86-64 -g -O0 -fpre-include=/usr/include/finclude/math-vector-fortran.h
REM seed 1032976476 -1288690088 -1680347744 -1452405051 -1263271358 -602801382 -2005506970 -437422076 294612615 1954515846 132240645 -26159611 -269931237 1404743835 -1404053040 -1795015963 620909323 -2062909620 -1498199999 1484682711 946369190 154164052 563351540 -701315988 -652548554 802917809 -865968572 -1793274974 1599106461 1697812965 -449185519 -1701153325 -1376339653
REM
CELL 1.54180   50.00000   50.00000   50.00000   90.00000   90.00000   90.00000
LATT -1
SFAC C  
C      1  0.4438880000000  0.4594140000000  0.5345020000000 1.0
C      1  0.5254090000000  0.4486920000000  0.4620470000000 1.0
C      1  0.4575490000000  0.5375190000000  0.4504240000000 1.0
C      1  0.4406000000000  0.5332930000000  0.4726720000000 1.0
C      1  0.5499350000000  0.5417410000000  0.5285350000000 1.0
C      1  0.5568000000000  0.4691250000000  0.4803390000000 1.0
C      1  0.5259530000000  0.5494820000000  0.5421160000000 1.0
C      1  0.4823620000000  0.5491270000000  0.4576640000000 1.0
C      1  0.4705150000000  0.4495550000000  0.5403390000000 1.0
C      1  0.4544240000000  0.4624850000000  0.5583440000000 1.0
C      1  0.5428650000000  0.4702700000000  0.4556880000000 1.0
C      1  0.5451370000000  0.5310700000000  0.5527850000000 1.0
C      1  0.4884240000000  0.5107920000000  0.6068210000000 1.0
C      1  0.6049150000000  0.4998930000000  0.5159280000000 1.0
C      1  0.5092230000000  0.5894660000000  0.4937280000000 1.0
C      1  0.4896640000000  0.4900300000000  0.3971690000000 1.0
C      1  0.5086110000000  0.4916500000000  0.6073800000000 1.0
C      1  0.5052400000000  0.5130420000000  0.3892500000000 1.0
C      1  0.5975680000000  0.5039870000000  0.4882440000000 1.0
C      1  0.3986280000000  0.4978580000000  0.5193400000000 1.0
C      1  0.4025970000000  0.4962410000000  0.4914170000000 1.0
C      1  0.5083160000000  0.3960520000000  0.5087460000000 1.0
C      1  0.4900470000000  0.3944060000000  0.4897100000000 1.0
C      1  0.4884780000000  0.6031450000000  0.5073180000000 1.0
C      1  0.4860090000000  0.4489710000000  0.4081070000000 1.0
C      1  0.4086890000000  0.4798960000000  0.4496600000000 1.0
C      1  0.4463690000000  0.4181070000000  0.4755200000000 1.0
C      1  0.4797700000000  0.5551840000000  0.5816880000000 1.0
C      1  0.5246010000000  0.5536110000000  0.4136410000000 1.0
C      1  0.5250660000000  0.4468630000000  0.5865780000000 1.0
C      1  0.4134190000000  0.5243200000000  0.5553490000000 1.0
C      1  0.5854910000000  0.5128960000000  0.4469300000000 1.0
C      1  0.5859910000000  0.4755050000000  0.5544330000000 1.0
C      1  0.4424430000000  0.5816270000000  0.5191300000000 1.0
C      1  0.5519390000000  0.5860770000000  0.4777420000000 1.0
C      1  0.5518210000000  0.4167400000000  0.5170300000000 1.0
C      1  0.4945700000000  0.5818860000000  0.4336900000000 1.0
C      1  0.4376250000000  0.4957920000000  0.5786610000000 1.0
C      1  0.5929400000000  0.4458120000000  0.4869720000000 1.0
C      1  0.4962240000000  0.4212500000000  0.5626840000000 1.0
C      1  0.5104540000000  0.4113740000000  0.4505100000000 1.0
C      1  0.5145550000000  0.5910510000000  0.5462290000000 1.0
C      1  0.4365770000000  0.5080840000000  0.4280410000000 1.0
C      1  0.5662300000000  0.5056900000000  0.5826820000000 1.0
C      1  0.5523180000000  0.4877190000000  0.4131790000000 1.0
C      1  0.5774910000000  0.5629730000000  0.5050010000000 1.0
C      1  0.4043440000000  0.5479510000000  0.4859880000000 1.0
C      1  0.4191620000000  0.4359470000000  0.5089110000000 1.0
C      1  0.5940380000000  0.5279060000000  0.4700950000000 1.0
C      1  0.4665290000000  0.5989470000000  0.5251140000000 1.0
C      1  0.5295730000000  0.4728810000000  0.5995320000000 1.0
C      1  0.5989800000000  0.4737020000000  0.5286290000000 1.0
C      1  0.3984460000000  0.4720090000000  0.4755760000000 1.0
C      1  0.4012140000000  0.5245670000000  0.5296280000000 1.0
C      1  0.4729490000000  0.4071010000000  0.4693560000000 1.0
C      1  0.5280030000000  0.4030370000000  0.5281370000000 1.0
C      1  0.5267480000000  0.5971360000000  0.4704280000000 1.0
C      1  0.5278030000000  0.5277830000000  0.4006150000000 1.0
C      1  0.4701860000000  0.5298700000000  0.5946180000000 1.0
C      1  0.4686920000000  0.4728980000000  0.4089140000000 1.0
C      1  0.4114320000000  0.5095290000000  0.4432250000000 1.0
C      1  0.4429200000000  0.4192690000000  0.5040850000000 1.0
C      1  0.5165980000000  0.4476480000000  0.4123190000000 1.0
C      1  0.4147650000000  0.4960350000000  0.5611770000000 1.0
C      1  0.5897850000000  0.4806260000000  0.4458310000000 1.0
C      1  0.5855400000000  0.5032010000000  0.5614780000000 1.0
C      1  0.4411680000000  0.5811980000000  0.4901690000000 1.0
C      1  0.5567070000000  0.5844150000000  0.5068370000000 1.0
C      1  0.5519760000000  0.4189500000000  0.4864980000000 1.0
C      1  0.5093650000000  0.5573660000000  0.5849010000000 1.0
C      1  0.4963990000000  0.5604660000000  0.4138500000000 1.0
C      1  0.4970120000000  0.4417380000000  0.5839080000000 1.0
C      1  0.4134560000000  0.5455540000000  0.5150200000000 1.0
C      1  0.5230110000000  0.4196920000000  0.5515260000000 1.0
C      1  0.5509770000000  0.5170730000000  0.4175230000000 1.0
C      1  0.4117220000000  0.4469160000000  0.4829560000000 1.0
C      1  0.5863640000000  0.4499210000000  0.5169810000000 1.0
C      1  0.5783200000000  0.5516560000000  0.4780250000000 1.0
C      1  0.5215620000000  0.5842890000000  0.4448060000000 1.0
C      1  0.4824680000000  0.5843600000000  0.5448460000000 1.0
C      1  0.4857660000000  0.4307970000000  0.4562060000000 1.0
C      1  0.5527470000000  0.4797820000000  0.5834170000000 1.0
C      1  0.4525840000000  0.4826350000000  0.4345780000000 1.0
C      1  0.4483630000000  0.5226870000000  0.5775390000000 1.0
C      1  0.5599080000000  0.4617650000000  0.5615200000000 1.0
C      1  0.5613180000000  0.5649210000000  0.4583400000000 1.0
C      1  0.4672860000000  0.5650010000000  0.5583740000000 1.0
C      1  0.5649300000000  0.5298720000000  0.4386760000000 1.0
C      1  0.4356280000000  0.5436020000000  0.5597040000000 1.0
C      1  0.4311490000000  0.4628550000000  0.4442080000000 1.0
C      1  0.5654620000000  0.4369250000000  0.5309340000000 1.0
C      1  0.4310180000000  0.4399050000000  0.4623410000000 1.0
C      1  0.4353740000000  0.5563240000000  0.5319050000000 1.0
C      1  0.4763100000000  0.4415120000000  0.4323640000000 1.0
C      1  0.5429840000000  0.4372050000000  0.5646490000000 1.0
C      1  0.5388740000000  0.5614220000000  0.4387110000000 1.0
C      1  0.4048550000000  0.4790130000000  0.5398080000000 1.0
C      1  0.5308530000000  0.4090720000000  0.4701830000000 1.0
C      1  0.4817420000000  0.5344840000000  0.4137500000000 1.0
C      1  0.4011200000000  0.5305840000000  0.4619100000000 1.0
C      1  0.5863290000000  0.5168220000000  0.5335590000000 1.0
C      1  0.5989210000000  0.4635720000000  0.4660880000000 1.0
C      1  0.5363620000000  0.5888590000000  0.5280070000000 1.0
C      1  0.4693770000000  0.5783980000000  0.4828610000000 1.0
C      1  0.4705680000000  0.4183040000000  0.5158960000000 1.0
C      1  0.4840710000000  0.4687500000000  0.5841860000000 1.0
C      1  0.5264310000000  0.4746550000000  0.4108060000000 1.0
C      1  0.5187790000000  0.5298130000000  0.5874920000000 1.0
C      1  0.5668050000000  0.4429370000000  0.4784590000000 1.0
C      1  0.4749470000000  0.5762140000000  0.4542490000000 1.0
C      1  0.4547820000000  0.4727150000000  0.5830510000000 1.0
C      1  0.5775360000000  0.5452170000000  0.5273250000000 1.0
C      1  0.4281160000000  0.5598190000000  0.4744490000000 1.0
C      1  0.4160840000000  0.4530020000000  0.5326120000000 1.0
C      1  0.4735970000000  0.4207750000000  0.5445930000000 1.0
C      1  0.5249290000000  0.4331800000000  0.4363490000000 1.0
C      1  0.5244250000000  0.5715830000000  0.5645490000000 1.0
C      1  0.4531310000000  0.5311780000000  0.4225760000000 1.0
C      1  0.5475230000000  0.5284450000000  0.5809460000000 1.0
C      1  0.5638410000000  0.4725280000000  0.4347130000000 1.0
C      1  0.5034490000000  0.5277300000000  0.5416430000000 1.0
C      1  0.5354030000000  0.4917990000000  0.5231670000000 1.0
C      1  0.5260930000000  0.5346690000000  0.4988460000000 1.0
C      1  0.4901960000000  0.4696450000000  0.4697880000000 1.0
C      1  0.4973730000000  0.4713160000000  0.5364290000000 1.0
C      1  0.5035000000000  0.5273570000000  0.4569080000000 1.0
C      1  0.5208490000000  0.5137200000000  0.4782650000000 1.0
C      1  0.4635560000000  0.5069000000000  0.5211420000000 1.0
C      1  0.4700380000000  0.4887000000000  0.4621960000000 1.0
C      1  0.5196430000000  0.4707580000000  0.5086030000000 1.0
C      1  0.4760120000000  0.4617640000000  0.4947710000000 1.0
C      1  0.4744490000000  0.5262500000000  0.5004160000000 1.0
C      1  0.4296980000000  0.5081030000000  0.4856110000000 1.0
C      1  0.4896980000000  0.4358360000000  0.4990120000000 1.0
C      1  0.5041560000000  0.4896480000000  0.4228810000000 1.0
C      1  0.4379710000000  0.5021000000000  0.5108380000000 1.0
C      1  0.5696800000000  0.4932460000000  0.4911370000000 1.0
C      1  0.5625040000000  0.4989780000000  0.5178660000000 1.0
C      1  0.4810470000000  0.5553980000000  0.5001290000000 1.0
C      1  0.5082720000000  0.5594950000000  0.4983170000000 1.0
C      1  0.5171790000000  0.4435500000000  0.4905680000000 1.0
C      1  0.5019800000000  0.5135160000000  0.5663830000000 1.0
C      1  0.4998720000000  0.5168380000000  0.4297060000000 1.0
C      1  0.4981110000000  0.4846400000000  0.5631090000000 1.0
C      1  0.5125040000000  0.4863640000000  0.4839150000000 1.0
C      1  0.4786750000000  0.5130710000000  0.4751130000000 1.0
C      1  0.4780850000000  0.4813470000000  0.5171800000000 1.0
C      1  0.5165580000000  0.5151200000000  0.5196570000000 1.0
END
