TITL C-2441162-9305-202 0.0717379224942737 125000 -26804.1839634418 0 0 188 (C1) n - 1
REM
REM in /home/bkarasulu/work/CARBON/AIRSS/Generating-Clusters/ReaxFF-fromJPCA2015/Units_Real/with-SteepDescent/Higher-Symm
REM
REM
REM
REM
REM
REM ./C.cell (1df0a924f5614ab8850e4351716899ee)
REM
REM compiler GCC version 9.2.1 20190827 (Red Hat 9.2.1-1)
REM options -cpp -mtune=generic -march=x86-64 -g -O0 -fpre-include=/usr/include/finclude/math-vector-fortran.h
REM seed 2124596838 -533779677 1015199149 -2079018252 1673504278 -1204888615 710324524 -1345680932 -889360243 415623249 1894716973 -918916995 887097119 -606326023 -919029272 121218334 1474967437 -820443842 1958116732 2059777885 -1896519784 -1549374450 98506264 -2028088714 -1555090822 -2098474564 2071665211 500677116 1349693439 -1730600674 -1021327861 471110601 714929343
REM
CELL 1.54180   50.00000   50.00000   50.00000   90.00000   90.00000   90.00000
LATT -1
SFAC C  
C      1  0.4902820000000  0.5241340000000  0.4041620000000 1.0
C      1  0.4882890000000  0.4749780000000  0.6067910000000 1.0
C      1  0.5482220000000  0.5958570000000  0.4780710000000 1.0
C      1  0.5494960000000  0.4052550000000  0.5258210000000 1.0
C      1  0.4984700000000  0.4726540000000  0.5517520000000 1.0
C      1  0.4918940000000  0.5261710000000  0.4388490000000 1.0
C      1  0.4699030000000  0.4538010000000  0.5971760000000 1.0
C      1  0.4690110000000  0.5467930000000  0.4061050000000 1.0
C      1  0.5131580000000  0.6031130000000  0.5439870000000 1.0
C      1  0.5149050000000  0.4003090000000  0.4585940000000 1.0
C      1  0.4850890000000  0.5716170000000  0.5276160000000 1.0
C      1  0.4887860000000  0.4300560000000  0.4701530000000 1.0
C      1  0.4748810000000  0.5209180000000  0.5432720000000 1.0
C      1  0.4695100000000  0.4777400000000  0.4531860000000 1.0
C      1  0.5800380000000  0.5568900000000  0.5120370000000 1.0
C      1  0.5795210000000  0.4402050000000  0.4889840000000 1.0
C      1  0.4489620000000  0.5520320000000  0.5751820000000 1.0
C      1  0.4478710000000  0.4453570000000  0.4227670000000 1.0
C      1  0.4030580000000  0.5331240000000  0.4993150000000 1.0
C      1  0.3862040000000  0.4715670000000  0.4966530000000 1.0
C      1  0.5737790000000  0.5790000000000  0.5474490000000 1.0
C      1  0.5733770000000  0.4166350000000  0.4533680000000 1.0
C      1  0.4699370000000  0.5054450000000  0.5668050000000 1.0
C      1  0.4689610000000  0.4920560000000  0.4300250000000 1.0
C      1  0.5254520000000  0.5661140000000  0.5152630000000 1.0
C      1  0.5239620000000  0.4398170000000  0.4929200000000 1.0
C      1  0.5403780000000  0.5401180000000  0.4771940000000 1.0
C      1  0.5460910000000  0.4775420000000  0.5230760000000 1.0
C      1  0.5489910000000  0.4945230000000  0.4546930000000 1.0
C      1  0.5468690000000  0.5154340000000  0.5573550000000 1.0
C      1  0.4231900000000  0.4663780000000  0.5282570000000 1.0
C      1  0.4098180000000  0.5474380000000  0.4752420000000 1.0
C      1  0.4534810000000  0.4901130000000  0.4033350000000 1.0
C      1  0.4509620000000  0.5077600000000  0.5902880000000 1.0
C      1  0.5197860000000  0.4173240000000  0.4360220000000 1.0
C      1  0.5180380000000  0.5847480000000  0.5653810000000 1.0
C      1  0.4589900000000  0.5937050000000  0.5500700000000 1.0
C      1  0.4582980000000  0.4073600000000  0.4533190000000 1.0
C      1  0.5119620000000  0.5441910000000  0.4802620000000 1.0
C      1  0.5310610000000  0.4526600000000  0.5206180000000 1.0
C      1  0.4709130000000  0.4511440000000  0.4635020000000 1.0
C      1  0.4716970000000  0.5466210000000  0.5306620000000 1.0
C      1  0.5545270000000  0.5359470000000  0.4302000000000 1.0
C      1  0.5586990000000  0.4592680000000  0.5754740000000 1.0
C      1  0.4384170000000  0.4773660000000  0.4812990000000 1.0
C      1  0.4437800000000  0.5190950000000  0.5171630000000 1.0
C      1  0.5749450000000  0.4104990000000  0.4819360000000 1.0
C      1  0.5744650000000  0.5860190000000  0.5188510000000 1.0
C      1  0.4207630000000  0.4491170000000  0.5661580000000 1.0
C      1  0.4244710000000  0.5522180000000  0.4347430000000 1.0
C      1  0.5810360000000  0.4440990000000  0.5394820000000 1.0
C      1  0.5795890000000  0.5603800000000  0.4657570000000 1.0
C      1  0.4852010000000  0.4021950000000  0.4629500000000 1.0
C      1  0.4845350000000  0.5987790000000  0.5383800000000 1.0
C      1  0.4243470000000  0.5715620000000  0.4757500000000 1.0
C      1  0.4279090000000  0.4369400000000  0.5225380000000 1.0
C      1  0.5013540000000  0.6027980000000  0.4921620000000 1.0
C      1  0.5011860000000  0.4009540000000  0.5090100000000 1.0
C      1  0.4720770000000  0.4486150000000  0.5099940000000 1.0
C      1  0.4700770000000  0.5532380000000  0.4779040000000 1.0
C      1  0.4934670000000  0.5525630000000  0.4595810000000 1.0
C      1  0.5107570000000  0.4497860000000  0.5403720000000 1.0
C      1  0.4146350000000  0.4787590000000  0.4346320000000 1.0
C      1  0.4137840000000  0.5159220000000  0.5566340000000 1.0
C      1  0.5010960000000  0.5763640000000  0.5044500000000 1.0
C      1  0.4968100000000  0.4301570000000  0.4973340000000 1.0
C      1  0.3908620000000  0.4896000000000  0.5431180000000 1.0
C      1  0.3881360000000  0.5089660000000  0.4652710000000 1.0
C      1  0.5979960000000  0.5141710000000  0.4568510000000 1.0
C      1  0.6001140000000  0.4827240000000  0.5416680000000 1.0
C      1  0.4202960000000  0.4235400000000  0.4912430000000 1.0
C      1  0.4224900000000  0.5771170000000  0.5143060000000 1.0
C      1  0.5940880000000  0.5551990000000  0.4858080000000 1.0
C      1  0.5936420000000  0.4460240000000  0.5142710000000 1.0
C      1  0.4339510000000  0.5756060000000  0.4473650000000 1.0
C      1  0.4327700000000  0.4268530000000  0.5527680000000 1.0
C      1  0.5438480000000  0.4571570000000  0.4120000000000 1.0
C      1  0.5455890000000  0.5422770000000  0.5944780000000 1.0
C      1  0.5102820000000  0.5057980000000  0.4528320000000 1.0
C      1  0.5110390000000  0.5026420000000  0.5439580000000 1.0
C      1  0.5066920000000  0.5849230000000  0.4523320000000 1.0
C      1  0.5075470000000  0.4177480000000  0.5490650000000 1.0
C      1  0.4503040000000  0.4616010000000  0.5773810000000 1.0
C      1  0.4428530000000  0.5386410000000  0.4162730000000 1.0
C      1  0.4648670000000  0.5164710000000  0.4444880000000 1.0
C      1  0.4733150000000  0.4773750000000  0.5617880000000 1.0
C      1  0.4602180000000  0.5852130000000  0.4370440000000 1.0
C      1  0.4598400000000  0.4172390000000  0.5636550000000 1.0
C      1  0.4786050000000  0.4048270000000  0.5467690000000 1.0
C      1  0.4793450000000  0.5983900000000  0.4536400000000 1.0
C      1  0.5327040000000  0.5929370000000  0.5239620000000 1.0
C      1  0.5299270000000  0.4092060000000  0.4823650000000 1.0
C      1  0.5379720000000  0.5209550000000  0.4540930000000 1.0
C      1  0.5375480000000  0.4912170000000  0.5468620000000 1.0
C      1  0.4169920000000  0.4393700000000  0.4696780000000 1.0
C      1  0.4103200000000  0.5535360000000  0.5234410000000 1.0
C      1  0.4983860000000  0.4535310000000  0.4098780000000 1.0
C      1  0.5028860000000  0.5402310000000  0.5790050000000 1.0
C      1  0.5489580000000  0.4237750000000  0.4367840000000 1.0
C      1  0.5482540000000  0.5784270000000  0.5641910000000 1.0
C      1  0.3801460000000  0.5121990000000  0.4917780000000 1.0
C      1  0.3780890000000  0.4906530000000  0.5165580000000 1.0
C      1  0.5558370000000  0.5586640000000  0.5779840000000 1.0
C      1  0.5611830000000  0.4485050000000  0.4287960000000 1.0
C      1  0.5676200000000  0.5062390000000  0.5049850000000 1.0
C      1  0.5550440000000  0.4888980000000  0.4846450000000 1.0
C      1  0.4334330000000  0.5305650000000  0.5794020000000 1.0
C      1  0.4341830000000  0.4674120000000  0.4147260000000 1.0
C      1  0.5709620000000  0.5110790000000  0.5727150000000 1.0
C      1  0.5702180000000  0.4924910000000  0.4288240000000 1.0
C      1  0.4754550000000  0.6085470000000  0.4806350000000 1.0
C      1  0.4756220000000  0.3932070000000  0.5205430000000 1.0
C      1  0.4321580000000  0.5118490000000  0.4108220000000 1.0
C      1  0.4347890000000  0.4841320000000  0.5816090000000 1.0
C      1  0.4762000000000  0.5726260000000  0.4151950000000 1.0
C      1  0.4752980000000  0.4282740000000  0.5865720000000 1.0
C      1  0.4285830000000  0.4908650000000  0.5540340000000 1.0
C      1  0.4143970000000  0.5075450000000  0.4328570000000 1.0
C      1  0.4430780000000  0.5934450000000  0.5243980000000 1.0
C      1  0.4411920000000  0.4075930000000  0.4785470000000 1.0
C      1  0.5970590000000  0.5099310000000  0.5044480000000 1.0
C      1  0.6076090000000  0.4859200000000  0.4921330000000 1.0
C      1  0.4813310000000  0.4981830000000  0.3920660000000 1.0
C      1  0.4811050000000  0.5027990000000  0.6059740000000 1.0
C      1  0.5530290000000  0.3991970000000  0.4970350000000 1.0
C      1  0.5540940000000  0.6019440000000  0.5055320000000 1.0
C      1  0.4535870000000  0.5980090000000  0.4969380000000 1.0
C      1  0.4539410000000  0.4045050000000  0.5053080000000 1.0
C      1  0.4973190000000  0.5255520000000  0.4965940000000 1.0
C      1  0.5008760000000  0.4816960000000  0.4960870000000 1.0
C      1  0.4609950000000  0.5012450000000  0.4699770000000 1.0
C      1  0.4648010000000  0.4999430000000  0.5260600000000 1.0
C      1  0.4529830000000  0.4288250000000  0.5188410000000 1.0
C      1  0.4502040000000  0.5724320000000  0.4841740000000 1.0
C      1  0.5182620000000  0.4424780000000  0.6040950000000 1.0
C      1  0.5208230000000  0.5578930000000  0.3968500000000 1.0
C      1  0.5325160000000  0.4767250000000  0.3963650000000 1.0
C      1  0.5329020000000  0.5206260000000  0.6060010000000 1.0
C      1  0.5326920000000  0.5391000000000  0.5227170000000 1.0
C      1  0.5326950000000  0.4573990000000  0.4695640000000 1.0
C      1  0.4917520000000  0.5026340000000  0.4782220000000 1.0
C      1  0.4793180000000  0.4782200000000  0.5142420000000 1.0
C      1  0.4003780000000  0.4620700000000  0.5478440000000 1.0
C      1  0.4042360000000  0.5347830000000  0.4499140000000 1.0
C      1  0.6067730000000  0.4700490000000  0.5154890000000 1.0
C      1  0.6025440000000  0.5305450000000  0.4807950000000 1.0
C      1  0.4960320000000  0.5684710000000  0.5753200000000 1.0
C      1  0.4955200000000  0.4305090000000  0.4236830000000 1.0
C      1  0.5505130000000  0.5649900000000  0.4370280000000 1.0
C      1  0.5482350000000  0.4329730000000  0.5680120000000 1.0
C      1  0.5560270000000  0.5333980000000  0.5053760000000 1.0
C      1  0.5579070000000  0.4599880000000  0.4821620000000 1.0
C      1  0.5552040000000  0.5021720000000  0.5966510000000 1.0
C      1  0.5535460000000  0.4970530000000  0.4037300000000 1.0
C      1  0.5160340000000  0.5159740000000  0.5164280000000 1.0
C      1  0.5274610000000  0.4920770000000  0.5028880000000 1.0
C      1  0.5563270000000  0.5686910000000  0.4642040000000 1.0
C      1  0.5611370000000  0.4244980000000  0.5443470000000 1.0
C      1  0.4661360000000  0.5736940000000  0.5707700000000 1.0
C      1  0.4645020000000  0.4248730000000  0.4304960000000 1.0
C      1  0.5182660000000  0.4689550000000  0.6104560000000 1.0
C      1  0.5185520000000  0.5309470000000  0.3915460000000 1.0
C      1  0.5867560000000  0.5532430000000  0.5420230000000 1.0
C      1  0.5912980000000  0.4399160000000  0.4566350000000 1.0
C      1  0.5448910000000  0.5244690000000  0.4028390000000 1.0
C      1  0.5447480000000  0.4751570000000  0.5955170000000 1.0
C      1  0.5241280000000  0.4178420000000  0.5726310000000 1.0
C      1  0.5258170000000  0.5791990000000  0.4310380000000 1.0
C      1  0.6017380000000  0.4855570000000  0.4636590000000 1.0
C      1  0.6025070000000  0.5104210000000  0.5367080000000 1.0
C      1  0.4565660000000  0.4565360000000  0.4861470000000 1.0
C      1  0.4706640000000  0.5378180000000  0.5026080000000 1.0
C      1  0.4264680000000  0.5351900000000  0.5388410000000 1.0
C      1  0.4181540000000  0.4652890000000  0.4608900000000 1.0
C      1  0.4215450000000  0.5107480000000  0.5028500000000 1.0
C      1  0.4181230000000  0.4822790000000  0.5029170000000 1.0
C      1  0.5908560000000  0.4659850000000  0.4445770000000 1.0
C      1  0.5902360000000  0.5274330000000  0.5561440000000 1.0
C      1  0.5217560000000  0.4016280000000  0.5294160000000 1.0
C      1  0.5215400000000  0.6010680000000  0.4717980000000 1.0
C      1  0.5814680000000  0.4659340000000  0.5578630000000 1.0
C      1  0.5804740000000  0.5188120000000  0.4345240000000 1.0
C      1  0.5240310000000  0.4787270000000  0.4523930000000 1.0
C      1  0.5198030000000  0.5273100000000  0.5588720000000 1.0
C      1  0.5027450000000  0.5216710000000  0.6022490000000 1.0
C      1  0.5012290000000  0.4769880000000  0.3958270000000 1.0
C      1  0.5058800000000  0.5777380000000  0.4095660000000 1.0
C      1  0.5037620000000  0.4216730000000  0.5925160000000 1.0
END
