TITL C-2441160-1326-637 0.286729708298388 125000 -21966.6646452821 0 0 200 (C1) n - 1
REM
REM in /home/bkarasulu/work/CARBON/AIRSS/Generating-Clusters/ReaxFF-fromJPCA2015/Units_Real/with-SteepDescent/Higher-Symm
REM
REM
REM
REM
REM
REM ./C.cell (1df0a924f5614ab8850e4351716899ee)
REM
REM compiler GCC version 9.2.1 20190827 (Red Hat 9.2.1-1)
REM options -cpp -mtune=generic -march=x86-64 -g -O0 -fpre-include=/usr/include/finclude/math-vector-fortran.h
REM seed -1035940961 -2116892138 -1210162723 476881029 -713252640 -953654277 1607546731 616399158 -1044642618 2022413779 -797759159 -706901099 -1155222577 -1876521887 121816608 628123155 -2005800256 -1761032937 -2075348862 1723596396 2104892230 105160367 25360104 99146172 1523363162 -1644578909 1740905375 2025044546 1488527275 -2116402068 1975332222 -1519658718 1505391487
REM
CELL 1.54180   50.00000   50.00000   50.00000   90.00000   90.00000   90.00000
LATT -1
SFAC C  
C      1  0.3965660000000  0.4738190000000  0.4685390000000 1.0
C      1  0.4600720000000  0.4749760000000  0.3972600000000 1.0
C      1  0.5551320000000  0.4753140000000  0.4073220000000 1.0
C      1  0.6063800000000  0.4738200000000  0.4813990000000 1.0
C      1  0.5785690000000  0.4723410000000  0.5713330000000 1.0
C      1  0.4943610000000  0.4707510000000  0.6061130000000 1.0
C      1  0.4122640000000  0.4709370000000  0.5598320000000 1.0
C      1  0.5567460000000  0.4689390000000  0.5061470000000 1.0
C      1  0.5306520000000  0.4670930000000  0.5471260000000 1.0
C      1  0.4809680000000  0.4688760000000  0.5555430000000 1.0
C      1  0.4446630000000  0.4670500000000  0.5198510000000 1.0
C      1  0.4487860000000  0.4658340000000  0.4679290000000 1.0
C      1  0.4928130000000  0.4683340000000  0.4428260000000 1.0
C      1  0.5397900000000  0.4642090000000  0.4592700000000 1.0
C      1  0.4448410000000  0.5007720000000  0.5955690000000 1.0
C      1  0.3952670000000  0.4953110000000  0.5161310000000 1.0
C      1  0.4201240000000  0.4961860000000  0.4281380000000 1.0
C      1  0.5057610000000  0.4972010000000  0.3936620000000 1.0
C      1  0.5897870000000  0.4987640000000  0.4377140000000 1.0
C      1  0.6064130000000  0.5010220000000  0.5312660000000 1.0
C      1  0.5407480000000  0.4986180000000  0.6018830000000 1.0
C      1  0.4242740000000  0.4524290000000  0.4749160000000 1.0
C      1  0.4725090000000  0.4486770000000  0.4305060000000 1.0
C      1  0.5374090000000  0.4503650000000  0.4332960000000 1.0
C      1  0.5774530000000  0.4588160000000  0.4893270000000 1.0
C      1  0.5561690000000  0.4542670000000  0.5541620000000 1.0
C      1  0.4915760000000  0.4572830000000  0.5785790000000 1.0
C      1  0.4338890000000  0.4496320000000  0.5411080000000 1.0
C      1  0.5718590000000  0.5244500000000  0.5202830000000 1.0
C      1  0.5330620000000  0.5160320000000  0.5654360000000 1.0
C      1  0.4719800000000  0.5188210000000  0.5640630000000 1.0
C      1  0.4279550000000  0.5246780000000  0.5100510000000 1.0
C      1  0.4429160000000  0.5168980000000  0.4566160000000 1.0
C      1  0.4970140000000  0.5156460000000  0.4302230000000 1.0
C      1  0.5514160000000  0.5179740000000  0.4547290000000 1.0
C      1  0.5718270000000  0.5429440000000  0.5471130000000 1.0
C      1  0.5067760000000  0.5455750000000  0.5858810000000 1.0
C      1  0.4344210000000  0.5483780000000  0.5589280000000 1.0
C      1  0.4155340000000  0.5442980000000  0.4879890000000 1.0
C      1  0.4569540000000  0.5458610000000  0.4250560000000 1.0
C      1  0.5344840000000  0.5475430000000  0.4170130000000 1.0
C      1  0.5851720000000  0.5458790000000  0.4745710000000 1.0
C      1  0.4543720000000  0.5305000000000  0.5185890000000 1.0
C      1  0.4604110000000  0.5270630000000  0.4750420000000 1.0
C      1  0.4934500000000  0.5269760000000  0.4543310000000 1.0
C      1  0.5294420000000  0.5437410000000  0.4599850000000 1.0
C      1  0.5482440000000  0.5300940000000  0.5023460000000 1.0
C      1  0.5319400000000  0.5345350000000  0.5252600000000 1.0
C      1  0.4907020000000  0.5327110000000  0.5457570000000 1.0
C      1  0.5374970000000  0.5507000000000  0.4852100000000 1.0
C      1  0.5210280000000  0.5608000000000  0.5229260000000 1.0
C      1  0.5046670000000  0.5545440000000  0.5416600000000 1.0
C      1  0.4805090000000  0.5555230000000  0.5326750000000 1.0
C      1  0.4664260000000  0.5531980000000  0.5086840000000 1.0
C      1  0.4673130000000  0.5542140000000  0.4789520000000 1.0
C      1  0.4996380000000  0.5522260000000  0.4577970000000 1.0
C      1  0.5785050000000  0.5245350000000  0.5690710000000 1.0
C      1  0.4955930000000  0.5252430000000  0.6033750000000 1.0
C      1  0.4159080000000  0.5261060000000  0.5607860000000 1.0
C      1  0.3988920000000  0.5236930000000  0.4722090000000 1.0
C      1  0.4588400000000  0.5260710000000  0.4044510000000 1.0
C      1  0.5494760000000  0.5252590000000  0.4086920000000 1.0
C      1  0.6026720000000  0.5239770000000  0.4803830000000 1.0
C      1  0.4594560000000  0.5957550000000  0.4977530000000 1.0
C      1  0.4738090000000  0.5952400000000  0.4713270000000 1.0
C      1  0.5214250000000  0.5934910000000  0.4668700000000 1.0
C      1  0.5396610000000  0.5947280000000  0.4902510000000 1.0
C      1  0.5306500000000  0.5914630000000  0.5218610000000 1.0
C      1  0.5010240000000  0.5947520000000  0.5370380000000 1.0
C      1  0.4725490000000  0.5952810000000  0.5265750000000 1.0
C      1  0.4196130000000  0.4807460000000  0.5060930000000 1.0
C      1  0.4486640000000  0.4754190000000  0.4419290000000 1.0
C      1  0.5138770000000  0.4753540000000  0.4241280000000 1.0
C      1  0.5674760000000  0.4735800000000  0.4628220000000 1.0
C      1  0.5738090000000  0.4778590000000  0.5241380000000 1.0
C      1  0.5228060000000  0.4726450000000  0.5734840000000 1.0
C      1  0.4574860000000  0.4767200000000  0.5663870000000 1.0
C      1  0.4958110000000  0.5039990000000  0.5296940000000 1.0
C      1  0.4702600000000  0.5056700000000  0.5148450000000 1.0
C      1  0.4699250000000  0.5029070000000  0.4863640000000 1.0
C      1  0.4943750000000  0.5111480000000  0.4750830000000 1.0
C      1  0.5157630000000  0.4996630000000  0.4781110000000 1.0
C      1  0.5318960000000  0.5047990000000  0.4977330000000 1.0
C      1  0.5222820000000  0.5068260000000  0.5225800000000 1.0
C      1  0.6019280000000  0.5251300000000  0.5117050000000 1.0
C      1  0.5532520000000  0.5242820000000  0.5855920000000 1.0
C      1  0.4661990000000  0.5252680000000  0.5956080000000 1.0
C      1  0.4044480000000  0.5265480000000  0.5336100000000 1.0
C      1  0.4141760000000  0.5254100000000  0.4462810000000 1.0
C      1  0.4881540000000  0.5267380000000  0.3990860000000 1.0
C      1  0.5716520000000  0.5242870000000  0.4295720000000 1.0
C      1  0.4589270000000  0.4747800000000  0.5949700000000 1.0
C      1  0.3942300000000  0.4693850000000  0.5332960000000 1.0
C      1  0.4100160000000  0.4721500000000  0.4391030000000 1.0
C      1  0.4906210000000  0.4733210000000  0.3931160000000 1.0
C      1  0.5768080000000  0.4732230000000  0.4320020000000 1.0
C      1  0.6020300000000  0.4750050000000  0.5175260000000 1.0
C      1  0.5482090000000  0.4728800000000  0.5895380000000 1.0
C      1  0.5917100000000  0.5006580000000  0.5580440000000 1.0
C      1  0.5108370000000  0.5003010000000  0.6080320000000 1.0
C      1  0.4225730000000  0.5006820000000  0.5760950000000 1.0
C      1  0.3914360000000  0.4992600000000  0.4847460000000 1.0
C      1  0.4441210000000  0.4999390000000  0.4063590000000 1.0
C      1  0.5379310000000  0.4998590000000  0.3992540000000 1.0
C      1  0.6046620000000  0.5002970000000  0.4632930000000 1.0
C      1  0.3861770000000  0.4513100000000  0.4871290000000 1.0
C      1  0.4414050000000  0.4532060000000  0.4034550000000 1.0
C      1  0.5394750000000  0.4553390000000  0.3935320000000 1.0
C      1  0.6038450000000  0.4538540000000  0.4612220000000 1.0
C      1  0.5953110000000  0.4513490000000  0.5585670000000 1.0
C      1  0.5160320000000  0.4519510000000  0.6084910000000 1.0
C      1  0.4220310000000  0.4510300000000  0.5794010000000 1.0
C      1  0.4881900000000  0.4280900000000  0.5762210000000 1.0
C      1  0.4354480000000  0.4201820000000  0.5398410000000 1.0
C      1  0.4225760000000  0.4237900000000  0.4724990000000 1.0
C      1  0.4715970000000  0.4198160000000  0.4347070000000 1.0
C      1  0.5373940000000  0.4207020000000  0.4309380000000 1.0
C      1  0.5779560000000  0.4306520000000  0.4948770000000 1.0
C      1  0.5555050000000  0.4233560000000  0.5580610000000 1.0
C      1  0.4967460000000  0.4560260000000  0.4717160000000 1.0
C      1  0.5227650000000  0.4448460000000  0.4770840000000 1.0
C      1  0.5274230000000  0.4554950000000  0.5034440000000 1.0
C      1  0.5171390000000  0.4464910000000  0.5274620000000 1.0
C      1  0.4873900000000  0.4494090000000  0.5295230000000 1.0
C      1  0.4702080000000  0.4569620000000  0.5081920000000 1.0
C      1  0.4714480000000  0.4468460000000  0.4818900000000 1.0
C      1  0.5513940000000  0.4925240000000  0.4944110000000 1.0
C      1  0.5383900000000  0.4967970000000  0.5435720000000 1.0
C      1  0.4909950000000  0.4959920000000  0.5566610000000 1.0
C      1  0.4531400000000  0.4908770000000  0.5292280000000 1.0
C      1  0.4457740000000  0.4923490000000  0.4779710000000 1.0
C      1  0.4816870000000  0.4944010000000  0.4386950000000 1.0
C      1  0.5309340000000  0.4953400000000  0.4542530000000 1.0
C      1  0.5260980000000  0.4020180000000  0.4481550000000 1.0
C      1  0.5510270000000  0.4064320000000  0.4820490000000 1.0
C      1  0.5465020000000  0.4034490000000  0.5381800000000 1.0
C      1  0.5001460000000  0.4086350000000  0.5566960000000 1.0
C      1  0.4561480000000  0.4031180000000  0.5319300000000 1.0
C      1  0.4385310000000  0.4096280000000  0.4910390000000 1.0
C      1  0.4757580000000  0.4047460000000  0.4581210000000 1.0
C      1  0.5700620000000  0.4260820000000  0.4685850000000 1.0
C      1  0.5668180000000  0.4377150000000  0.5342760000000 1.0
C      1  0.5172170000000  0.4281230000000  0.5706960000000 1.0
C      1  0.4517490000000  0.4356070000000  0.5573780000000 1.0
C      1  0.4253420000000  0.4349180000000  0.4993180000000 1.0
C      1  0.4486920000000  0.4360330000000  0.4401600000000 1.0
C      1  0.5149900000000  0.4354440000000  0.4224520000000 1.0
C      1  0.5214410000000  0.4996970000000  0.4288810000000 1.0
C      1  0.5664280000000  0.5005260000000  0.4741420000000 1.0
C      1  0.5657240000000  0.4996460000000  0.5358380000000 1.0
C      1  0.5118410000000  0.4981280000000  0.5742070000000 1.0
C      1  0.4487760000000  0.5002190000000  0.5539010000000 1.0
C      1  0.4288870000000  0.4996650000000  0.4952650000000 1.0
C      1  0.4574080000000  0.4986780000000  0.4373430000000 1.0
C      1  0.5819060000000  0.5727490000000  0.5351560000000 1.0
C      1  0.5220150000000  0.5712940000000  0.5849800000000 1.0
C      1  0.4474460000000  0.5708530000000  0.5713660000000 1.0
C      1  0.4100540000000  0.5700660000000  0.5026870000000 1.0
C      1  0.4431390000000  0.5701840000000  0.4325440000000 1.0
C      1  0.5169450000000  0.5694720000000  0.4143650000000 1.0
C      1  0.5787390000000  0.5692090000000  0.4588270000000 1.0
C      1  0.5541620000000  0.5837280000000  0.5384260000000 1.0
C      1  0.5026460000000  0.5848300000000  0.5644360000000 1.0
C      1  0.4517330000000  0.5847640000000  0.5441240000000 1.0
C      1  0.4330510000000  0.5852280000000  0.4911330000000 1.0
C      1  0.4657760000000  0.5848380000000  0.4447330000000 1.0
C      1  0.5263880000000  0.5835070000000  0.4391440000000 1.0
C      1  0.5652200000000  0.5847880000000  0.4813180000000 1.0
C      1  0.4630110000000  0.5552140000000  0.5890760000000 1.0
C      1  0.4066410000000  0.5558600000000  0.5273330000000 1.0
C      1  0.4220380000000  0.5550530000000  0.4453290000000 1.0
C      1  0.4938760000000  0.5551160000000  0.4056170000000 1.0
C      1  0.5719790000000  0.5540630000000  0.4363520000000 1.0
C      1  0.5956450000000  0.5570610000000  0.5161060000000 1.0
C      1  0.5464500000000  0.5567970000000  0.5840460000000 1.0
C      1  0.4738920000000  0.4013280000000  0.5099690000000 1.0
C      1  0.4666300000000  0.4136550000000  0.4845590000000 1.0
C      1  0.5022620000000  0.3994240000000  0.4617520000000 1.0
C      1  0.5238640000000  0.4146060000000  0.4752200000000 1.0
C      1  0.5420610000000  0.4034210000000  0.5096840000000 1.0
C      1  0.5220920000000  0.4153800000000  0.5274220000000 1.0
C      1  0.4822980000000  0.4160550000000  0.5336160000000 1.0
C      1  0.4250490000000  0.4482390000000  0.4281800000000 1.0
C      1  0.5097680000000  0.4485270000000  0.3968280000000 1.0
C      1  0.5835660000000  0.4422560000000  0.4463060000000 1.0
C      1  0.5941740000000  0.4441440000000  0.5291380000000 1.0
C      1  0.5350890000000  0.4406890000000  0.5909770000000 1.0
C      1  0.4506810000000  0.4439900000000  0.5849880000000 1.0
C      1  0.3977320000000  0.4472140000000  0.5132840000000 1.0
C      1  0.4335030000000  0.5629730000000  0.5345250000000 1.0
C      1  0.4351950000000  0.5618900000000  0.4717100000000 1.0
C      1  0.4824290000000  0.5618630000000  0.4335850000000 1.0
C      1  0.5438480000000  0.5604600000000  0.4406210000000 1.0
C      1  0.5737640000000  0.5609300000000  0.4976020000000 1.0
C      1  0.5487660000000  0.5602090000000  0.5554940000000 1.0
C      1  0.4857330000000  0.5616380000000  0.5737850000000 1.0
C      1  0.5051210000000  0.4754870000000  0.4945220000000 1.0
C      1  0.4988900000000  0.5869910000000  0.4837880000000 1.0
C      1  0.5104290000000  0.5578720000000  0.4959300000000 1.0
C      1  0.4980880000000  0.5309700000000  0.4959150000000 1.0
END
