TITL C-2441168-9922-922 -0.00224999014815084 125000 -3444.23953743018 0 0 27 (C1) n - 1
REM
REM in /home/bkarasulu/work/CARBON/AIRSS/Generating-Clusters/ReaxFF-fromJPCA2015/Units_Real/with-SteepDescent/Higher-Symm
REM
REM
REM
REM
REM
REM ./C.cell (1df0a924f5614ab8850e4351716899ee)
REM
REM compiler GCC version 9.2.1 20190827 (Red Hat 9.2.1-1)
REM options -cpp -mtune=generic -march=x86-64 -g -O0 -fpre-include=/usr/include/finclude/math-vector-fortran.h
REM seed -617636445 -525201235 -1578264756 -939352513 37044825 -2057059245 1632256096 -1680949794 1724488696 1918268951 960129699 -1201199349 -231574665 -1723050827 -149846077 -329053960 -1160973616 1401410476 -60963890 1398919994 1630811492 1069042559 1784612654 -407511352 516630003 1153809508 615319797 -1249619947 -28634905 -1536381538 1169418436 -1555199548 -1728287502
REM
CELL 1.54180   50.00000   50.00000   50.00000   90.00000   90.00000   90.00000
LATT -1
SFAC C  
C      1  0.5057280000000  0.4808060000000  0.5521190000000 1.0
C      1  0.4727280000000  0.5249530000000  0.5454910000000 1.0
C      1  0.4500170000000  0.4811670000000  0.5099470000000 1.0
C      1  0.4576420000000  0.5180490000000  0.4730960000000 1.0
C      1  0.4939540000000  0.4831440000000  0.4520320000000 1.0
C      1  0.5294730000000  0.5248430000000  0.4590560000000 1.0
C      1  0.5452170000000  0.4831200000000  0.4947110000000 1.0
C      1  0.5405370000000  0.5245040000000  0.5279540000000 1.0
C      1  0.5456000000000  0.5130040000000  0.5029350000000 1.0
C      1  0.5190150000000  0.4879890000000  0.5239010000000 1.0
C      1  0.4999220000000  0.5127050000000  0.5481310000000 1.0
C      1  0.4783510000000  0.4882560000000  0.5236970000000 1.0
C      1  0.4533250000000  0.5130190000000  0.5042860000000 1.0
C      1  0.4757700000000  0.4890290000000  0.4778550000000 1.0
C      1  0.5011560000000  0.5149500000000  0.4569950000000 1.0
C      1  0.5188210000000  0.4885510000000  0.4827980000000 1.0
C      1  0.5282340000000  0.5318670000000  0.4884890000000 1.0
C      1  0.5306310000000  0.4643940000000  0.5119750000000 1.0
C      1  0.5137330000000  0.5322910000000  0.5295600000000 1.0
C      1  0.4895160000000  0.4622780000000  0.5309450000000 1.0
C      1  0.4729800000000  0.5344840000000  0.5164680000000 1.0
C      1  0.4715120000000  0.4637930000000  0.4920920000000 1.0
C      1  0.4867070000000  0.5323860000000  0.4755240000000 1.0
C      1  0.5079820000000  0.4632910000000  0.4732490000000 1.0
C      1  0.4983570000000  0.5423990000000  0.5015840000000 1.0
C      1  0.4990570000000  0.4534290000000  0.5033670000000 1.0
C      1  0.4991070000000  0.4980630000000  0.5040860000000 1.0
END
