TITL C-2441167-4473-1380 0.0138679082723715 125000 -7649.56447166376 0 0 57 (C1) n - 1
REM
REM in /home/bkarasulu/work/CARBON/AIRSS/Generating-Clusters/ReaxFF-fromJPCA2015/Units_Real/with-SteepDescent/Higher-Symm
REM
REM
REM
REM
REM
REM ./C.cell (1df0a924f5614ab8850e4351716899ee)
REM
REM compiler GCC version 9.2.1 20190827 (Red Hat 9.2.1-1)
REM options -cpp -mtune=generic -march=x86-64 -g -O0 -fpre-include=/usr/include/finclude/math-vector-fortran.h
REM seed -1536268229 397756010 125637915 1014653835 -1259360501 -1538685535 912264745 746673151 -313415384 1415084017 -679772680 1909219135 1275783217 -823964597 -14489907 629514459 1747354046 -390075892 180193027 1807944804 1525560118 1945765697 583633647 -972553829 452221004 156307566 -899692257 391196776 -2017555216 1952581676 -1232006948 -253922847 17173932
REM
CELL 1.54180   50.00000   50.00000   50.00000   90.00000   90.00000   90.00000
LATT -1
SFAC C  
C      1  0.5286820000000  0.4538790000000  0.5411140000000 1.0
C      1  0.4552460000000  0.5000300000000  0.5398440000000 1.0
C      1  0.5293920000000  0.5466630000000  0.5354100000000 1.0
C      1  0.4996650000000  0.5196310000000  0.4382780000000 1.0
C      1  0.5101490000000  0.4921820000000  0.4392630000000 1.0
C      1  0.4820140000000  0.4938350000000  0.4388840000000 1.0
C      1  0.4847930000000  0.4423940000000  0.4685200000000 1.0
C      1  0.4588580000000  0.5397080000000  0.4738170000000 1.0
C      1  0.5565070000000  0.5157530000000  0.4799820000000 1.0
C      1  0.5421030000000  0.5596690000000  0.4856790000000 1.0
C      1  0.5246820000000  0.4321590000000  0.4899140000000 1.0
C      1  0.4274370000000  0.5090850000000  0.4887820000000 1.0
C      1  0.4409400000000  0.4734050000000  0.5262750000000 1.0
C      1  0.5102910000000  0.5682340000000  0.5276570000000 1.0
C      1  0.5554820000000  0.4575460000000  0.5262460000000 1.0
C      1  0.4384210000000  0.5289280000000  0.5435780000000 1.0
C      1  0.5564620000000  0.5388320000000  0.5270350000000 1.0
C      1  0.5075270000000  0.4333830000000  0.5430150000000 1.0
C      1  0.5299830000000  0.4721570000000  0.4524610000000 1.0
C      1  0.4576210000000  0.4798030000000  0.4496860000000 1.0
C      1  0.5031530000000  0.5460010000000  0.4505380000000 1.0
C      1  0.5047810000000  0.5201980000000  0.4909500000000 1.0
C      1  0.5274060000000  0.4874410000000  0.5008080000000 1.0
C      1  0.4848260000000  0.4979150000000  0.4921530000000 1.0
C      1  0.4955690000000  0.4370280000000  0.4952010000000 1.0
C      1  0.4412780000000  0.5348500000000  0.4956800000000 1.0
C      1  0.5597610000000  0.5388550000000  0.4980590000000 1.0
C      1  0.5325680000000  0.4443440000000  0.4642470000000 1.0
C      1  0.4404750000000  0.4994850000000  0.4637640000000 1.0
C      1  0.5302580000000  0.5485920000000  0.4602280000000 1.0
C      1  0.5086100000000  0.4539210000000  0.4565180000000 1.0
C      1  0.4661130000000  0.5122900000000  0.4718220000000 1.0
C      1  0.5287640000000  0.5217830000000  0.4721830000000 1.0
C      1  0.4722240000000  0.5063720000000  0.5167000000000 1.0
C      1  0.5145650000000  0.5240530000000  0.5249250000000 1.0
C      1  0.5119430000000  0.4736990000000  0.5214020000000 1.0
C      1  0.5043710000000  0.5129560000000  0.5505370000000 1.0
C      1  0.5019090000000  0.4848780000000  0.5498680000000 1.0
C      1  0.4793630000000  0.5008940000000  0.5573070000000 1.0
C      1  0.5724050000000  0.4848390000000  0.5265040000000 1.0
C      1  0.4531880000000  0.4461930000000  0.5226890000000 1.0
C      1  0.4785970000000  0.5693790000000  0.5260150000000 1.0
C      1  0.4521900000000  0.4484460000000  0.4943970000000 1.0
C      1  0.4818940000000  0.5694190000000  0.4981790000000 1.0
C      1  0.5725810000000  0.4834470000000  0.4987760000000 1.0
C      1  0.5451560000000  0.4456830000000  0.5033100000000 1.0
C      1  0.4341090000000  0.4863890000000  0.5032230000000 1.0
C      1  0.5206670000000  0.5689480000000  0.5015730000000 1.0
C      1  0.4583110000000  0.4551200000000  0.4675270000000 1.0
C      1  0.4868820000000  0.5480980000000  0.4779060000000 1.0
C      1  0.5501370000000  0.4853030000000  0.4807420000000 1.0
C      1  0.5595740000000  0.5103970000000  0.5346530000000 1.0
C      1  0.4814610000000  0.4461880000000  0.5332700000000 1.0
C      1  0.4597080000000  0.5477550000000  0.5397310000000 1.0
C      1  0.5351200000000  0.5060180000000  0.5201120000000 1.0
C      1  0.4893230000000  0.4622080000000  0.5095280000000 1.0
C      1  0.4645040000000  0.5333380000000  0.5135330000000 1.0
END
