TITL C-2441169-1362-201 0.162455231289749 125000 -23397.2056836847 0 0 182 (C1) n - 1
REM
REM in /home/bkarasulu/work/CARBON/AIRSS/Generating-Clusters/ReaxFF-fromJPCA2015/Units_Real/with-SteepDescent/Higher-Symm
REM
REM
REM
REM
REM
REM ./C.cell (1df0a924f5614ab8850e4351716899ee)
REM
REM compiler GCC version 9.2.1 20190827 (Red Hat 9.2.1-1)
REM options -cpp -mtune=generic -march=x86-64 -g -O0 -fpre-include=/usr/include/finclude/math-vector-fortran.h
REM seed -755276100 816636463 -1319141262 1956234411 109453366 419595161 -680499043 -134588808 2056672909 1359692269 -1049232738 2129537402 1400831787 -32390971 -147520780 -270267566 390680795 -1580519740 -1109811708 -1136345706 1375769179 896257877 -2126337705 -1592449399 -253593972 -770745961 -1007961958 144720330 -1684602480 -1972038488 1068997328 1284854707 -1639838758
REM
CELL 1.54180   50.00000   50.00000   50.00000   90.00000   90.00000   90.00000
LATT -1
SFAC C  
C      1  0.5594420000000  0.5675320000000  0.5661770000000 1.0
C      1  0.5658150000000  0.5156070000000  0.4125050000000 1.0
C      1  0.5585160000000  0.4088800000000  0.5261970000000 1.0
C      1  0.5458520000000  0.5247060000000  0.5619070000000 1.0
C      1  0.5360470000000  0.5249760000000  0.4387770000000 1.0
C      1  0.5388450000000  0.4342000000000  0.4948290000000 1.0
C      1  0.5652210000000  0.4626180000000  0.4272940000000 1.0
C      1  0.5629450000000  0.4593180000000  0.5680530000000 1.0
C      1  0.5623670000000  0.5789280000000  0.5047700000000 1.0
C      1  0.5333120000000  0.4746180000000  0.4011110000000 1.0
C      1  0.5336220000000  0.4285480000000  0.5710920000000 1.0
C      1  0.5334650000000  0.5983870000000  0.5278470000000 1.0
C      1  0.5044540000000  0.5766660000000  0.4810740000000 1.0
C      1  0.5038640000000  0.4483130000000  0.4484390000000 1.0
C      1  0.5074210000000  0.4846350000000  0.5661890000000 1.0
C      1  0.5231310000000  0.4196720000000  0.4238250000000 1.0
C      1  0.5183710000000  0.4664240000000  0.6040610000000 1.0
C      1  0.5254540000000  0.6080800000000  0.4705310000000 1.0
C      1  0.5419660000000  0.5290940000000  0.6014350000000 1.0
C      1  0.5377970000000  0.5677590000000  0.4289730000000 1.0
C      1  0.5401560000000  0.3987540000000  0.4748930000000 1.0
C      1  0.4620350000000  0.5912050000000  0.4926900000000 1.0
C      1  0.4595320000000  0.4481150000000  0.4297800000000 1.0
C      1  0.4612280000000  0.4655410000000  0.5803820000000 1.0
C      1  0.4867030000000  0.4987880000000  0.5287850000000 1.0
C      1  0.4833280000000  0.5479800000000  0.4980170000000 1.0
C      1  0.5111050000000  0.4808100000000  0.4758850000000 1.0
C      1  0.4345370000000  0.5422280000000  0.4323850000000 1.0
C      1  0.4319550000000  0.4058160000000  0.4998210000000 1.0
C      1  0.4391330000000  0.5484720000000  0.5779320000000 1.0
C      1  0.4386260000000  0.5204410000000  0.5832370000000 1.0
C      1  0.4370910000000  0.5761570000000  0.4559560000000 1.0
C      1  0.4359680000000  0.4160390000000  0.4737170000000 1.0
C      1  0.5476740000000  0.5007240000000  0.5965980000000 1.0
C      1  0.5445430000000  0.5821200000000  0.4561450000000 1.0
C      1  0.5442520000000  0.4197360000000  0.4499090000000 1.0
C      1  0.4903290000000  0.5831100000000  0.4343250000000 1.0
C      1  0.4922630000000  0.3975010000000  0.4631470000000 1.0
C      1  0.4944310000000  0.5169400000000  0.6048040000000 1.0
C      1  0.4071260000000  0.5522820000000  0.5039580000000 1.0
C      1  0.4049370000000  0.4770000000000  0.4516770000000 1.0
C      1  0.4028470000000  0.4689590000000  0.5345960000000 1.0
C      1  0.5421470000000  0.4524060000000  0.5843130000000 1.0
C      1  0.5439120000000  0.5978590000000  0.5015680000000 1.0
C      1  0.5442250000000  0.4514930000000  0.4129140000000 1.0
C      1  0.5432780000000  0.5026560000000  0.4016030000000 1.0
C      1  0.5383900000000  0.4170400000000  0.5455550000000 1.0
C      1  0.5319540000000  0.5754290000000  0.5468600000000 1.0
C      1  0.5067340000000  0.4435850000000  0.4191450000000 1.0
C      1  0.4966370000000  0.4531640000000  0.5940720000000 1.0
C      1  0.5043320000000  0.6032350000000  0.4907240000000 1.0
C      1  0.5038030000000  0.5543700000000  0.5174630000000 1.0
C      1  0.4897850000000  0.4927050000000  0.4370320000000 1.0
C      1  0.4909840000000  0.4546750000000  0.5356230000000 1.0
C      1  0.5832840000000  0.5319850000000  0.4543620000000 1.0
C      1  0.5927450000000  0.4496750000000  0.4971780000000 1.0
C      1  0.5976280000000  0.5231280000000  0.5497800000000 1.0
C      1  0.4850880000000  0.4188770000000  0.5629760000000 1.0
C      1  0.4856520000000  0.5958230000000  0.5386660000000 1.0
C      1  0.4851100000000  0.4814130000000  0.3965600000000 1.0
C      1  0.5053790000000  0.4300750000000  0.5788930000000 1.0
C      1  0.5060520000000  0.6036330000000  0.5205310000000 1.0
C      1  0.5066400000000  0.4704850000000  0.4090660000000 1.0
C      1  0.5814500000000  0.4995100000000  0.5594770000000 1.0
C      1  0.5837240000000  0.5530320000000  0.4761360000000 1.0
C      1  0.5756970000000  0.4505700000000  0.4718520000000 1.0
C      1  0.5030820000000  0.4318220000000  0.5236960000000 1.0
C      1  0.5059620000000  0.5599070000000  0.5460350000000 1.0
C      1  0.5078140000000  0.5156490000000  0.4355680000000 1.0
C      1  0.4674240000000  0.4173540000000  0.4669040000000 1.0
C      1  0.4693110000000  0.5124050000000  0.5854950000000 1.0
C      1  0.4657200000000  0.5702960000000  0.4492100000000 1.0
C      1  0.4319680000000  0.4987190000000  0.5144470000000 1.0
C      1  0.4309970000000  0.5113650000000  0.4913020000000 1.0
C      1  0.4304700000000  0.4733980000000  0.5002470000000 1.0
C      1  0.5803740000000  0.5045750000000  0.5204770000000 1.0
C      1  0.5742920000000  0.5118050000000  0.4950630000000 1.0
C      1  0.5868420000000  0.4871750000000  0.4858280000000 1.0
C      1  0.4758700000000  0.4402870000000  0.4509100000000 1.0
C      1  0.4799650000000  0.4862390000000  0.5742870000000 1.0
C      1  0.4774640000000  0.5707850000000  0.4793410000000 1.0
C      1  0.4407430000000  0.5759790000000  0.5490520000000 1.0
C      1  0.4438950000000  0.5086550000000  0.4065500000000 1.0
C      1  0.4412770000000  0.4139610000000  0.5393370000000 1.0
C      1  0.4586540000000  0.5699920000000  0.5702620000000 1.0
C      1  0.4676980000000  0.5226540000000  0.4007990000000 1.0
C      1  0.4628270000000  0.4057570000000  0.5204120000000 1.0
C      1  0.4025080000000  0.4599280000000  0.4765150000000 1.0
C      1  0.4037980000000  0.4959000000000  0.5461710000000 1.0
C      1  0.4052660000000  0.5416380000000  0.4761610000000 1.0
C      1  0.4358050000000  0.5867410000000  0.4827610000000 1.0
C      1  0.4324520000000  0.4469480000000  0.4391300000000 1.0
C      1  0.4326910000000  0.4738890000000  0.5737360000000 1.0
C      1  0.6097330000000  0.4714610000000  0.4924930000000 1.0
C      1  0.6104000000000  0.5068540000000  0.5283630000000 1.0
C      1  0.6063440000000  0.5160260000000  0.4639460000000 1.0
C      1  0.5457080000000  0.4746150000000  0.5068350000000 1.0
C      1  0.5318590000000  0.5171300000000  0.5245280000000 1.0
C      1  0.5469360000000  0.5118400000000  0.4796200000000 1.0
C      1  0.5767090000000  0.4922780000000  0.4251970000000 1.0
C      1  0.5686320000000  0.4448320000000  0.5390920000000 1.0
C      1  0.5671260000000  0.5594280000000  0.5326850000000 1.0
C      1  0.4868990000000  0.5775990000000  0.5651390000000 1.0
C      1  0.4880150000000  0.5117660000000  0.3930950000000 1.0
C      1  0.4901460000000  0.4068530000000  0.5332860000000 1.0
C      1  0.5129090000000  0.3930010000000  0.4848270000000 1.0
C      1  0.5130510000000  0.5393860000000  0.5977540000000 1.0
C      1  0.5089400000000  0.5621420000000  0.4234520000000 1.0
C      1  0.5543880000000  0.4101470000000  0.4971140000000 1.0
C      1  0.5577150000000  0.5421800000000  0.5807920000000 1.0
C      1  0.5537080000000  0.5443130000000  0.4244560000000 1.0
C      1  0.5100570000000  0.3911880000000  0.5138350000000 1.0
C      1  0.5091750000000  0.5664140000000  0.5860740000000 1.0
C      1  0.5040820000000  0.5387010000000  0.3985160000000 1.0
C      1  0.4738650000000  0.5296540000000  0.5614990000000 1.0
C      1  0.4637130000000  0.5413900000000  0.4420150000000 1.0
C      1  0.4697660000000  0.4221720000000  0.4966870000000 1.0
C      1  0.4074140000000  0.5126100000000  0.4739200000000 1.0
C      1  0.4007700000000  0.4681400000000  0.5043590000000 1.0
C      1  0.4063320000000  0.5153350000000  0.5249460000000 1.0
C      1  0.5290170000000  0.5267320000000  0.3974900000000 1.0
C      1  0.5334330000000  0.3935670000000  0.5298540000000 1.0
C      1  0.5334890000000  0.5783070000000  0.5765380000000 1.0
C      1  0.5065530000000  0.5149980000000  0.5388810000000 1.0
C      1  0.4996850000000  0.5322670000000  0.4758130000000 1.0
C      1  0.4956940000000  0.4610610000000  0.4898990000000 1.0
C      1  0.5291650000000  0.4374220000000  0.4673980000000 1.0
C      1  0.5311550000000  0.5013020000000  0.5726750000000 1.0
C      1  0.5274260000000  0.5641170000000  0.4712390000000 1.0
C      1  0.4366570000000  0.5893000000000  0.5259960000000 1.0
C      1  0.4375800000000  0.4799340000000  0.4084490000000 1.0
C      1  0.4383640000000  0.4335650000000  0.5601570000000 1.0
C      1  0.4952240000000  0.5395380000000  0.4449610000000 1.0
C      1  0.4959480000000  0.4345410000000  0.4965950000000 1.0
C      1  0.5014270000000  0.5335330000000  0.5595420000000 1.0
C      1  0.5676590000000  0.4401730000000  0.4460660000000 1.0
C      1  0.5692430000000  0.4847440000000  0.5814100000000 1.0
C      1  0.5686190000000  0.5775230000000  0.4760870000000 1.0
C      1  0.4521610000000  0.4723070000000  0.4748850000000 1.0
C      1  0.4553090000000  0.4960250000000  0.5357850000000 1.0
C      1  0.4495520000000  0.5296770000000  0.4878130000000 1.0
C      1  0.4223080000000  0.5005810000000  0.5703840000000 1.0
C      1  0.4182120000000  0.5545530000000  0.4529950000000 1.0
C      1  0.4275320000000  0.4446300000000  0.4684630000000 1.0
C      1  0.5319710000000  0.4872170000000  0.5267690000000 1.0
C      1  0.5279890000000  0.5369830000000  0.4820360000000 1.0
C      1  0.5377180000000  0.4848290000000  0.4819340000000 1.0
C      1  0.4625500000000  0.4638270000000  0.5291450000000 1.0
C      1  0.4606490000000  0.5389670000000  0.5119330000000 1.0
C      1  0.4619550000000  0.4925480000000  0.4557980000000 1.0
C      1  0.5568910000000  0.5171900000000  0.4539790000000 1.0
C      1  0.5521690000000  0.4491640000000  0.5149180000000 1.0
C      1  0.5524190000000  0.5337520000000  0.5373600000000 1.0
C      1  0.5079630000000  0.4753000000000  0.4497400000000 1.0
C      1  0.5143110000000  0.4709920000000  0.5426760000000 1.0
C      1  0.5259050000000  0.5398310000000  0.5087140000000 1.0
C      1  0.4642520000000  0.4356750000000  0.5741600000000 1.0
C      1  0.4633230000000  0.5974840000000  0.5204220000000 1.0
C      1  0.4627100000000  0.4667770000000  0.4064760000000 1.0
C      1  0.4256850000000  0.4268270000000  0.5187680000000 1.0
C      1  0.4243430000000  0.5547910000000  0.5539440000000 1.0
C      1  0.4249970000000  0.5165980000000  0.4265230000000 1.0
C      1  0.4383970000000  0.4524550000000  0.5187060000000 1.0
C      1  0.4174430000000  0.5411950000000  0.5288200000000 1.0
C      1  0.4222190000000  0.5007420000000  0.4509790000000 1.0
C      1  0.4189690000000  0.4554820000000  0.5565750000000 1.0
C      1  0.4190720000000  0.5792900000000  0.5052840000000 1.0
C      1  0.4179880000000  0.4675290000000  0.4264040000000 1.0
C      1  0.4581260000000  0.5259050000000  0.5378360000000 1.0
C      1  0.4595570000000  0.5200140000000  0.4626450000000 1.0
C      1  0.4709290000000  0.4720390000000  0.4970960000000 1.0
C      1  0.5917550000000  0.5445000000000  0.5277070000000 1.0
C      1  0.5964980000000  0.4925990000000  0.4465020000000 1.0
C      1  0.5897950000000  0.4591460000000  0.5261710000000 1.0
C      1  0.5052230000000  0.4911860000000  0.6074460000000 1.0
C      1  0.5064080000000  0.6002880000000  0.4500640000000 1.0
C      1  0.5051930000000  0.4057470000000  0.4405750000000 1.0
C      1  0.5895440000000  0.5376010000000  0.4996590000000 1.0
C      1  0.5769100000000  0.4774520000000  0.4634810000000 1.0
C      1  0.5762570000000  0.4838920000000  0.5360230000000 1.0
C      1  0.4970720000000  0.5055390000000  0.4826940000000 1.0
C      1  0.4803260000000  0.4978370000000  0.5024190000000 1.0
END
