TITL C-2441164-471-372 0.0835051911169545 125000 -24891.326351498 0 0 175 (C1) n - 1
REM
REM in /home/bkarasulu/work/CARBON/AIRSS/Generating-Clusters/ReaxFF-fromJPCA2015/Units_Real/with-SteepDescent/Higher-Symm
REM
REM
REM
REM
REM
REM ./C.cell (1df0a924f5614ab8850e4351716899ee)
REM
REM compiler GCC version 9.2.1 20190827 (Red Hat 9.2.1-1)
REM options -cpp -mtune=generic -march=x86-64 -g -O0 -fpre-include=/usr/include/finclude/math-vector-fortran.h
REM seed -2094930027 1054047477 -909389948 -1973728337 -1260510466 660122058 -737277391 1663078281 -251716421 -1728904374 87923714 85998474 1505013173 321793239 2017061003 868577444 -273091255 -1788398674 1681847760 -1107032049 -541191760 1235601335 -291633829 2073715029 953020628 -990147475 22293561 1276556878 1246352973 484273718 837746478 -652682138 -958639513
REM
CELL 1.54180   50.00000   50.00000   50.00000   90.00000   90.00000   90.00000
LATT -1
SFAC C  
C      1  0.5532060000000  0.4029320000000  0.4854870000000 1.0
C      1  0.5480000000000  0.4572190000000  0.4289100000000 1.0
C      1  0.5617700000000  0.5338360000000  0.4158500000000 1.0
C      1  0.5552510000000  0.5896520000000  0.4711220000000 1.0
C      1  0.5584000000000  0.5727650000000  0.5532880000000 1.0
C      1  0.5552640000000  0.5048310000000  0.5954100000000 1.0
C      1  0.5545840000000  0.4325610000000  0.5608020000000 1.0
C      1  0.4349550000000  0.5218570000000  0.5844980000000 1.0
C      1  0.4365220000000  0.4484370000000  0.5699980000000 1.0
C      1  0.4408410000000  0.4186980000000  0.5030360000000 1.0
C      1  0.4352900000000  0.4442800000000  0.4343590000000 1.0
C      1  0.4331160000000  0.5128840000000  0.4162870000000 1.0
C      1  0.4340050000000  0.5736230000000  0.4595390000000 1.0
C      1  0.4316390000000  0.5755300000000  0.5369370000000 1.0
C      1  0.5735990000000  0.4391460000000  0.5403990000000 1.0
C      1  0.5788350000000  0.4186540000000  0.4871520000000 1.0
C      1  0.5723600000000  0.4729930000000  0.4338760000000 1.0
C      1  0.5802030000000  0.5359240000000  0.4371520000000 1.0
C      1  0.5792800000000  0.5756130000000  0.4832890000000 1.0
C      1  0.5754290000000  0.5502550000000  0.5495680000000 1.0
C      1  0.5775390000000  0.5026790000000  0.5758380000000 1.0
C      1  0.5134990000000  0.5384400000000  0.4064360000000 1.0
C      1  0.5046480000000  0.5909110000000  0.4686920000000 1.0
C      1  0.5137830000000  0.5860820000000  0.5576970000000 1.0
C      1  0.5083010000000  0.5088200000000  0.6031190000000 1.0
C      1  0.5086390000000  0.4251530000000  0.5691610000000 1.0
C      1  0.5069780000000  0.4069630000000  0.4817940000000 1.0
C      1  0.5095070000000  0.4474090000000  0.4113170000000 1.0
C      1  0.5177150000000  0.4578540000000  0.4724630000000 1.0
C      1  0.5086680000000  0.4892770000000  0.4331960000000 1.0
C      1  0.5020720000000  0.5368550000000  0.4614950000000 1.0
C      1  0.5106350000000  0.5598910000000  0.5043940000000 1.0
C      1  0.5132360000000  0.5371440000000  0.5449930000000 1.0
C      1  0.5140150000000  0.4876580000000  0.5573750000000 1.0
C      1  0.5092890000000  0.4494060000000  0.5216430000000 1.0
C      1  0.4072220000000  0.4877740000000  0.5558100000000 1.0
C      1  0.4086090000000  0.4498330000000  0.5255020000000 1.0
C      1  0.4129630000000  0.4530510000000  0.4780940000000 1.0
C      1  0.4038250000000  0.4851490000000  0.4447700000000 1.0
C      1  0.4048280000000  0.5330520000000  0.4558290000000 1.0
C      1  0.4046160000000  0.5551170000000  0.4993010000000 1.0
C      1  0.4040130000000  0.5343200000000  0.5451000000000 1.0
C      1  0.4473150000000  0.5681360000000  0.5604860000000 1.0
C      1  0.4495260000000  0.4964760000000  0.5899680000000 1.0
C      1  0.4516530000000  0.4274230000000  0.5553410000000 1.0
C      1  0.4543150000000  0.4136210000000  0.4762130000000 1.0
C      1  0.4545890000000  0.4621130000000  0.4212090000000 1.0
C      1  0.4494170000000  0.5372730000000  0.4206670000000 1.0
C      1  0.4499340000000  0.5865410000000  0.4797670000000 1.0
C      1  0.5477780000000  0.5291450000000  0.5820190000000 1.0
C      1  0.5550920000000  0.4529940000000  0.5836580000000 1.0
C      1  0.5456360000000  0.4144750000000  0.5093760000000 1.0
C      1  0.5579620000000  0.4304470000000  0.4388850000000 1.0
C      1  0.5602100000000  0.5058620000000  0.4063310000000 1.0
C      1  0.5587460000000  0.5807210000000  0.4452770000000 1.0
C      1  0.5558770000000  0.5824170000000  0.5251850000000 1.0
C      1  0.5806880000000  0.4861650000000  0.4105620000000 1.0
C      1  0.5742540000000  0.5600640000000  0.4451400000000 1.0
C      1  0.5826050000000  0.5860310000000  0.5106730000000 1.0
C      1  0.5746980000000  0.5321420000000  0.5717120000000 1.0
C      1  0.5766630000000  0.4712730000000  0.5885550000000 1.0
C      1  0.5697900000000  0.4259400000000  0.5148580000000 1.0
C      1  0.5742010000000  0.4278570000000  0.4615390000000 1.0
C      1  0.5801760000000  0.4852450000000  0.4620730000000 1.0
C      1  0.5822810000000  0.5195300000000  0.4627420000000 1.0
C      1  0.5830650000000  0.5450540000000  0.4869580000000 1.0
C      1  0.5765710000000  0.5403730000000  0.5202110000000 1.0
C      1  0.5767820000000  0.4942100000000  0.5476260000000 1.0
C      1  0.5858890000000  0.4656220000000  0.5418060000000 1.0
C      1  0.5731830000000  0.4700920000000  0.4864380000000 1.0
C      1  0.5365810000000  0.4925830000000  0.3949150000000 1.0
C      1  0.5361590000000  0.5751790000000  0.4303180000000 1.0
C      1  0.5362650000000  0.6011370000000  0.5125270000000 1.0
C      1  0.5296110000000  0.5512510000000  0.5898640000000 1.0
C      1  0.5292470000000  0.4623310000000  0.5955500000000 1.0
C      1  0.5261290000000  0.4052500000000  0.5270480000000 1.0
C      1  0.5347440000000  0.4119100000000  0.4394570000000 1.0
C      1  0.4598430000000  0.5523590000000  0.5112380000000 1.0
C      1  0.4660900000000  0.5195990000000  0.5492550000000 1.0
C      1  0.4688120000000  0.4742210000000  0.5447310000000 1.0
C      1  0.4605510000000  0.4397300000000  0.5068950000000 1.0
C      1  0.4657540000000  0.4564650000000  0.4640310000000 1.0
C      1  0.4692050000000  0.5018010000000  0.4495860000000 1.0
C      1  0.4708880000000  0.5480340000000  0.4673800000000 1.0
C      1  0.4490600000000  0.5820600000000  0.5109780000000 1.0
C      1  0.4529180000000  0.5463660000000  0.5806550000000 1.0
C      1  0.4532940000000  0.4665320000000  0.5878590000000 1.0
C      1  0.4541340000000  0.4089590000000  0.5323360000000 1.0
C      1  0.4452490000000  0.4187530000000  0.4485950000000 1.0
C      1  0.4485530000000  0.4879890000000  0.4088360000000 1.0
C      1  0.4459800000000  0.5648870000000  0.4322730000000 1.0
C      1  0.5052040000000  0.5377470000000  0.5978490000000 1.0
C      1  0.5054690000000  0.4462780000000  0.5893870000000 1.0
C      1  0.5035980000000  0.3972880000000  0.5110380000000 1.0
C      1  0.5099600000000  0.4218070000000  0.4265150000000 1.0
C      1  0.5134740000000  0.5103500000000  0.3966880000000 1.0
C      1  0.5101970000000  0.5818810000000  0.4411060000000 1.0
C      1  0.5135060000000  0.5993890000000  0.5310190000000 1.0
C      1  0.4936560000000  0.4295230000000  0.5432760000000 1.0
C      1  0.4942050000000  0.4083690000000  0.4485300000000 1.0
C      1  0.4975840000000  0.4861670000000  0.4062190000000 1.0
C      1  0.4980910000000  0.5628650000000  0.4205950000000 1.0
C      1  0.4977510000000  0.5877660000000  0.5087500000000 1.0
C      1  0.4949320000000  0.5628670000000  0.5605920000000 1.0
C      1  0.4944700000000  0.4904750000000  0.5834660000000 1.0
C      1  0.5164050000000  0.5132480000000  0.4463220000000 1.0
C      1  0.5221300000000  0.5502190000000  0.4788330000000 1.0
C      1  0.5294100000000  0.5502470000000  0.5248190000000 1.0
C      1  0.5294760000000  0.5145020000000  0.5559940000000 1.0
C      1  0.5255760000000  0.4640730000000  0.5426990000000 1.0
C      1  0.5089390000000  0.4368380000000  0.4905620000000 1.0
C      1  0.5063120000000  0.4644090000000  0.4470350000000 1.0
C      1  0.4864760000000  0.5384780000000  0.5074180000000 1.0
C      1  0.4903790000000  0.5226470000000  0.5336120000000 1.0
C      1  0.4928170000000  0.4902980000000  0.5372410000000 1.0
C      1  0.4988130000000  0.4759300000000  0.5135520000000 1.0
C      1  0.4793930000000  0.4800330000000  0.4956360000000 1.0
C      1  0.4850150000000  0.4972810000000  0.4747120000000 1.0
C      1  0.4946800000000  0.5207720000000  0.4851440000000 1.0
C      1  0.4175100000000  0.4606610000000  0.5518550000000 1.0
C      1  0.4175300000000  0.4360520000000  0.5022100000000 1.0
C      1  0.4145450000000  0.4581280000000  0.4479360000000 1.0
C      1  0.4127650000000  0.5118720000000  0.4367320000000 1.0
C      1  0.4140150000000  0.5563720000000  0.4712160000000 1.0
C      1  0.4116460000000  0.5575020000000  0.5281610000000 1.0
C      1  0.4149950000000  0.5151580000000  0.5643700000000 1.0
C      1  0.4469730000000  0.4830690000000  0.5286780000000 1.0
C      1  0.4536420000000  0.4682610000000  0.5027570000000 1.0
C      1  0.4438480000000  0.4727680000000  0.4743220000000 1.0
C      1  0.4451840000000  0.5015190000000  0.4654900000000 1.0
C      1  0.4505090000000  0.5279150000000  0.4781140000000 1.0
C      1  0.4427150000000  0.5299950000000  0.5066120000000 1.0
C      1  0.4458630000000  0.5115150000000  0.5298540000000 1.0
C      1  0.5352470000000  0.5736720000000  0.5720780000000 1.0
C      1  0.5308150000000  0.4907780000000  0.6027540000000 1.0
C      1  0.5314750000000  0.4160820000000  0.5544300000000 1.0
C      1  0.5315330000000  0.4007770000000  0.4663180000000 1.0
C      1  0.5325610000000  0.4634610000000  0.4048100000000 1.0
C      1  0.5374720000000  0.5500160000000  0.4144770000000 1.0
C      1  0.5297880000000  0.5965200000000  0.4834640000000 1.0
C      1  0.5489720000000  0.5057550000000  0.5347640000000 1.0
C      1  0.5420960000000  0.4788580000000  0.5258800000000 1.0
C      1  0.5487830000000  0.4701980000000  0.4996150000000 1.0
C      1  0.5323930000000  0.4801520000000  0.4789490000000 1.0
C      1  0.5338080000000  0.5067630000000  0.4678420000000 1.0
C      1  0.5394160000000  0.5291850000000  0.4850320000000 1.0
C      1  0.5479610000000  0.5298460000000  0.5141150000000 1.0
C      1  0.4785760000000  0.4561710000000  0.4382920000000 1.0
C      1  0.4729780000000  0.5206800000000  0.4271740000000 1.0
C      1  0.4760470000000  0.5760070000000  0.4729050000000 1.0
C      1  0.4715250000000  0.5747450000000  0.5464390000000 1.0
C      1  0.4711360000000  0.5060750000000  0.5736120000000 1.0
C      1  0.4726600000000  0.4468440000000  0.5510800000000 1.0
C      1  0.4756830000000  0.4350020000000  0.4823300000000 1.0
C      1  0.6049710000000  0.4759980000000  0.5227920000000 1.0
C      1  0.6003470000000  0.4694730000000  0.4951130000000 1.0
C      1  0.6085080000000  0.4837780000000  0.4712490000000 1.0
C      1  0.6097650000000  0.5126460000000  0.4700840000000 1.0
C      1  0.6093370000000  0.5323750000000  0.4916670000000 1.0
C      1  0.6006650000000  0.5266580000000  0.5185100000000 1.0
C      1  0.6007540000000  0.5029330000000  0.5327010000000 1.0
C      1  0.3900860000000  0.5309400000000  0.5003170000000 1.0
C      1  0.3896850000000  0.5190130000000  0.5259800000000 1.0
C      1  0.3910350000000  0.4918210000000  0.5325900000000 1.0
C      1  0.3918340000000  0.4702590000000  0.5146580000000 1.0
C      1  0.3930410000000  0.4708640000000  0.4873280000000 1.0
C      1  0.3894310000000  0.4910120000000  0.4691190000000 1.0
C      1  0.3898410000000  0.5185440000000  0.4750390000000 1.0
C      1  0.4704060000000  0.4128960000000  0.4386090000000 1.0
C      1  0.4732820000000  0.5020120000000  0.4038750000000 1.0
C      1  0.4724380000000  0.5712740000000  0.4262540000000 1.0
C      1  0.4738080000000  0.5918170000000  0.5234860000000 1.0
C      1  0.4813050000000  0.5498720000000  0.5852540000000 1.0
C      1  0.4816020000000  0.4633240000000  0.5922180000000 1.0
C      1  0.4821610000000  0.4032050000000  0.5293030000000 1.0
END
