TITL C-2441163-1170-803 0.0562346708256622 125000 -26707.5611695561 0 0 187 (C1) n - 1
REM
REM in /home/bkarasulu/work/CARBON/AIRSS/Generating-Clusters/ReaxFF-fromJPCA2015/Units_Real/with-SteepDescent/Higher-Symm
REM
REM
REM
REM
REM
REM ./C.cell (1df0a924f5614ab8850e4351716899ee)
REM
REM compiler GCC version 9.2.1 20190827 (Red Hat 9.2.1-1)
REM options -cpp -mtune=generic -march=x86-64 -g -O0 -fpre-include=/usr/include/finclude/math-vector-fortran.h
REM seed -767607261 1589124575 -1802353795 723972813 132783594 -856309223 383756400 1144806494 1756508779 -206571304 2096099576 1587058613 674388759 -484352156 -1836716841 -188053864 1942537445 -1146270691 1099278938 -814047034 -2036778403 -491491738 1045858181 1208226050 -1797140280 1872219846 -373945889 550181400 -1630306366 165468798 -1316335536 234260905 -1649128938
REM
CELL 1.54180   50.00000   50.00000   50.00000   90.00000   90.00000   90.00000
LATT -1
SFAC C  
C      1  0.5274180000000  0.4970280000000  0.5229780000000 1.0
C      1  0.5245860000000  0.5237190000000  0.5114670000000 1.0
C      1  0.5287540000000  0.5213330000000  0.4862190000000 1.0
C      1  0.5329600000000  0.4950590000000  0.4754930000000 1.0
C      1  0.5309970000000  0.4765570000000  0.5006970000000 1.0
C      1  0.4678570000000  0.4926880000000  0.5215760000000 1.0
C      1  0.4803360000000  0.5169720000000  0.5144810000000 1.0
C      1  0.4800140000000  0.5186260000000  0.4875280000000 1.0
C      1  0.4700140000000  0.4924240000000  0.4735460000000 1.0
C      1  0.4656870000000  0.4754120000000  0.4982060000000 1.0
C      1  0.5987650000000  0.5415930000000  0.5529410000000 1.0
C      1  0.5980840000000  0.5621820000000  0.4787360000000 1.0
C      1  0.5977360000000  0.4987400000000  0.4341190000000 1.0
C      1  0.5990080000000  0.4401630000000  0.4814760000000 1.0
C      1  0.5940450000000  0.4642500000000  0.5525460000000 1.0
C      1  0.4023310000000  0.5389630000000  0.5532040000000 1.0
C      1  0.4026660000000  0.5635690000000  0.4794680000000 1.0
C      1  0.4027580000000  0.4998820000000  0.4377100000000 1.0
C      1  0.4055680000000  0.4387560000000  0.4834800000000 1.0
C      1  0.4023830000000  0.4614170000000  0.5540050000000 1.0
C      1  0.5361960000000  0.4738630000000  0.6062480000000 1.0
C      1  0.5354560000000  0.5895510000000  0.5637590000000 1.0
C      1  0.5341810000000  0.5863760000000  0.4362660000000 1.0
C      1  0.5356360000000  0.4658420000000  0.3958630000000 1.0
C      1  0.5355190000000  0.3877090000000  0.5015050000000 1.0
C      1  0.4648920000000  0.4667420000000  0.6020060000000 1.0
C      1  0.4647270000000  0.5893830000000  0.5640890000000 1.0
C      1  0.4637130000000  0.5902140000000  0.4336680000000 1.0
C      1  0.4623610000000  0.4655670000000  0.3945970000000 1.0
C      1  0.4676880000000  0.3951560000000  0.4999110000000 1.0
C      1  0.4000830000000  0.5356760000000  0.5244340000000 1.0
C      1  0.3996850000000  0.5351720000000  0.4740550000000 1.0
C      1  0.4023760000000  0.4847750000000  0.4630300000000 1.0
C      1  0.3950450000000  0.4538690000000  0.5061310000000 1.0
C      1  0.3949890000000  0.4869740000000  0.5406450000000 1.0
C      1  0.6026260000000  0.5368570000000  0.5241300000000 1.0
C      1  0.6028260000000  0.5345510000000  0.4704750000000 1.0
C      1  0.6030300000000  0.4826650000000  0.4578950000000 1.0
C      1  0.6067740000000  0.4548100000000  0.5050030000000 1.0
C      1  0.6040750000000  0.4884240000000  0.5407660000000 1.0
C      1  0.4737860000000  0.4413250000000  0.4071390000000 1.0
C      1  0.4799210000000  0.4044390000000  0.5241240000000 1.0
C      1  0.4773370000000  0.4932100000000  0.6013500000000 1.0
C      1  0.4752520000000  0.6010200000000  0.5391330000000 1.0
C      1  0.4717510000000  0.5698150000000  0.4138460000000 1.0
C      1  0.5241860000000  0.4414430000000  0.4086800000000 1.0
C      1  0.5263420000000  0.3933410000000  0.5286970000000 1.0
C      1  0.5223670000000  0.4984040000000  0.6063360000000 1.0
C      1  0.5244530000000  0.6011180000000  0.5390530000000 1.0
C      1  0.5202040000000  0.5648210000000  0.4216700000000 1.0
C      1  0.5427090000000  0.4494370000000  0.5363040000000 1.0
C      1  0.5504950000000  0.5261510000000  0.5525590000000 1.0
C      1  0.5507260000000  0.5605550000000  0.4864990000000 1.0
C      1  0.5540450000000  0.5121860000000  0.4364450000000 1.0
C      1  0.5459620000000  0.4439990000000  0.4650520000000 1.0
C      1  0.4426220000000  0.4568080000000  0.5371800000000 1.0
C      1  0.4575150000000  0.5289490000000  0.5598880000000 1.0
C      1  0.4557900000000  0.5643530000000  0.4890670000000 1.0
C      1  0.4597740000000  0.5151360000000  0.4364240000000 1.0
C      1  0.4478980000000  0.4385580000000  0.4668190000000 1.0
C      1  0.4411700000000  0.4535110000000  0.5900630000000 1.0
C      1  0.4419710000000  0.5726740000000  0.5732210000000 1.0
C      1  0.4420530000000  0.5924090000000  0.4536300000000 1.0
C      1  0.4411500000000  0.4849890000000  0.3999110000000 1.0
C      1  0.4435150000000  0.3999180000000  0.4853870000000 1.0
C      1  0.5531380000000  0.4555950000000  0.5934940000000 1.0
C      1  0.5580480000000  0.5725720000000  0.5720200000000 1.0
C      1  0.5587710000000  0.5912350000000  0.4529730000000 1.0
C      1  0.5577250000000  0.4838700000000  0.4013950000000 1.0
C      1  0.5559040000000  0.3986860000000  0.4852060000000 1.0
C      1  0.4277690000000  0.5467560000000  0.4445340000000 1.0
C      1  0.4267660000000  0.4612290000000  0.4387390000000 1.0
C      1  0.4193160000000  0.4190070000000  0.5253320000000 1.0
C      1  0.4239170000000  0.4959940000000  0.5746880000000 1.0
C      1  0.4294830000000  0.5664100000000  0.5279280000000 1.0
C      1  0.5749310000000  0.5473140000000  0.4427330000000 1.0
C      1  0.5803070000000  0.4527110000000  0.4330400000000 1.0
C      1  0.5799440000000  0.4215140000000  0.5265170000000 1.0
C      1  0.5792870000000  0.5022040000000  0.5788960000000 1.0
C      1  0.5752200000000  0.5700280000000  0.5257690000000 1.0
C      1  0.4450410000000  0.5837460000000  0.5078630000000 1.0
C      1  0.4441990000000  0.5337880000000  0.4211220000000 1.0
C      1  0.4448420000000  0.4368720000000  0.4405150000000 1.0
C      1  0.4406940000000  0.4273990000000  0.5433890000000 1.0
C      1  0.4439900000000  0.5183060000000  0.5833890000000 1.0
C      1  0.5524550000000  0.5803840000000  0.5060040000000 1.0
C      1  0.5548490000000  0.5334010000000  0.4203860000000 1.0
C      1  0.5577520000000  0.4348500000000  0.4400680000000 1.0
C      1  0.5577820000000  0.4236350000000  0.5447190000000 1.0
C      1  0.5579140000000  0.5217320000000  0.5812510000000 1.0
C      1  0.5766890000000  0.4213760000000  0.4951810000000 1.0
C      1  0.5733050000000  0.4725190000000  0.5736420000000 1.0
C      1  0.5811670000000  0.5654580000000  0.5557840000000 1.0
C      1  0.5812060000000  0.5734910000000  0.4563530000000 1.0
C      1  0.5792050000000  0.4790600000000  0.4205440000000 1.0
C      1  0.4198200000000  0.4148610000000  0.4954180000000 1.0
C      1  0.4168820000000  0.4655570000000  0.5794450000000 1.0
C      1  0.4196390000000  0.5634490000000  0.5569040000000 1.0
C      1  0.4200120000000  0.5736850000000  0.4568530000000 1.0
C      1  0.4205090000000  0.4827480000000  0.4205690000000 1.0
C      1  0.5150220000000  0.4096490000000  0.4495230000000 1.0
C      1  0.5163110000000  0.4213850000000  0.5712440000000 1.0
C      1  0.5150140000000  0.5452120000000  0.5930310000000 1.0
C      1  0.5143150000000  0.6020030000000  0.4871530000000 1.0
C      1  0.5131140000000  0.5187300000000  0.3985710000000 1.0
C      1  0.4854590000000  0.4107700000000  0.4495830000000 1.0
C      1  0.4853610000000  0.4255080000000  0.5684970000000 1.0
C      1  0.4849410000000  0.5444220000000  0.5948770000000 1.0
C      1  0.4847590000000  0.6029910000000  0.4866330000000 1.0
C      1  0.4837190000000  0.5194990000000  0.3969290000000 1.0
C      1  0.5982100000000  0.5269700000000  0.4432440000000 1.0
C      1  0.5993630000000  0.4533030000000  0.4558140000000 1.0
C      1  0.5968570000000  0.4437840000000  0.5318660000000 1.0
C      1  0.5969560000000  0.5128750000000  0.5585300000000 1.0
C      1  0.5982580000000  0.5614340000000  0.5081140000000 1.0
C      1  0.4029140000000  0.5274810000000  0.4465610000000 1.0
C      1  0.4067740000000  0.4559880000000  0.4598610000000 1.0
C      1  0.4014820000000  0.4408510000000  0.5326460000000 1.0
C      1  0.4024680000000  0.5100600000000  0.5577090000000 1.0
C      1  0.4038150000000  0.5592320000000  0.5082810000000 1.0
C      1  0.4924120000000  0.5423080000000  0.4777610000000 1.0
C      1  0.4889210000000  0.4813370000000  0.4544800000000 1.0
C      1  0.4854910000000  0.4548880000000  0.5006960000000 1.0
C      1  0.4842570000000  0.4772350000000  0.5403070000000 1.0
C      1  0.4922880000000  0.5298040000000  0.5366560000000 1.0
C      1  0.5201880000000  0.5415550000000  0.4673940000000 1.0
C      1  0.5123890000000  0.4957940000000  0.4541700000000 1.0
C      1  0.5107570000000  0.4589880000000  0.4904400000000 1.0
C      1  0.5090570000000  0.4888390000000  0.5437020000000 1.0
C      1  0.5147910000000  0.5453440000000  0.5272850000000 1.0
C      1  0.4683460000000  0.4236820000000  0.4295040000000 1.0
C      1  0.4675630000000  0.4151010000000  0.5479440000000 1.0
C      1  0.4665700000000  0.5201490000000  0.6008950000000 1.0
C      1  0.4669120000000  0.6016710000000  0.5110130000000 1.0
C      1  0.4644740000000  0.5429730000000  0.4027960000000 1.0
C      1  0.5330870000000  0.4231400000000  0.4295060000000 1.0
C      1  0.5356670000000  0.4067940000000  0.5527830000000 1.0
C      1  0.5344220000000  0.5240490000000  0.5990840000000 1.0
C      1  0.5319910000000  0.6001000000000  0.5108170000000 1.0
C      1  0.5300330000000  0.5415980000000  0.4072260000000 1.0
C      1  0.4274270000000  0.5228660000000  0.4854430000000 1.0
C      1  0.4277010000000  0.4961440000000  0.4717110000000 1.0
C      1  0.4443130000000  0.4604930000000  0.5087110000000 1.0
C      1  0.4418170000000  0.4990120000000  0.5294230000000 1.0
C      1  0.4289400000000  0.5221860000000  0.5192800000000 1.0
C      1  0.5793370000000  0.5198790000000  0.4848590000000 1.0
C      1  0.5795360000000  0.4920770000000  0.4721980000000 1.0
C      1  0.5513610000000  0.4590750000000  0.5092860000000 1.0
C      1  0.5518280000000  0.5003950000000  0.5385140000000 1.0
C      1  0.5775090000000  0.5212870000000  0.5167050000000 1.0
C      1  0.4970310000000  0.4551280000000  0.4475210000000 1.0
C      1  0.4899180000000  0.4522750000000  0.5290750000000 1.0
C      1  0.4851600000000  0.5211720000000  0.5628220000000 1.0
C      1  0.4840200000000  0.5624550000000  0.4947900000000 1.0
C      1  0.4855950000000  0.5297840000000  0.4370420000000 1.0
C      1  0.5179580000000  0.4487710000000  0.4659190000000 1.0
C      1  0.5140630000000  0.4379780000000  0.5319410000000 1.0
C      1  0.5198310000000  0.4813240000000  0.5685840000000 1.0
C      1  0.5008280000000  0.5681790000000  0.5171650000000 1.0
C      1  0.5099320000000  0.5219660000000  0.4473610000000 1.0
C      1  0.4697060000000  0.4941040000000  0.3988290000000 1.0
C      1  0.4695670000000  0.4022350000000  0.4725310000000 1.0
C      1  0.4694910000000  0.4453950000000  0.5821160000000 1.0
C      1  0.4704160000000  0.5645730000000  0.5785600000000 1.0
C      1  0.4706700000000  0.5942100000000  0.4624220000000 1.0
C      1  0.5296890000000  0.4942470000000  0.3999840000000 1.0
C      1  0.5294830000000  0.4009350000000  0.4737640000000 1.0
C      1  0.5317890000000  0.4395510000000  0.5852370000000 1.0
C      1  0.5294440000000  0.5631720000000  0.5751050000000 1.0
C      1  0.5305300000000  0.5962790000000  0.4632060000000 1.0
C      1  0.5560830000000  0.4918200000000  0.4547020000000 1.0
C      1  0.5584310000000  0.4422410000000  0.4897750000000 1.0
C      1  0.5470050000000  0.4773300000000  0.5560060000000 1.0
C      1  0.5604280000000  0.5405790000000  0.5296330000000 1.0
C      1  0.5598960000000  0.5402480000000  0.4695970000000 1.0
C      1  0.4487080000000  0.4927410000000  0.4528340000000 1.0
C      1  0.4506170000000  0.4401330000000  0.4908320000000 1.0
C      1  0.4409410000000  0.4824040000000  0.5508120000000 1.0
C      1  0.4460090000000  0.5407000000000  0.5347930000000 1.0
C      1  0.4439360000000  0.5436090000000  0.4723070000000 1.0
C      1  0.4926820000000  0.5574780000000  0.4298400000000 1.0
C      1  0.4996840000000  0.4991390000000  0.5821150000000 1.0
C      1  0.4997380000000  0.5898200000000  0.5348670000000 1.0
C      1  0.4987030000000  0.4508640000000  0.4190110000000 1.0
C      1  0.5066460000000  0.4121570000000  0.5240660000000 1.0
C      1  0.6098680000000  0.4840220000000  0.5116890000000 1.0
C      1  0.3930310000000  0.4834310000000  0.5106930000000 1.0
END
