TITL C-2441160-1326-125 0.111198299371813 125000 -24011.4708731351 0 0 181 (C1) n - 1
REM
REM in /home/bkarasulu/work/CARBON/AIRSS/Generating-Clusters/ReaxFF-fromJPCA2015/Units_Real/with-SteepDescent/Higher-Symm
REM
REM
REM
REM
REM
REM ./C.cell (1df0a924f5614ab8850e4351716899ee)
REM
REM compiler GCC version 9.2.1 20190827 (Red Hat 9.2.1-1)
REM options -cpp -mtune=generic -march=x86-64 -g -O0 -fpre-include=/usr/include/finclude/math-vector-fortran.h
REM seed 1062228122 593760834 -949056803 439523738 -1854414578 1981848848 -78355102 -460195430 106094609 199383395 -285155181 189890961 -1117183151 -1449249760 870413066 -1860811874 -1065352975 523381826 1540160944 -516950416 -1084853222 -764288278 -1912419061 -287440764 -970878860 -1544886716 1489968375 782734480 -216816449 543909304 -1958172305 -1840310166 -371664449
REM
CELL 1.54180   50.00000   50.00000   50.00000   90.00000   90.00000   90.00000
LATT -1
SFAC C  
C      1  0.6040150000000  0.4879690000000  0.4826580000000 1.0
C      1  0.5912360000000  0.4903210000000  0.5514570000000 1.0
C      1  0.5387900000000  0.4883830000000  0.6001820000000 1.0
C      1  0.4575300000000  0.4885020000000  0.6039540000000 1.0
C      1  0.4082580000000  0.4902310000000  0.5530480000000 1.0
C      1  0.3931070000000  0.4884050000000  0.4817680000000 1.0
C      1  0.4323410000000  0.4889750000000  0.4119660000000 1.0
C      1  0.4989770000000  0.4901100000000  0.3946380000000 1.0
C      1  0.5681390000000  0.4923450000000  0.4179640000000 1.0
C      1  0.4848040000000  0.4492290000000  0.4584580000000 1.0
C      1  0.5129540000000  0.4579980000000  0.4555620000000 1.0
C      1  0.5398440000000  0.4564100000000  0.4783580000000 1.0
C      1  0.5437550000000  0.4494960000000  0.5070510000000 1.0
C      1  0.5258260000000  0.4575810000000  0.5305550000000 1.0
C      1  0.4998640000000  0.4453680000000  0.5339870000000 1.0
C      1  0.4730570000000  0.4573830000000  0.5319870000000 1.0
C      1  0.4560370000000  0.4487970000000  0.5078500000000 1.0
C      1  0.4695130000000  0.4567060000000  0.4829600000000 1.0
C      1  0.4731320000000  0.4085330000000  0.5321290000000 1.0
C      1  0.4592640000000  0.4152800000000  0.5073150000000 1.0
C      1  0.4637000000000  0.4083240000000  0.4791940000000 1.0
C      1  0.4857870000000  0.4151280000000  0.4618290000000 1.0
C      1  0.5153640000000  0.4085700000000  0.4615930000000 1.0
C      1  0.5368900000000  0.4085910000000  0.4796160000000 1.0
C      1  0.5410950000000  0.4158510000000  0.5087620000000 1.0
C      1  0.5271170000000  0.4093180000000  0.5337550000000 1.0
C      1  0.4997450000000  0.4170730000000  0.5401890000000 1.0
C      1  0.5231610000000  0.4834440000000  0.5226590000000 1.0
C      1  0.5015550000000  0.4981370000000  0.5269420000000 1.0
C      1  0.4752540000000  0.4861120000000  0.5301670000000 1.0
C      1  0.4588430000000  0.4933630000000  0.5086050000000 1.0
C      1  0.4711160000000  0.4824110000000  0.4866910000000 1.0
C      1  0.4794430000000  0.4949200000000  0.4669580000000 1.0
C      1  0.5075290000000  0.4851310000000  0.4630530000000 1.0
C      1  0.5316270000000  0.4845460000000  0.4785780000000 1.0
C      1  0.5360970000000  0.4938550000000  0.5024160000000 1.0
C      1  0.5210120000000  0.4632600000000  0.5974250000000 1.0
C      1  0.4502110000000  0.4672120000000  0.5867040000000 1.0
C      1  0.4067310000000  0.4686360000000  0.5330900000000 1.0
C      1  0.4067090000000  0.4676260000000  0.4679690000000 1.0
C      1  0.4499130000000  0.4664970000000  0.4145890000000 1.0
C      1  0.5157500000000  0.4669670000000  0.4010410000000 1.0
C      1  0.5755690000000  0.4690540000000  0.4341120000000 1.0
C      1  0.5978860000000  0.4625580000000  0.4987280000000 1.0
C      1  0.5761740000000  0.4676130000000  0.5625400000000 1.0
C      1  0.4204500000000  0.4234810000000  0.4865960000000 1.0
C      1  0.4486450000000  0.4244930000000  0.4394450000000 1.0
C      1  0.4996000000000  0.4242330000000  0.4203420000000 1.0
C      1  0.5516470000000  0.4236330000000  0.4401610000000 1.0
C      1  0.5807820000000  0.4263100000000  0.4879620000000 1.0
C      1  0.5687560000000  0.4245640000000  0.5414450000000 1.0
C      1  0.5262700000000  0.4275070000000  0.5778670000000 1.0
C      1  0.4724300000000  0.4250490000000  0.5751410000000 1.0
C      1  0.4301530000000  0.4237460000000  0.5399570000000 1.0
C      1  0.4964880000000  0.4503160000000  0.4117400000000 1.0
C      1  0.5557610000000  0.4496600000000  0.4277520000000 1.0
C      1  0.5882790000000  0.4500040000000  0.4776280000000 1.0
C      1  0.5784610000000  0.4500890000000  0.5413940000000 1.0
C      1  0.5351290000000  0.4520350000000  0.5797760000000 1.0
C      1  0.4720630000000  0.4499950000000  0.5867530000000 1.0
C      1  0.4223830000000  0.4508680000000  0.5489900000000 1.0
C      1  0.4114300000000  0.4493280000000  0.4883150000000 1.0
C      1  0.4385730000000  0.4498700000000  0.4339070000000 1.0
C      1  0.4112020000000  0.5333890000000  0.4350210000000 1.0
C      1  0.4770420000000  0.5373400000000  0.3951390000000 1.0
C      1  0.5506580000000  0.5363080000000  0.4009890000000 1.0
C      1  0.5989200000000  0.5381410000000  0.4591880000000 1.0
C      1  0.6048200000000  0.5349820000000  0.5328570000000 1.0
C      1  0.5580680000000  0.5371510000000  0.5912390000000 1.0
C      1  0.4881770000000  0.5337400000000  0.6103630000000 1.0
C      1  0.4210550000000  0.5368790000000  0.5739130000000 1.0
C      1  0.3922140000000  0.5385770000000  0.5068160000000 1.0
C      1  0.5735400000000  0.5198610000000  0.4102140000000 1.0
C      1  0.6126110000000  0.5158700000000  0.4786090000000 1.0
C      1  0.6012310000000  0.5176120000000  0.5566270000000 1.0
C      1  0.5429590000000  0.5165570000000  0.6074160000000 1.0
C      1  0.4631550000000  0.5155580000000  0.6101410000000 1.0
C      1  0.4019430000000  0.5186580000000  0.5597980000000 1.0
C      1  0.3860560000000  0.5154420000000  0.4853710000000 1.0
C      1  0.4241120000000  0.5163020000000  0.4135240000000 1.0
C      1  0.4979640000000  0.5180390000000  0.3845620000000 1.0
C      1  0.4376780000000  0.5942020000000  0.4770070000000 1.0
C      1  0.4624540000000  0.5924250000000  0.4603320000000 1.0
C      1  0.5124720000000  0.5942830000000  0.4390480000000 1.0
C      1  0.5387220000000  0.5951760000000  0.4538390000000 1.0
C      1  0.5613030000000  0.5959320000000  0.5042520000000 1.0
C      1  0.5520580000000  0.5948660000000  0.5327030000000 1.0
C      1  0.4941660000000  0.5960560000000  0.5573630000000 1.0
C      1  0.4701950000000  0.6018140000000  0.5439380000000 1.0
C      1  0.4453430000000  0.5956770000000  0.5288440000000 1.0
C      1  0.4929040000000  0.5319320000000  0.4576070000000 1.0
C      1  0.5227710000000  0.5281630000000  0.4670120000000 1.0
C      1  0.5390600000000  0.5195200000000  0.4942080000000 1.0
C      1  0.5367130000000  0.5320360000000  0.5189680000000 1.0
C      1  0.5156300000000  0.5220930000000  0.5377640000000 1.0
C      1  0.4933580000000  0.5333350000000  0.5434210000000 1.0
C      1  0.4677280000000  0.5308780000000  0.5250470000000 1.0
C      1  0.4590940000000  0.5325670000000  0.4939830000000 1.0
C      1  0.4731750000000  0.5218940000000  0.4711070000000 1.0
C      1  0.4612060000000  0.5405440000000  0.5776240000000 1.0
C      1  0.4228330000000  0.5398770000000  0.5326090000000 1.0
C      1  0.4165480000000  0.5385730000000  0.4747020000000 1.0
C      1  0.4538150000000  0.5411480000000  0.4285350000000 1.0
C      1  0.5133730000000  0.5367940000000  0.4162540000000 1.0
C      1  0.5616330000000  0.5388580000000  0.4440060000000 1.0
C      1  0.5849140000000  0.5378560000000  0.4969180000000 1.0
C      1  0.5671490000000  0.5387930000000  0.5521480000000 1.0
C      1  0.5174040000000  0.5358190000000  0.5837870000000 1.0
C      1  0.4994710000000  0.4178770000000  0.5700770000000 1.0
C      1  0.4554340000000  0.4156640000000  0.5525000000000 1.0
C      1  0.4296780000000  0.4147690000000  0.5125530000000 1.0
C      1  0.4402610000000  0.4153820000000  0.4660590000000 1.0
C      1  0.4757750000000  0.4154050000000  0.4341420000000 1.0
C      1  0.5237100000000  0.4154600000000  0.4358840000000 1.0
C      1  0.5604900000000  0.4161670000000  0.4670620000000 1.0
C      1  0.5697740000000  0.4164170000000  0.5138360000000 1.0
C      1  0.5432480000000  0.4171920000000  0.5546810000000 1.0
C      1  0.4441240000000  0.5211920000000  0.5392930000000 1.0
C      1  0.4320480000000  0.5216870000000  0.4920880000000 1.0
C      1  0.4511840000000  0.5215730000000  0.4501510000000 1.0
C      1  0.4958030000000  0.5200520000000  0.4315310000000 1.0
C      1  0.5398780000000  0.5197220000000  0.4445060000000 1.0
C      1  0.5670720000000  0.5192330000000  0.4844050000000 1.0
C      1  0.5619800000000  0.5204500000000  0.5306480000000 1.0
C      1  0.5273180000000  0.5187090000000  0.5636920000000 1.0
C      1  0.4818800000000  0.5215820000000  0.5682840000000 1.0
C      1  0.5369960000000  0.5833490000000  0.4275260000000 1.0
C      1  0.5581580000000  0.5834990000000  0.4752070000000 1.0
C      1  0.5775980000000  0.5826320000000  0.5233610000000 1.0
C      1  0.5382970000000  0.5793490000000  0.5543010000000 1.0
C      1  0.4968910000000  0.5781160000000  0.5758130000000 1.0
C      1  0.4463930000000  0.5842340000000  0.5544460000000 1.0
C      1  0.4337760000000  0.5807920000000  0.5037330000000 1.0
C      1  0.4346090000000  0.5812690000000  0.4520500000000 1.0
C      1  0.4875080000000  0.5788050000000  0.4346620000000 1.0
C      1  0.4459560000000  0.4685980000000  0.5570750000000 1.0
C      1  0.4242500000000  0.4646060000000  0.5080340000000 1.0
C      1  0.4321340000000  0.4705540000000  0.4520000000000 1.0
C      1  0.4790650000000  0.4661360000000  0.4273810000000 1.0
C      1  0.5306010000000  0.4676640000000  0.4272670000000 1.0
C      1  0.5692430000000  0.4669380000000  0.4648900000000 1.0
C      1  0.5731890000000  0.4649050000000  0.5174490000000 1.0
C      1  0.5462520000000  0.4687000000000  0.5592950000000 1.0
C      1  0.4938850000000  0.4695930000000  0.5853600000000 1.0
C      1  0.4887820000000  0.4943560000000  0.4213980000000 1.0
C      1  0.5430050000000  0.4950130000000  0.4315870000000 1.0
C      1  0.5769270000000  0.4941380000000  0.4762220000000 1.0
C      1  0.5740100000000  0.4951470000000  0.5287390000000 1.0
C      1  0.5383940000000  0.4942790000000  0.5717070000000 1.0
C      1  0.4881300000000  0.4959770000000  0.5761880000000 1.0
C      1  0.4369050000000  0.4953830000000  0.5491840000000 1.0
C      1  0.4312010000000  0.4938700000000  0.4997010000000 1.0
C      1  0.4508210000000  0.4933240000000  0.4490100000000 1.0
C      1  0.3966700000000  0.5256380000000  0.5322490000000 1.0
C      1  0.3996290000000  0.5211340000000  0.4583300000000 1.0
C      1  0.4521180000000  0.5246710000000  0.4040070000000 1.0
C      1  0.5254330000000  0.5230340000000  0.3934590000000 1.0
C      1  0.5866560000000  0.5259820000000  0.4353140000000 1.0
C      1  0.6083980000000  0.5222180000000  0.5065350000000 1.0
C      1  0.5804890000000  0.5261190000000  0.5758320000000 1.0
C      1  0.5137720000000  0.5202430000000  0.6083970000000 1.0
C      1  0.4415040000000  0.5234540000000  0.5905300000000 1.0
C      1  0.4985880000000  0.5553120000000  0.5926520000000 1.0
C      1  0.4415960000000  0.5570360000000  0.5649000000000 1.0
C      1  0.4141250000000  0.5569910000000  0.5112550000000 1.0
C      1  0.4224770000000  0.5546620000000  0.4517110000000 1.0
C      1  0.4754490000000  0.5578570000000  0.4172380000000 1.0
C      1  0.5354350000000  0.5550740000000  0.4174040000000 1.0
C      1  0.5764600000000  0.5565890000000  0.4613300000000 1.0
C      1  0.5867670000000  0.5542600000000  0.5201610000000 1.0
C      1  0.5524940000000  0.5574050000000  0.5688220000000 1.0
C      1  0.5215360000000  0.5559890000000  0.4686440000000 1.0
C      1  0.5358130000000  0.5683710000000  0.4879340000000 1.0
C      1  0.5340940000000  0.5589780000000  0.5140480000000 1.0
C      1  0.5191870000000  0.5712340000000  0.5339280000000 1.0
C      1  0.4935540000000  0.5613400000000  0.5396080000000 1.0
C      1  0.4712950000000  0.5598690000000  0.5228110000000 1.0
C      1  0.4608980000000  0.5622670000000  0.4956290000000 1.0
C      1  0.4777130000000  0.5751650000000  0.4776540000000 1.0
C      1  0.4947710000000  0.5611890000000  0.4608390000000 1.0
C      1  0.4975560000000  0.5134780000000  0.5004460000000 1.0
END
