TITL C-2441159-1093-10 0.0496204529632929 125000 -17043.587913735 0 0 121 (C1) n - 1
REM
REM in /home/bkarasulu/work/CARBON/AIRSS/Generating-Clusters/ReaxFF-fromJPCA2015/Units_Real/with-SteepDescent/Higher-Symm
REM
REM
REM
REM
REM
REM ./C.cell (1df0a924f5614ab8850e4351716899ee)
REM
REM compiler GCC version 9.2.1 20190827 (Red Hat 9.2.1-1)
REM options -cpp -mtune=generic -march=x86-64 -g -O0 -fpre-include=/usr/include/finclude/math-vector-fortran.h
REM seed -1702894952 -1700945791 799269300 28049163 -279245917 730278715 -267529723 -91170105 -1202418517 1487026949 -695597674 431410032 1899673493 696735537 -91688707 554337225 -1872760311 -363961714 -1171742842 1295760966 -772697229 1515200504 -339666747 865243492 -970632496 -1912867881 -158361967 -1557760577 -838804554 -781149844 477158695 872205614 464842849
REM
CELL 1.54180   50.00000   50.00000   50.00000   90.00000   90.00000   90.00000
LATT -1
SFAC C  
C      1  0.5156540000000  0.4384330000000  0.5287160000000 1.0
C      1  0.4824650000000  0.4334940000000  0.4714780000000 1.0
C      1  0.5311260000000  0.4798250000000  0.4259280000000 1.0
C      1  0.4733480000000  0.5423720000000  0.4324940000000 1.0
C      1  0.5178310000000  0.5577160000000  0.4714550000000 1.0
C      1  0.4820460000000  0.5636690000000  0.5282830000000 1.0
C      1  0.5201800000000  0.5274310000000  0.5824290000000 1.0
C      1  0.4770840000000  0.4599810000000  0.5739740000000 1.0
C      1  0.5166550000000  0.4472100000000  0.5726710000000 1.0
C      1  0.4819510000000  0.4055980000000  0.5131360000000 1.0
C      1  0.5202740000000  0.4273220000000  0.4506340000000 1.0
C      1  0.4811180000000  0.4886880000000  0.4110240000000 1.0
C      1  0.5134980000000  0.5562990000000  0.4235560000000 1.0
C      1  0.4858260000000  0.5942540000000  0.4837510000000 1.0
C      1  0.5165290000000  0.5769410000000  0.5586290000000 1.0
C      1  0.4787550000000  0.5162500000000  0.5873140000000 1.0
C      1  0.5506900000000  0.4225420000000  0.4867600000000 1.0
C      1  0.4546050000000  0.4592370000000  0.4411260000000 1.0
C      1  0.5658750000000  0.5172940000000  0.4351430000000 1.0
C      1  0.4314120000000  0.5572150000000  0.4657380000000 1.0
C      1  0.5610420000000  0.5687320000000  0.5093070000000 1.0
C      1  0.4486330000000  0.5438480000000  0.5610430000000 1.0
C      1  0.5466780000000  0.4863010000000  0.5729550000000 1.0
C      1  0.4388320000000  0.4410320000000  0.5411220000000 1.0
C      1  0.5619270000000  0.5601530000000  0.5340500000000 1.0
C      1  0.4361770000000  0.5186030000000  0.5667400000000 1.0
C      1  0.5606730000000  0.4645350000000  0.5608540000000 1.0
C      1  0.4360610000000  0.4277030000000  0.5183160000000 1.0
C      1  0.5639250000000  0.4380820000000  0.4664700000000 1.0
C      1  0.4390590000000  0.4811560000000  0.4327200000000 1.0
C      1  0.5513190000000  0.5395760000000  0.4273310000000 1.0
C      1  0.4475370000000  0.5749690000000  0.4785750000000 1.0
C      1  0.5176660000000  0.5353000000000  0.5549670000000 1.0
C      1  0.4916280000000  0.4826750000000  0.5621420000000 1.0
C      1  0.5100670000000  0.4712310000000  0.5257300000000 1.0
C      1  0.4862810000000  0.4477360000000  0.4963130000000 1.0
C      1  0.5092000000000  0.4787030000000  0.4442140000000 1.0
C      1  0.4906790000000  0.5216250000000  0.4444130000000 1.0
C      1  0.5246690000000  0.5290160000000  0.4712400000000 1.0
C      1  0.4806340000000  0.5421400000000  0.5092380000000 1.0
C      1  0.5722280000000  0.5503000000000  0.4699220000000 1.0
C      1  0.4364960000000  0.5419360000000  0.5147130000000 1.0
C      1  0.5611420000000  0.5186480000000  0.5405970000000 1.0
C      1  0.4378340000000  0.4848320000000  0.5409320000000 1.0
C      1  0.5616290000000  0.4556730000000  0.5132670000000 1.0
C      1  0.4372990000000  0.4551550000000  0.4849130000000 1.0
C      1  0.5660180000000  0.4819480000000  0.4585790000000 1.0
C      1  0.4352070000000  0.5163100000000  0.4567090000000 1.0
C      1  0.4624610000000  0.4669120000000  0.4972520000000 1.0
C      1  0.5436590000000  0.4850140000000  0.4750330000000 1.0
C      1  0.4599100000000  0.5134000000000  0.4785000000000 1.0
C      1  0.5335440000000  0.5289800000000  0.4988090000000 1.0
C      1  0.4584540000000  0.5225340000000  0.5092800000000 1.0
C      1  0.5450840000000  0.5095210000000  0.5186350000000 1.0
C      1  0.4599180000000  0.4906200000000  0.5225690000000 1.0
C      1  0.5411440000000  0.4687140000000  0.4968830000000 1.0
C      1  0.4913460000000  0.4363260000000  0.5627080000000 1.0
C      1  0.5033950000000  0.4060960000000  0.4949840000000 1.0
C      1  0.4950660000000  0.4397740000000  0.4457360000000 1.0
C      1  0.5033740000000  0.5061430000000  0.4042760000000 1.0
C      1  0.4889130000000  0.5673480000000  0.4355270000000 1.0
C      1  0.5036640000000  0.5945580000000  0.5058530000000 1.0
C      1  0.4931270000000  0.5649040000000  0.5679990000000 1.0
C      1  0.5048730000000  0.5050160000000  0.5932670000000 1.0
C      1  0.4192880000000  0.4927650000000  0.4525060000000 1.0
C      1  0.5810520000000  0.5264210000000  0.4602540000000 1.0
C      1  0.4196420000000  0.5449530000000  0.4909320000000 1.0
C      1  0.5808410000000  0.5377400000000  0.5299690000000 1.0
C      1  0.4183650000000  0.5055040000000  0.5468950000000 1.0
C      1  0.5759520000000  0.4685070000000  0.5356220000000 1.0
C      1  0.4184460000000  0.4506440000000  0.5063130000000 1.0
C      1  0.5822080000000  0.4610280000000  0.4703610000000 1.0
C      1  0.5165810000000  0.4968160000000  0.4663010000000 1.0
C      1  0.4864180000000  0.5241630000000  0.4718750000000 1.0
C      1  0.5063820000000  0.5301650000000  0.5100240000000 1.0
C      1  0.5084960000000  0.5182540000000  0.5357530000000 1.0
C      1  0.5247530000000  0.4950390000000  0.5324780000000 1.0
C      1  0.4858850000000  0.4833200000000  0.5345310000000 1.0
C      1  0.5095050000000  0.4666480000000  0.4976400000000 1.0
C      1  0.4723050000000  0.4874130000000  0.4798620000000 1.0
C      1  0.5574820000000  0.4267320000000  0.5147900000000 1.0
C      1  0.4426960000000  0.4406800000000  0.4603470000000 1.0
C      1  0.5616460000000  0.4869250000000  0.4303770000000 1.0
C      1  0.4325450000000  0.5394300000000  0.4398030000000 1.0
C      1  0.5628960000000  0.5745460000000  0.4808510000000 1.0
C      1  0.4408580000000  0.5600830000000  0.5372870000000 1.0
C      1  0.5576840000000  0.5131380000000  0.5694980000000 1.0
C      1  0.4365870000000  0.4615270000000  0.5599040000000 1.0
C      1  0.5916690000000  0.5163660000000  0.5119560000000 1.0
C      1  0.4069010000000  0.5035130000000  0.5200730000000 1.0
C      1  0.5916200000000  0.4870550000000  0.5192700000000 1.0
C      1  0.4097650000000  0.4787450000000  0.5053110000000 1.0
C      1  0.5923050000000  0.4807250000000  0.4899990000000 1.0
C      1  0.4090450000000  0.4931620000000  0.4801180000000 1.0
C      1  0.5913550000000  0.5095280000000  0.4837430000000 1.0
C      1  0.4071930000000  0.5185970000000  0.4949600000000 1.0
C      1  0.5400510000000  0.5651590000000  0.4334490000000 1.0
C      1  0.4587090000000  0.5903970000000  0.4979270000000 1.0
C      1  0.5392560000000  0.5563870000000  0.5584150000000 1.0
C      1  0.4538600000000  0.5016640000000  0.5836070000000 1.0
C      1  0.5429140000000  0.4405540000000  0.5629610000000 1.0
C      1  0.4553720000000  0.4110710000000  0.5017000000000 1.0
C      1  0.5464000000000  0.4371150000000  0.4420420000000 1.0
C      1  0.4549360000000  0.5000260000000  0.4161260000000 1.0
C      1  0.4574700000000  0.4185300000000  0.4737730000000 1.0
C      1  0.5480810000000  0.4582280000000  0.4224130000000 1.0
C      1  0.4509790000000  0.5293660000000  0.4193710000000 1.0
C      1  0.5396030000000  0.5751310000000  0.4614650000000 1.0
C      1  0.4582650000000  0.5805300000000  0.5263760000000 1.0
C      1  0.5474470000000  0.5376290000000  0.5818580000000 1.0
C      1  0.4526850000000  0.4721900000000  0.5825580000000 1.0
C      1  0.5395260000000  0.4248010000000  0.5380300000000 1.0
C      1  0.4889840000000  0.4288040000000  0.5326960000000 1.0
C      1  0.5239550000000  0.4126370000000  0.4766860000000 1.0
C      1  0.4846390000000  0.4651280000000  0.4344310000000 1.0
C      1  0.5129900000000  0.5262730000000  0.4254620000000 1.0
C      1  0.4936840000000  0.5732470000000  0.4635980000000 1.0
C      1  0.5075610000000  0.5805350000000  0.5298090000000 1.0
C      1  0.4746010000000  0.5441280000000  0.5749290000000 1.0
C      1  0.5172080000000  0.4792390000000  0.5779200000000 1.0
C      1  0.4989900000000  0.4894120000000  0.4855920000000 1.0
END
