TITL C-2441157-2117-827 0.0555059582107153 125000 -19309.1007418908 0 0 139 (C1) n - 1
REM
REM in /home/bkarasulu/work/CARBON/AIRSS/Generating-Clusters/ReaxFF-fromJPCA2015/Units_Real/with-SteepDescent/Higher-Symm
REM
REM
REM
REM
REM
REM ./C.cell (1df0a924f5614ab8850e4351716899ee)
REM
REM compiler GCC version 9.2.1 20190827 (Red Hat 9.2.1-1)
REM options -cpp -mtune=generic -march=x86-64 -g -O0 -fpre-include=/usr/include/finclude/math-vector-fortran.h
REM seed 1877552875 174520859 -1095641310 -1574960700 814794797 1212991886 -1271310372 1909968028 -951332045 1188266449 -992104057 -1015149496 1913316590 -1743928659 -1049430114 1551193319 539409449 -1019261485 447401891 -783821094 880958883 56506964 -10988786 -1309541155 -617812309 -51834639 670647920 -248954949 1829717300 -1011157605 -436296083 -302125718 174793436
REM
CELL 1.54180   50.00000   50.00000   50.00000   90.00000   90.00000   90.00000
LATT -1
SFAC C  
C      1  0.4119840000000  0.5193810000000  0.4600650000000 1.0
C      1  0.5605170000000  0.5690400000000  0.4582010000000 1.0
C      1  0.5267920000000  0.4123450000000  0.4555360000000 1.0
C      1  0.5213600000000  0.4553910000000  0.4821830000000 1.0
C      1  0.4617970000000  0.5051950000000  0.4788640000000 1.0
C      1  0.5289640000000  0.5406020000000  0.4773410000000 1.0
C      1  0.5304300000000  0.5246460000000  0.4066860000000 1.0
C      1  0.5046540000000  0.4612710000000  0.4075540000000 1.0
C      1  0.4635760000000  0.5161140000000  0.4097810000000 1.0
C      1  0.5183830000000  0.4361610000000  0.4140270000000 1.0
C      1  0.4353420000000  0.5151950000000  0.4171680000000 1.0
C      1  0.5456150000000  0.5485280000000  0.4152790000000 1.0
C      1  0.5180590000000  0.4059560000000  0.4825580000000 1.0
C      1  0.4122670000000  0.5310970000000  0.4867790000000 1.0
C      1  0.5680190000000  0.5626020000000  0.4855010000000 1.0
C      1  0.5472180000000  0.5117440000000  0.4414500000000 1.0
C      1  0.4873910000000  0.4522640000000  0.4454210000000 1.0
C      1  0.4604620000000  0.5375440000000  0.4497600000000 1.0
C      1  0.4472610000000  0.4317810000000  0.5537470000000 1.0
C      1  0.4761880000000  0.5791840000000  0.5584430000000 1.0
C      1  0.5792020000000  0.4795560000000  0.5600820000000 1.0
C      1  0.4852820000000  0.4977410000000  0.5610960000000 1.0
C      1  0.4976350000000  0.5215390000000  0.5566200000000 1.0
C      1  0.5129310000000  0.4984780000000  0.5536780000000 1.0
C      1  0.5171550000000  0.5578970000000  0.5605460000000 1.0
C      1  0.5421470000000  0.4592990000000  0.5584180000000 1.0
C      1  0.4413760000000  0.4857290000000  0.5568660000000 1.0
C      1  0.5081990000000  0.5349790000000  0.4248350000000 1.0
C      1  0.5259350000000  0.4753390000000  0.4213750000000 1.0
C      1  0.4672060000000  0.4906140000000  0.4273470000000 1.0
C      1  0.5535320000000  0.4250650000000  0.4581100000000 1.0
C      1  0.4099670000000  0.4902950000000  0.4613460000000 1.0
C      1  0.5361450000000  0.5866230000000  0.4603920000000 1.0
C      1  0.5647040000000  0.4205390000000  0.4846790000000 1.0
C      1  0.4055970000000  0.4783770000000  0.4878790000000 1.0
C      1  0.5271700000000  0.5992930000000  0.4846440000000 1.0
C      1  0.4465010000000  0.5712920000000  0.5323700000000 1.0
C      1  0.5894960000000  0.5112620000000  0.5300960000000 1.0
C      1  0.4589010000000  0.4181890000000  0.5293050000000 1.0
C      1  0.4891640000000  0.5672520000000  0.4556900000000 1.0
C      1  0.5622450000000  0.4768210000000  0.4560430000000 1.0
C      1  0.4458910000000  0.4553040000000  0.4550680000000 1.0
C      1  0.4618030000000  0.4611900000000  0.4788950000000 1.0
C      1  0.4881580000000  0.5507850000000  0.4811580000000 1.0
C      1  0.5468070000000  0.4907610000000  0.4785410000000 1.0
C      1  0.5656460000000  0.5495300000000  0.4368020000000 1.0
C      1  0.5077630000000  0.4172510000000  0.4337280000000 1.0
C      1  0.4226810000000  0.5339910000000  0.4361020000000 1.0
C      1  0.5453980000000  0.4746930000000  0.5832790000000 1.0
C      1  0.4517460000000  0.4717760000000  0.5809920000000 1.0
C      1  0.4989460000000  0.5551120000000  0.5836610000000 1.0
C      1  0.5419770000000  0.4098110000000  0.4993410000000 1.0
C      1  0.4100160000000  0.5177590000000  0.5136880000000 1.0
C      1  0.5534730000000  0.5676550000000  0.5106870000000 1.0
C      1  0.4316070000000  0.4366410000000  0.4956940000000 1.0
C      1  0.4803830000000  0.5908940000000  0.4968080000000 1.0
C      1  0.5818420000000  0.4679010000000  0.4970140000000 1.0
C      1  0.5160570000000  0.4881510000000  0.5281300000000 1.0
C      1  0.4879660000000  0.4815670000000  0.5226480000000 1.0
C      1  0.4976840000000  0.5266680000000  0.5123700000000 1.0
C      1  0.4965350000000  0.5430160000000  0.5373210000000 1.0
C      1  0.5435370000000  0.4780650000000  0.5292670000000 1.0
C      1  0.4676070000000  0.4837010000000  0.5448570000000 1.0
C      1  0.5828070000000  0.4384750000000  0.4997610000000 1.0
C      1  0.4068260000000  0.4509640000000  0.4999120000000 1.0
C      1  0.5050940000000  0.6083640000000  0.4994440000000 1.0
C      1  0.4713070000000  0.4868430000000  0.5967490000000 1.0
C      1  0.4993640000000  0.5294210000000  0.5975760000000 1.0
C      1  0.5218270000000  0.4855630000000  0.5971700000000 1.0
C      1  0.4651500000000  0.4466640000000  0.5721120000000 1.0
C      1  0.4697880000000  0.5577380000000  0.5762720000000 1.0
C      1  0.5637390000000  0.4972070000000  0.5765310000000 1.0
C      1  0.5400420000000  0.4996730000000  0.4165110000000 1.0
C      1  0.4802050000000  0.4656910000000  0.4212490000000 1.0
C      1  0.4781390000000  0.5341470000000  0.4264600000000 1.0
C      1  0.4257360000000  0.4734870000000  0.4439350000000 1.0
C      1  0.5138710000000  0.5771480000000  0.4437620000000 1.0
C      1  0.5590450000000  0.4498940000000  0.4438580000000 1.0
C      1  0.5201720000000  0.5609140000000  0.4223300000000 1.0
C      1  0.5425560000000  0.4514740000000  0.4198920000000 1.0
C      1  0.4385770000000  0.4876770000000  0.4244160000000 1.0
C      1  0.4726670000000  0.5163980000000  0.5948930000000 1.0
C      1  0.5241930000000  0.5145170000000  0.5952140000000 1.0
C      1  0.4963610000000  0.4718570000000  0.5939360000000 1.0
C      1  0.4940890000000  0.4493270000000  0.5754960000000 1.0
C      1  0.4560310000000  0.5318910000000  0.5771030000000 1.0
C      1  0.5470300000000  0.5222810000000  0.5781270000000 1.0
C      1  0.5250090000000  0.5722680000000  0.5149170000000 1.0
C      1  0.5409870000000  0.4273610000000  0.5232500000000 1.0
C      1  0.4170370000000  0.4897420000000  0.5121550000000 1.0
C      1  0.4198700000000  0.5592270000000  0.5367110000000 1.0
C      1  0.5900810000000  0.5395520000000  0.5363670000000 1.0
C      1  0.4982070000000  0.4066200000000  0.5350980000000 1.0
C      1  0.5736310000000  0.5222700000000  0.4458420000000 1.0
C      1  0.4794870000000  0.4246890000000  0.4385120000000 1.0
C      1  0.4417390000000  0.5569560000000  0.4388500000000 1.0
C      1  0.5534100000000  0.4738480000000  0.5012960000000 1.0
C      1  0.4473610000000  0.4601110000000  0.5045870000000 1.0
C      1  0.4960670000000  0.5669370000000  0.5038810000000 1.0
C      1  0.4788140000000  0.4984690000000  0.4583730000000 1.0
C      1  0.5214210000000  0.5209920000000  0.4546550000000 1.0
C      1  0.5128230000000  0.4682610000000  0.4562430000000 1.0
C      1  0.5852900000000  0.4953230000000  0.4522590000000 1.0
C      1  0.4522190000000  0.4265380000000  0.4499480000000 1.0
C      1  0.4610380000000  0.5780570000000  0.4501580000000 1.0
C      1  0.4272620000000  0.5691290000000  0.5120280000000 1.0
C      1  0.5996810000000  0.5318150000000  0.5105370000000 1.0
C      1  0.4792310000000  0.4006400000000  0.5164070000000 1.0
C      1  0.5613290000000  0.5037240000000  0.5300710000000 1.0
C      1  0.4675100000000  0.4445320000000  0.5202460000000 1.0
C      1  0.4673620000000  0.5506900000000  0.5275860000000 1.0
C      1  0.4593770000000  0.5842970000000  0.4780830000000 1.0
C      1  0.5917850000000  0.4917920000000  0.4812250000000 1.0
C      1  0.4508780000000  0.4212500000000  0.4788780000000 1.0
C      1  0.5195490000000  0.4412460000000  0.5619540000000 1.0
C      1  0.4398450000000  0.5173840000000  0.5546270000000 1.0
C      1  0.5434620000000  0.5468230000000  0.5628440000000 1.0
C      1  0.5216130000000  0.4166910000000  0.5455010000000 1.0
C      1  0.4159960000000  0.5306080000000  0.5392620000000 1.0
C      1  0.5620440000000  0.5519900000000  0.5363450000000 1.0
C      1  0.4937330000000  0.4545690000000  0.5216140000000 1.0
C      1  0.4554700000000  0.5246290000000  0.5274310000000 1.0
C      1  0.5480800000000  0.5273340000000  0.5232970000000 1.0
C      1  0.4968730000000  0.5901810000000  0.5445070000000 1.0
C      1  0.5800940000000  0.4590900000000  0.5436380000000 1.0
C      1  0.4269380000000  0.4499620000000  0.5454330000000 1.0
C      1  0.5815640000000  0.5364230000000  0.4879080000000 1.0
C      1  0.4901770000000  0.4123400000000  0.4903260000000 1.0
C      1  0.4316460000000  0.5520050000000  0.4899830000000 1.0
C      1  0.4733510000000  0.5095210000000  0.5089680000000 1.0
C      1  0.5255300000000  0.5267230000000  0.5030490000000 1.0
C      1  0.5199060000000  0.4476000000000  0.5093510000000 1.0
C      1  0.4099880000000  0.4638350000000  0.5276620000000 1.0
C      1  0.5168740000000  0.5990290000000  0.5253120000000 1.0
C      1  0.5720890000000  0.4384010000000  0.5265140000000 1.0
C      1  0.4777160000000  0.4369830000000  0.4804880000000 1.0
C      1  0.4586400000000  0.5481970000000  0.4774380000000 1.0
C      1  0.5689890000000  0.5097170000000  0.4873400000000 1.0
C      1  0.5074090000000  0.4957630000000  0.4658510000000 1.0
END
