TITL C-2441160-1326-873 0.0709121031840149 125000 -18239.1222969736 0 0 134 (C1) n - 1
REM
REM in /home/bkarasulu/work/CARBON/AIRSS/Generating-Clusters/ReaxFF-fromJPCA2015/Units_Real/with-SteepDescent/Higher-Symm
REM
REM
REM
REM
REM
REM ./C.cell (1df0a924f5614ab8850e4351716899ee)
REM
REM compiler GCC version 9.2.1 20190827 (Red Hat 9.2.1-1)
REM options -cpp -mtune=generic -march=x86-64 -g -O0 -fpre-include=/usr/include/finclude/math-vector-fortran.h
REM seed -1309971255 -772135349 2011786458 480079070 -1043691877 860521585 -1298182934 1944329606 -127025838 -1648899483 1908306914 1489438087 1601561871 955910462 1862030705 -553379100 -2037328540 -1490673094 -1226125993 1947173608 1059728606 256072849 -1173267615 348549326 -1602701313 1524135583 665720763 1641475709 212725356 1134093411 947349173 -550584331 1584589387
REM
CELL 1.54180   50.00000   50.00000   50.00000   90.00000   90.00000   90.00000
LATT -1
SFAC C  
C      1  0.5456620000000  0.5011280000000  0.4202630000000 1.0
C      1  0.5159880000000  0.4566970000000  0.4181590000000 1.0
C      1  0.4628320000000  0.4714130000000  0.4159840000000 1.0
C      1  0.4606380000000  0.5251430000000  0.4160780000000 1.0
C      1  0.5126360000000  0.5444720000000  0.4179580000000 1.0
C      1  0.4485010000000  0.5629040000000  0.5094240000000 1.0
C      1  0.5414400000000  0.5658160000000  0.5089410000000 1.0
C      1  0.5748320000000  0.4807280000000  0.5088520000000 1.0
C      1  0.5065850000000  0.4202970000000  0.5094620000000 1.0
C      1  0.4265030000000  0.4697990000000  0.5081160000000 1.0
C      1  0.4212870000000  0.5390160000000  0.4738690000000 1.0
C      1  0.5127080000000  0.5860970000000  0.4759740000000 1.0
C      1  0.5867680000000  0.5136000000000  0.4764500000000 1.0
C      1  0.5396400000000  0.4227100000000  0.4769510000000 1.0
C      1  0.4389060000000  0.4378300000000  0.4760720000000 1.0
C      1  0.5423290000000  0.5782630000000  0.4704800000000 1.0
C      1  0.5879010000000  0.4822160000000  0.4708270000000 1.0
C      1  0.5098110000000  0.4137110000000  0.4697550000000 1.0
C      1  0.4200550000000  0.4621020000000  0.4688610000000 1.0
C      1  0.4385960000000  0.5646350000000  0.4703470000000 1.0
C      1  0.5604090000000  0.5620000000000  0.4876850000000 1.0
C      1  0.5752370000000  0.4625600000000  0.4882540000000 1.0
C      1  0.4874480000000  0.4165950000000  0.4879750000000 1.0
C      1  0.4148950000000  0.4854310000000  0.4856440000000 1.0
C      1  0.4593850000000  0.5774070000000  0.4874400000000 1.0
C      1  0.4551290000000  0.5609230000000  0.4465490000000 1.0
C      1  0.5452830000000  0.5624970000000  0.4464060000000 1.0
C      1  0.5742950000000  0.4770590000000  0.4466470000000 1.0
C      1  0.4988070000000  0.4275100000000  0.4481910000000 1.0
C      1  0.4271290000000  0.4772860000000  0.4457940000000 1.0
C      1  0.5018510000000  0.5821630000000  0.5485760000000 1.0
C      1  0.5795940000000  0.5246120000000  0.5503670000000 1.0
C      1  0.5477930000000  0.4322750000000  0.5495030000000 1.0
C      1  0.4506810000000  0.4333740000000  0.5496490000000 1.0
C      1  0.4255560000000  0.5262520000000  0.5463360000000 1.0
C      1  0.5608030000000  0.4395280000000  0.5232700000000 1.0
C      1  0.4618900000000  0.4231300000000  0.5235220000000 1.0
C      1  0.4274430000000  0.5115540000000  0.5165340000000 1.0
C      1  0.4870470000000  0.5836650000000  0.5224480000000 1.0
C      1  0.5772800000000  0.5386560000000  0.5233780000000 1.0
C      1  0.5326020000000  0.5251590000000  0.4198330000000 1.0
C      1  0.5347190000000  0.4750800000000  0.4294240000000 1.0
C      1  0.4896460000000  0.4646360000000  0.4274690000000 1.0
C      1  0.4661580000000  0.4981260000000  0.4250480000000 1.0
C      1  0.4857610000000  0.5364110000000  0.4166500000000 1.0
C      1  0.4896840000000  0.5330680000000  0.5896120000000 1.0
C      1  0.5298920000000  0.5218870000000  0.5893820000000 1.0
C      1  0.5304680000000  0.4802690000000  0.5944490000000 1.0
C      1  0.4879930000000  0.4667810000000  0.5944430000000 1.0
C      1  0.4634890000000  0.5005340000000  0.5891170000000 1.0
C      1  0.4861190000000  0.4574760000000  0.5460080000000 1.0
C      1  0.4582280000000  0.5018200000000  0.5480330000000 1.0
C      1  0.4900840000000  0.5409020000000  0.5495450000000 1.0
C      1  0.5364220000000  0.5243430000000  0.5488900000000 1.0
C      1  0.5356660000000  0.4729700000000  0.5460590000000 1.0
C      1  0.4265020000000  0.5251860000000  0.4495190000000 1.0
C      1  0.5010240000000  0.5758000000000  0.4519330000000 1.0
C      1  0.5763380000000  0.5232400000000  0.4516290000000 1.0
C      1  0.5430310000000  0.4342430000000  0.4519630000000 1.0
C      1  0.4507710000000  0.4384680000000  0.4505020000000 1.0
C      1  0.4527370000000  0.5685650000000  0.5570540000000 1.0
C      1  0.5502490000000  0.5668580000000  0.5567530000000 1.0
C      1  0.5793770000000  0.4735860000000  0.5560650000000 1.0
C      1  0.4994310000000  0.4168270000000  0.5566900000000 1.0
C      1  0.4205120000000  0.4749820000000  0.5554160000000 1.0
C      1  0.4873990000000  0.5270950000000  0.4697870000000 1.0
C      1  0.5344410000000  0.5185060000000  0.4681890000000 1.0
C      1  0.5230290000000  0.4782290000000  0.4686010000000 1.0
C      1  0.4767840000000  0.4759450000000  0.4708720000000 1.0
C      1  0.4618790000000  0.5025920000000  0.4728040000000 1.0
C      1  0.5718000000000  0.5017660000000  0.4330400000000 1.0
C      1  0.5218540000000  0.4323420000000  0.4323750000000 1.0
C      1  0.4417440000000  0.4576010000000  0.4302950000000 1.0
C      1  0.4416620000000  0.5405750000000  0.4312680000000 1.0
C      1  0.5210410000000  0.5674170000000  0.4328660000000 1.0
C      1  0.5549650000000  0.4581510000000  0.5623450000000 1.0
C      1  0.4768420000000  0.4351820000000  0.5630150000000 1.0
C      1  0.4316010000000  0.5022650000000  0.5616330000000 1.0
C      1  0.4816160000000  0.5657340000000  0.5622040000000 1.0
C      1  0.5571640000000  0.5389750000000  0.5620270000000 1.0
C      1  0.5617480000000  0.5638430000000  0.5295530000000 1.0
C      1  0.5790740000000  0.4621520000000  0.5288930000000 1.0
C      1  0.4880410000000  0.4122720000000  0.5299980000000 1.0
C      1  0.4135970000000  0.4843530000000  0.5291560000000 1.0
C      1  0.4585720000000  0.5796550000000  0.5304760000000 1.0
C      1  0.4793250000000  0.4499840000000  0.4545080000000 1.0
C      1  0.4375380000000  0.5010120000000  0.4567120000000 1.0
C      1  0.4817060000000  0.5535490000000  0.4569620000000 1.0
C      1  0.5526000000000  0.5372690000000  0.4570700000000 1.0
C      1  0.5469730000000  0.4644910000000  0.4532720000000 1.0
C      1  0.4894300000000  0.5841110000000  0.4936180000000 1.0
C      1  0.5784340000000  0.5337130000000  0.4952040000000 1.0
C      1  0.5570450000000  0.4388000000000  0.4946050000000 1.0
C      1  0.4600990000000  0.4264580000000  0.4942350000000 1.0
C      1  0.4133470000000  0.5161530000000  0.4904780000000 1.0
C      1  0.5151110000000  0.5382720000000  0.5366870000000 1.0
C      1  0.5429270000000  0.4989040000000  0.5367460000000 1.0
C      1  0.5129700000000  0.4595450000000  0.5351410000000 1.0
C      1  0.4657710000000  0.4758300000000  0.5379360000000 1.0
C      1  0.4711980000000  0.5248320000000  0.5366450000000 1.0
C      1  0.5223860000000  0.4330550000000  0.5635260000000 1.0
C      1  0.4417130000000  0.4569250000000  0.5645780000000 1.0
C      1  0.4422160000000  0.5422420000000  0.5634090000000 1.0
C      1  0.5223300000000  0.5687690000000  0.5642250000000 1.0
C      1  0.5731310000000  0.5003070000000  0.5649150000000 1.0
C      1  0.5147870000000  0.5453880000000  0.5856650000000 1.0
C      1  0.5490080000000  0.5013820000000  0.5850640000000 1.0
C      1  0.5128220000000  0.4624150000000  0.5778900000000 1.0
C      1  0.4607630000000  0.4728170000000  0.5848370000000 1.0
C      1  0.4622120000000  0.5281860000000  0.5852310000000 1.0
C      1  0.4928770000000  0.5404430000000  0.4948080000000 1.0
C      1  0.5327270000000  0.5141800000000  0.4964370000000 1.0
C      1  0.5201690000000  0.4717990000000  0.4955620000000 1.0
C      1  0.4795570000000  0.4747520000000  0.4989440000000 1.0
C      1  0.4531160000000  0.5124050000000  0.5000950000000 1.0
C      1  0.4677500000000  0.5351850000000  0.5090990000000 1.0
C      1  0.5194400000000  0.5408190000000  0.5076250000000 1.0
C      1  0.5538490000000  0.5001090000000  0.5103440000000 1.0
C      1  0.5181010000000  0.4472870000000  0.5100950000000 1.0
C      1  0.4555640000000  0.4707670000000  0.5122100000000 1.0
C      1  0.5008240000000  0.4973260000000  0.5361160000000 1.0
C      1  0.5025720000000  0.4912640000000  0.5621220000000 1.0
C      1  0.5108160000000  0.5038040000000  0.4596860000000 1.0
C      1  0.5024750000000  0.4925380000000  0.5079410000000 1.0
C      1  0.4998260000000  0.5000550000000  0.3062090000000 1.0
C      1  0.4998540000000  0.5017700000000  0.6559400000000 1.0
C      1  0.5044200000000  0.5015890000000  0.4038970000000 1.0
C      1  0.4997490000000  0.4996800000000  0.3304740000000 1.0
C      1  0.5023730000000  0.5006010000000  0.3804280000000 1.0
C      1  0.4944680000000  0.4948430000000  0.4310840000000 1.0
C      1  0.5002440000000  0.4995880000000  0.3556160000000 1.0
C      1  0.5041320000000  0.4899060000000  0.6065130000000 1.0
C      1  0.5018740000000  0.4963270000000  0.6317970000000 1.0
C      1  0.4989630000000  0.5031170000000  0.6801830000000 1.0
END
