TITL C-2441160-1326-1113 0.120855366469971 125000 -25576.6952565518 0 0 186 (C1) n - 1
REM
REM in /home/bkarasulu/work/CARBON/AIRSS/Generating-Clusters/ReaxFF-fromJPCA2015/Units_Real/with-SteepDescent/Higher-Symm
REM
REM
REM
REM
REM
REM ./C.cell (1df0a924f5614ab8850e4351716899ee)
REM
REM compiler GCC version 9.2.1 20190827 (Red Hat 9.2.1-1)
REM options -cpp -mtune=generic -march=x86-64 -g -O0 -fpre-include=/usr/include/finclude/math-vector-fortran.h
REM seed 560927824 1355256182 -421889491 -1401613200 453219184 -674246243 -1232041729 1874041429 -642602584 2045901757 192918729 836704217 1352809256 -587366906 1578923212 2096009896 742959019 675627591 2056514515 501666630 828727991 -94592003 1372921045 1826274890 -1011688044 990906236 1692378899 83380715 -824601009 1065044893 24618651 -1534042947 905763438
REM
CELL 1.54180   50.00000   50.00000   50.00000   90.00000   90.00000   90.00000
LATT -1
SFAC C  
C      1  0.5245720000000  0.4920970000000  0.6074220000000 1.0
C      1  0.3923930000000  0.4919100000000  0.4676880000000 1.0
C      1  0.5770350000000  0.4878110000000  0.4257480000000 1.0
C      1  0.4766220000000  0.5070530000000  0.6077500000000 1.0
C      1  0.6032750000000  0.5108230000000  0.4688630000000 1.0
C      1  0.4223780000000  0.5102800000000  0.4273780000000 1.0
C      1  0.4758900000000  0.5084590000000  0.3925820000000 1.0
C      1  0.6082360000000  0.5081270000000  0.5322510000000 1.0
C      1  0.4235840000000  0.5115230000000  0.5737470000000 1.0
C      1  0.5233150000000  0.4938510000000  0.3926560000000 1.0
C      1  0.3978020000000  0.4893850000000  0.5298600000000 1.0
C      1  0.5772510000000  0.4898080000000  0.5729020000000 1.0
C      1  0.5225530000000  0.5865640000000  0.4300690000000 1.0
C      1  0.5478780000000  0.5853310000000  0.5546730000000 1.0
C      1  0.4278720000000  0.5872520000000  0.5143620000000 1.0
C      1  0.4761420000000  0.4145910000000  0.4305890000000 1.0
C      1  0.4517370000000  0.4134350000000  0.5555280000000 1.0
C      1  0.5725680000000  0.4120890000000  0.5159520000000 1.0
C      1  0.4767680000000  0.4139060000000  0.5700650000000 1.0
C      1  0.4513720000000  0.4147340000000  0.4450520000000 1.0
C      1  0.5720180000000  0.4123840000000  0.4866500000000 1.0
C      1  0.5231920000000  0.5858050000000  0.5695140000000 1.0
C      1  0.5476580000000  0.5871450000000  0.4445190000000 1.0
C      1  0.4284340000000  0.5872170000000  0.4854860000000 1.0
C      1  0.5244080000000  0.3896460000000  0.4849660000000 1.0
C      1  0.5017770000000  0.3922910000000  0.5304360000000 1.0
C      1  0.4750950000000  0.3939650000000  0.4857720000000 1.0
C      1  0.4747620000000  0.6089380000000  0.4850210000000 1.0
C      1  0.4999410000000  0.6060950000000  0.5287900000000 1.0
C      1  0.5222760000000  0.6088900000000  0.4846840000000 1.0
C      1  0.4756340000000  0.6098430000000  0.5138500000000 1.0
C      1  0.4974980000000  0.6067080000000  0.4697890000000 1.0
C      1  0.5243120000000  0.6060000000000  0.5140180000000 1.0
C      1  0.5254370000000  0.3889800000000  0.5151310000000 1.0
C      1  0.4995010000000  0.3938160000000  0.4710400000000 1.0
C      1  0.4767460000000  0.3904700000000  0.5151020000000 1.0
C      1  0.4991070000000  0.5619180000000  0.5299020000000 1.0
C      1  0.4701010000000  0.5657580000000  0.4759820000000 1.0
C      1  0.5300390000000  0.5648890000000  0.4826290000000 1.0
C      1  0.5005860000000  0.4373970000000  0.5317860000000 1.0
C      1  0.5291880000000  0.4339880000000  0.4806800000000 1.0
C      1  0.4738750000000  0.4371970000000  0.4843320000000 1.0
C      1  0.5008540000000  0.4378430000000  0.4700930000000 1.0
C      1  0.5299390000000  0.4341590000000  0.5202550000000 1.0
C      1  0.4711750000000  0.4332880000000  0.5165890000000 1.0
C      1  0.4985220000000  0.5628180000000  0.4688700000000 1.0
C      1  0.4696400000000  0.5659230000000  0.5238420000000 1.0
C      1  0.5268150000000  0.5635860000000  0.5145090000000 1.0
C      1  0.4134050000000  0.5273610000000  0.5523190000000 1.0
C      1  0.4951060000000  0.5279640000000  0.4057850000000 1.0
C      1  0.5823630000000  0.5260470000000  0.5413310000000 1.0
C      1  0.5872220000000  0.4723040000000  0.5530610000000 1.0
C      1  0.5049390000000  0.4738740000000  0.4093590000000 1.0
C      1  0.4099810000000  0.4730350000000  0.5494130000000 1.0
C      1  0.5860660000000  0.4725310000000  0.4482460000000 1.0
C      1  0.5050980000000  0.4735710000000  0.5901300000000 1.0
C      1  0.4182490000000  0.4738650000000  0.4593430000000 1.0
C      1  0.4131910000000  0.5283710000000  0.4472020000000 1.0
C      1  0.4949260000000  0.5257050000000  0.5885050000000 1.0
C      1  0.5905720000000  0.5278400000000  0.4499770000000 1.0
C      1  0.5132050000000  0.4813730000000  0.4419160000000 1.0
C      1  0.5388810000000  0.4721510000000  0.5501850000000 1.0
C      1  0.4381290000000  0.4723770000000  0.5070840000000 1.0
C      1  0.4908570000000  0.5230130000000  0.4434700000000 1.0
C      1  0.4600330000000  0.5279630000000  0.5513480000000 1.0
C      1  0.5645380000000  0.5172350000000  0.5197140000000 1.0
C      1  0.4841430000000  0.5176400000000  0.5589710000000 1.0
C      1  0.4629770000000  0.5288170000000  0.4493360000000 1.0
C      1  0.5622630000000  0.5265090000000  0.4932090000000 1.0
C      1  0.5147380000000  0.4813170000000  0.5598750000000 1.0
C      1  0.5389380000000  0.4721010000000  0.4493610000000 1.0
C      1  0.4361200000000  0.4813880000000  0.4811710000000 1.0
C      1  0.5099530000000  0.5457370000000  0.4483840000000 1.0
C      1  0.5369180000000  0.5475560000000  0.5359410000000 1.0
C      1  0.4487460000000  0.5491290000000  0.5128930000000 1.0
C      1  0.4895920000000  0.4560160000000  0.4488130000000 1.0
C      1  0.4611050000000  0.4493680000000  0.5384930000000 1.0
C      1  0.5520790000000  0.4511190000000  0.5113140000000 1.0
C      1  0.4851790000000  0.4544500000000  0.5499220000000 1.0
C      1  0.4641410000000  0.4527790000000  0.4623300000000 1.0
C      1  0.5529300000000  0.4513850000000  0.4835010000000 1.0
C      1  0.5129400000000  0.5454780000000  0.5495090000000 1.0
C      1  0.5352050000000  0.5475270000000  0.4587510000000 1.0
C      1  0.4496090000000  0.5487890000000  0.4864350000000 1.0
C      1  0.4631000000000  0.5130110000000  0.5222240000000 1.0
C      1  0.4942960000000  0.5131580000000  0.4707770000000 1.0
C      1  0.5387230000000  0.5089240000000  0.5259590000000 1.0
C      1  0.5327150000000  0.4840090000000  0.5229270000000 1.0
C      1  0.5080170000000  0.4896080000000  0.4699500000000 1.0
C      1  0.4548180000000  0.4869440000000  0.5243160000000 1.0
C      1  0.5376190000000  0.4871840000000  0.4762990000000 1.0
C      1  0.5060080000000  0.4863070000000  0.5322360000000 1.0
C      1  0.4615540000000  0.4900660000000  0.4743770000000 1.0
C      1  0.4670040000000  0.5156720000000  0.4759140000000 1.0
C      1  0.4917530000000  0.5106210000000  0.5315590000000 1.0
C      1  0.5465260000000  0.5128290000000  0.4757580000000 1.0
C      1  0.5223240000000  0.5200790000000  0.5980400000000 1.0
C      1  0.3987620000000  0.5206950000000  0.4693060000000 1.0
C      1  0.5668820000000  0.5183800000000  0.4320130000000 1.0
C      1  0.4788200000000  0.4792880000000  0.5995730000000 1.0
C      1  0.5999630000000  0.4819540000000  0.4713250000000 1.0
C      1  0.4266630000000  0.4823480000000  0.4319480000000 1.0
C      1  0.4775730000000  0.4794470000000  0.4010950000000 1.0
C      1  0.6021310000000  0.4793210000000  0.5307710000000 1.0
C      1  0.4244620000000  0.4825430000000  0.5725360000000 1.0
C      1  0.5209420000000  0.5222110000000  0.3985560000000 1.0
C      1  0.4008360000000  0.5177490000000  0.5289340000000 1.0
C      1  0.5739310000000  0.5178440000000  0.5688270000000 1.0
C      1  0.4519060000000  0.4126350000000  0.4756570000000 1.0
C      1  0.5444110000000  0.4090410000000  0.4763990000000 1.0
C      1  0.5031940000000  0.4128310000000  0.5540080000000 1.0
C      1  0.5418860000000  0.5908340000000  0.4728520000000 1.0
C      1  0.4559430000000  0.5905910000000  0.4758710000000 1.0
C      1  0.4966140000000  0.5877620000000  0.5546940000000 1.0
C      1  0.5474620000000  0.5873760000000  0.5241880000000 1.0
C      1  0.4554310000000  0.5912720000000  0.5242660000000 1.0
C      1  0.4958190000000  0.5877770000000  0.4457340000000 1.0
C      1  0.4573840000000  0.4085900000000  0.5271820000000 1.0
C      1  0.5447280000000  0.4088690000000  0.5250340000000 1.0
C      1  0.5027820000000  0.4134720000000  0.4459530000000 1.0
C      1  0.4763050000000  0.5713680000000  0.5700060000000 1.0
C      1  0.4502240000000  0.5522810000000  0.4364900000000 1.0
C      1  0.5790790000000  0.5529100000000  0.4892600000000 1.0
C      1  0.5242790000000  0.4289120000000  0.5707320000000 1.0
C      1  0.5487400000000  0.4471760000000  0.4369060000000 1.0
C      1  0.4273890000000  0.4289580000000  0.4859270000000 1.0
C      1  0.5231940000000  0.4289840000000  0.4296700000000 1.0
C      1  0.5491870000000  0.4464370000000  0.5636430000000 1.0
C      1  0.4216150000000  0.4470400000000  0.5110990000000 1.0
C      1  0.4755310000000  0.5708280000000  0.4294460000000 1.0
C      1  0.4494960000000  0.5533410000000  0.5643280000000 1.0
C      1  0.5728090000000  0.5703440000000  0.5137560000000 1.0
C      1  0.4228680000000  0.5550700000000  0.4488600000000 1.0
C      1  0.5843610000000  0.5549530000000  0.4590790000000 1.0
C      1  0.4923480000000  0.5574290000000  0.5885470000000 1.0
C      1  0.5750480000000  0.4454110000000  0.4517030000000 1.0
C      1  0.4188980000000  0.4419630000000  0.4624330000000 1.0
C      1  0.5077950000000  0.4422010000000  0.5892180000000 1.0
C      1  0.5777910000000  0.4445320000000  0.5536720000000 1.0
C      1  0.4158270000000  0.4451930000000  0.5410330000000 1.0
C      1  0.5073780000000  0.4421640000000  0.4104080000000 1.0
C      1  0.4224010000000  0.5549730000000  0.5510730000000 1.0
C      1  0.5808500000000  0.5578600000000  0.5377110000000 1.0
C      1  0.4913520000000  0.5577080000000  0.4098630000000 1.0
C      1  0.4619420000000  0.4563260000000  0.5960690000000 1.0
C      1  0.4362030000000  0.4579340000000  0.4197170000000 1.0
C      1  0.6018090000000  0.4565160000000  0.4866080000000 1.0
C      1  0.5387780000000  0.5437470000000  0.5957540000000 1.0
C      1  0.5624500000000  0.5451960000000  0.4177120000000 1.0
C      1  0.3980750000000  0.5442680000000  0.4856360000000 1.0
C      1  0.5377560000000  0.5454730000000  0.4030490000000 1.0
C      1  0.5634920000000  0.5422940000000  0.5803860000000 1.0
C      1  0.3989100000000  0.5427010000000  0.5139660000000 1.0
C      1  0.4607590000000  0.4562000000000  0.4040470000000 1.0
C      1  0.4373000000000  0.4576090000000  0.5810440000000 1.0
C      1  0.6024240000000  0.4549260000000  0.5151790000000 1.0
C      1  0.6091760000000  0.5207330000000  0.5104260000000 1.0
C      1  0.4370890000000  0.5334270000000  0.5876610000000 1.0
C      1  0.4546810000000  0.5201350000000  0.4019200000000 1.0
C      1  0.3929910000000  0.4659600000000  0.5123460000000 1.0
C      1  0.5646910000000  0.4667470000000  0.5866240000000 1.0
C      1  0.5463950000000  0.4817180000000  0.3996330000000 1.0
C      1  0.3907790000000  0.4787860000000  0.4895900000000 1.0
C      1  0.5627370000000  0.4658970000000  0.4136910000000 1.0
C      1  0.5455580000000  0.4792030000000  0.5991420000000 1.0
C      1  0.6076880000000  0.5335800000000  0.4877880000000 1.0
C      1  0.4362690000000  0.5318590000000  0.4129930000000 1.0
C      1  0.4547930000000  0.5204290000000  0.6015980000000 1.0
C      1  0.4798660000000  0.4331420000000  0.5911590000000 1.0
C      1  0.4313370000000  0.4343350000000  0.4371960000000 1.0
C      1  0.5881090000000  0.4334990000000  0.4743880000000 1.0
C      1  0.5200700000000  0.5664130000000  0.5909130000000 1.0
C      1  0.5678800000000  0.5659620000000  0.4375140000000 1.0
C      1  0.4122970000000  0.5665870000000  0.4724540000000 1.0
C      1  0.5193070000000  0.5679160000000  0.4086890000000 1.0
C      1  0.5679610000000  0.5658090000000  0.5626510000000 1.0
C      1  0.4119180000000  0.5659100000000  0.5269930000000 1.0
C      1  0.4794240000000  0.4333810000000  0.4088450000000 1.0
C      1  0.4322720000000  0.4352220000000  0.5623300000000 1.0
C      1  0.5881380000000  0.4330930000000  0.5293690000000 1.0
C      1  0.4656970000000  0.4755290000000  0.5475080000000 1.0
C      1  0.4695440000000  0.4771100000000  0.4513410000000 1.0
C      1  0.5535540000000  0.4761990000000  0.4986020000000 1.0
C      1  0.5425820000000  0.5224050000000  0.4510840000000 1.0
C      1  0.4469580000000  0.5237740000000  0.4996490000000 1.0
C      1  0.5304840000000  0.5231000000000  0.5488430000000 1.0
END
