TITL C-2441164-471-1284 0.00365817291726705 125000 -7410.68154420257 0 0 53 (C1) n - 1
REM
REM in /home/bkarasulu/work/CARBON/AIRSS/Generating-Clusters/ReaxFF-fromJPCA2015/Units_Real/with-SteepDescent/Higher-Symm
REM
REM
REM
REM
REM
REM ./C.cell (1df0a924f5614ab8850e4351716899ee)
REM
REM compiler GCC version 9.2.1 20190827 (Red Hat 9.2.1-1)
REM options -cpp -mtune=generic -march=x86-64 -g -O0 -fpre-include=/usr/include/finclude/math-vector-fortran.h
REM seed 152700738 -1347133533 -287453268 1469863450 295086703 -2145491325 -743068206 1086823952 -1002137174 -1893123170 -104469253 76221774 538950390 1130364872 -929522997 71551900 700803865 221620935 -2113119666 -269713769 1321428604 286523653 -2117645297 1174277210 1902879419 -1240723833 1362043431 -2064757807 -1197247732 -2027439917 1998706635 -898756611 -1656982293
REM
CELL 1.54180   50.00000   50.00000   50.00000   90.00000   90.00000   90.00000
LATT -1
SFAC C  
C      1  0.4996560000000  0.4774390000000  0.5634520000000 1.0
C      1  0.4822410000000  0.5136970000000  0.5627490000000 1.0
C      1  0.5223050000000  0.5107170000000  0.5626380000000 1.0
C      1  0.4987060000000  0.5220450000000  0.4396070000000 1.0
C      1  0.4780130000000  0.4868860000000  0.4399270000000 1.0
C      1  0.5188680000000  0.4867320000000  0.4373890000000 1.0
C      1  0.5309960000000  0.4802250000000  0.4623610000000 1.0
C      1  0.4666490000000  0.4819980000000  0.4636830000000 1.0
C      1  0.5012270000000  0.5323080000000  0.4635280000000 1.0
C      1  0.5300960000000  0.5183850000000  0.5363490000000 1.0
C      1  0.4701790000000  0.5148060000000  0.5369020000000 1.0
C      1  0.5028510000000  0.4648300000000  0.5382180000000 1.0
C      1  0.5500960000000  0.4499950000000  0.5192000000000 1.0
C      1  0.4319800000000  0.4827250000000  0.5199860000000 1.0
C      1  0.5195760000000  0.5668800000000  0.5186780000000 1.0
C      1  0.5471210000000  0.5478870000000  0.4774930000000 1.0
C      1  0.4328830000000  0.5178500000000  0.4786730000000 1.0
C      1  0.5212940000000  0.4314390000000  0.4776640000000 1.0
C      1  0.4619150000000  0.4430760000000  0.5189720000000 1.0
C      1  0.4716480000000  0.5629070000000  0.5184200000000 1.0
C      1  0.5699010000000  0.4930840000000  0.5189010000000 1.0
C      1  0.4612370000000  0.5553170000000  0.4793330000000 1.0
C      1  0.4705660000000  0.4404370000000  0.4766860000000 1.0
C      1  0.5695040000000  0.5079160000000  0.4810410000000 1.0
C      1  0.4944160000000  0.5786510000000  0.5121970000000 1.0
C      1  0.5733290000000  0.4661060000000  0.5122730000000 1.0
C      1  0.4369960000000  0.4541810000000  0.5084350000000 1.0
C      1  0.5013880000000  0.4185420000000  0.4940720000000 1.0
C      1  0.5701200000000  0.5370270000000  0.4876750000000 1.0
C      1  0.4355090000000  0.5459100000000  0.4847240000000 1.0
C      1  0.5276410000000  0.5271960000000  0.4685950000000 1.0
C      1  0.5118870000000  0.4594090000000  0.4684480000000 1.0
C      1  0.4606790000000  0.5083370000000  0.4709110000000 1.0
C      1  0.5290170000000  0.4703900000000  0.5267560000000 1.0
C      1  0.5115900000000  0.5391350000000  0.5267910000000 1.0
C      1  0.4602420000000  0.4885850000000  0.5282520000000 1.0
C      1  0.4743250000000  0.4225070000000  0.5007080000000 1.0
C      1  0.4453050000000  0.5577740000000  0.5067250000000 1.0
C      1  0.5779550000000  0.5193740000000  0.5077850000000 1.0
C      1  0.4781540000000  0.5764450000000  0.4907570000000 1.0
C      1  0.4461770000000  0.4543310000000  0.4814760000000 1.0
C      1  0.5791720000000  0.4819570000000  0.4911030000000 1.0
C      1  0.4860530000000  0.4664530000000  0.4814650000000 1.0
C      1  0.4803350000000  0.5274530000000  0.4828200000000 1.0
C      1  0.5366210000000  0.5021000000000  0.4821340000000 1.0
C      1  0.4848670000000  0.5316050000000  0.5164680000000 1.0
C      1  0.4793400000000  0.4676730000000  0.5181600000000 1.0
C      1  0.5360710000000  0.4968560000000  0.5160060000000 1.0
C      1  0.5372140000000  0.4333410000000  0.5007670000000 1.0
C      1  0.5395780000000  0.5600310000000  0.5005990000000 1.0
C      1  0.4280490000000  0.5007750000000  0.5000090000000 1.0
C      1  0.4971440000000  0.4990970000000  0.4283780000000 1.0
C      1  0.5014950000000  0.5010090000000  0.5744800000000 1.0
END
