TITL C-2441158-471-1442 0.184711078463057 125000 -22339.2117564052 0 0 184 (C1) n - 1
REM
REM in /home/bkarasulu/work/CARBON/AIRSS/Generating-Clusters/ReaxFF-fromJPCA2015/Units_Real/with-SteepDescent/Higher-Symm
REM
REM
REM
REM
REM
REM ./C.cell (1df0a924f5614ab8850e4351716899ee)
REM
REM compiler GCC version 9.2.1 20190827 (Red Hat 9.2.1-1)
REM options -cpp -mtune=generic -march=x86-64 -g -O0 -fpre-include=/usr/include/finclude/math-vector-fortran.h
REM seed -2097453932 -1396673747 -1764804150 -660867062 -619476293 -1449640223 -256528291 -1060913786 -657748319 -697407998 -1067423890 2039607365 -1288917582 -227534696 105714606 -865715653 1592882708 562060975 1495659958 436929506 1797447557 782410128 -510155521 -2075924150 790575019 562844049 356738526 2005804886 1680613910 -1171901644 -1297527930 -579215780 -151645438
REM
CELL 1.54180   50.00000   50.00000   50.00000   90.00000   90.00000   90.00000
LATT -1
SFAC C  
C      1  0.4930770000000  0.4676020000000  0.4882320000000 1.0
C      1  0.5133210000000  0.4852030000000  0.4552930000000 1.0
C      1  0.4921690000000  0.5039600000000  0.4644690000000 1.0
C      1  0.5041290000000  0.5126740000000  0.4905260000000 1.0
C      1  0.4942560000000  0.5445710000000  0.4875640000000 1.0
C      1  0.5176510000000  0.5380700000000  0.5214960000000 1.0
C      1  0.4976500000000  0.5166980000000  0.5196830000000 1.0
C      1  0.5125640000000  0.4905330000000  0.5417890000000 1.0
C      1  0.4819600000000  0.4693710000000  0.5301900000000 1.0
C      1  0.5146680000000  0.4667690000000  0.5032930000000 1.0
C      1  0.4990750000000  0.5062880000000  0.5941560000000 1.0
C      1  0.4965590000000  0.4518930000000  0.5781940000000 1.0
C      1  0.4989910000000  0.4148820000000  0.5366500000000 1.0
C      1  0.5006180000000  0.4089500000000  0.4759360000000 1.0
C      1  0.5003290000000  0.4387060000000  0.4214360000000 1.0
C      1  0.4994850000000  0.4949620000000  0.4104730000000 1.0
C      1  0.5024570000000  0.5464930000000  0.4239760000000 1.0
C      1  0.4985760000000  0.5933110000000  0.4650310000000 1.0
C      1  0.5009810000000  0.5844200000000  0.5224610000000 1.0
C      1  0.4982160000000  0.5581580000000  0.5698860000000 1.0
C      1  0.4607290000000  0.4731070000000  0.5124060000000 1.0
C      1  0.5402730000000  0.4663390000000  0.4902500000000 1.0
C      1  0.4487730000000  0.4923020000000  0.4663010000000 1.0
C      1  0.5403460000000  0.5022040000000  0.4672200000000 1.0
C      1  0.4546540000000  0.5338650000000  0.4808220000000 1.0
C      1  0.5517450000000  0.5301600000000  0.5010670000000 1.0
C      1  0.4511530000000  0.5202400000000  0.5177160000000 1.0
C      1  0.5494190000000  0.5042220000000  0.5427370000000 1.0
C      1  0.4496310000000  0.5045100000000  0.5409780000000 1.0
C      1  0.5405760000000  0.4793070000000  0.5308370000000 1.0
C      1  0.4393940000000  0.5175460000000  0.5859560000000 1.0
C      1  0.5676140000000  0.4644300000000  0.5650840000000 1.0
C      1  0.4408030000000  0.4290120000000  0.5404560000000 1.0
C      1  0.5572010000000  0.4151750000000  0.4944340000000 1.0
C      1  0.4425150000000  0.4384510000000  0.4426100000000 1.0
C      1  0.5580700000000  0.4831360000000  0.4180260000000 1.0
C      1  0.4409230000000  0.5306760000000  0.4261970000000 1.0
C      1  0.5537460000000  0.5747560000000  0.4574950000000 1.0
C      1  0.4424380000000  0.5802890000000  0.5051790000000 1.0
C      1  0.5676380000000  0.5476030000000  0.5544020000000 1.0
C      1  0.3989520000000  0.4997310000000  0.5533730000000 1.0
C      1  0.6039430000000  0.4856310000000  0.5449800000000 1.0
C      1  0.3992800000000  0.4608320000000  0.5231900000000 1.0
C      1  0.6004500000000  0.4562980000000  0.4982470000000 1.0
C      1  0.4004940000000  0.4642320000000  0.4717650000000 1.0
C      1  0.5999430000000  0.4870470000000  0.4560850000000 1.0
C      1  0.4019090000000  0.5211270000000  0.4591310000000 1.0
C      1  0.5977480000000  0.5363060000000  0.4760810000000 1.0
C      1  0.3905860000000  0.5511670000000  0.5023130000000 1.0
C      1  0.6063390000000  0.5355710000000  0.5284860000000 1.0
C      1  0.4590280000000  0.4964700000000  0.5870570000000 1.0
C      1  0.5421200000000  0.4552950000000  0.5748610000000 1.0
C      1  0.4608910000000  0.4222540000000  0.5207770000000 1.0
C      1  0.5415480000000  0.4178020000000  0.4706860000000 1.0
C      1  0.4596170000000  0.4580780000000  0.4300480000000 1.0
C      1  0.5407690000000  0.5050310000000  0.4224880000000 1.0
C      1  0.4611200000000  0.5443330000000  0.4353920000000 1.0
C      1  0.5416420000000  0.5788730000000  0.4832370000000 1.0
C      1  0.4580190000000  0.5725370000000  0.5264700000000 1.0
C      1  0.5443690000000  0.5558600000000  0.5680320000000 1.0
C      1  0.4381940000000  0.4227400000000  0.4867810000000 1.0
C      1  0.5650060000000  0.4403980000000  0.4462700000000 1.0
C      1  0.4344340000000  0.4889140000000  0.4193300000000 1.0
C      1  0.5641790000000  0.5364520000000  0.4291350000000 1.0
C      1  0.4338780000000  0.5660830000000  0.4555290000000 1.0
C      1  0.5654650000000  0.5774590000000  0.5176930000000 1.0
C      1  0.4382900000000  0.5519550000000  0.5551500000000 1.0
C      1  0.5670990000000  0.5116260000000  0.5851210000000 1.0
C      1  0.4390400000000  0.4673440000000  0.5627850000000 1.0
C      1  0.5619300000000  0.4358700000000  0.5300420000000 1.0
C      1  0.5881740000000  0.4420680000000  0.4612960000000 1.0
C      1  0.4187160000000  0.4718080000000  0.4362750000000 1.0
C      1  0.5808720000000  0.5138590000000  0.4326840000000 1.0
C      1  0.4189140000000  0.5445920000000  0.4446980000000 1.0
C      1  0.5842680000000  0.5686380000000  0.4979660000000 1.0
C      1  0.4222740000000  0.5622030000000  0.5344220000000 1.0
C      1  0.5835450000000  0.5275580000000  0.5668030000000 1.0
C      1  0.4180670000000  0.4859700000000  0.5693680000000 1.0
C      1  0.5819490000000  0.4505720000000  0.5446220000000 1.0
C      1  0.4179740000000  0.4300170000000  0.5051820000000 1.0
C      1  0.5084280000000  0.5156010000000  0.3926630000000 1.0
C      1  0.4890880000000  0.5720450000000  0.4248280000000 1.0
C      1  0.5090800000000  0.6082180000000  0.4879630000000 1.0
C      1  0.4901150000000  0.5965110000000  0.5473270000000 1.0
C      1  0.5081900000000  0.5477760000000  0.5945000000000 1.0
C      1  0.4898550000000  0.4830470000000  0.6096680000000 1.0
C      1  0.5070900000000  0.4239850000000  0.5768250000000 1.0
C      1  0.4922910000000  0.3931300000000  0.5173360000000 1.0
C      1  0.5102080000000  0.4060610000000  0.4483100000000 1.0
C      1  0.4915310000000  0.4554500000000  0.3996760000000 1.0
C      1  0.4826120000000  0.5030890000000  0.5705540000000 1.0
C      1  0.5124710000000  0.4648090000000  0.5562950000000 1.0
C      1  0.4837480000000  0.4385310000000  0.5281670000000 1.0
C      1  0.5180670000000  0.4330830000000  0.4777790000000 1.0
C      1  0.4796840000000  0.4544170000000  0.4670080000000 1.0
C      1  0.5172790000000  0.4966260000000  0.4312260000000 1.0
C      1  0.4838220000000  0.5282820000000  0.4462190000000 1.0
C      1  0.5179380000000  0.5461680000000  0.4698380000000 1.0
C      1  0.4827250000000  0.5592990000000  0.5153880000000 1.0
C      1  0.5173980000000  0.5417440000000  0.5494650000000 1.0
C      1  0.4162510000000  0.5406450000000  0.4939140000000 1.0
C      1  0.5866770000000  0.5186620000000  0.5162400000000 1.0
C      1  0.4025920000000  0.5153580000000  0.5303920000000 1.0
C      1  0.5827170000000  0.4947880000000  0.5264320000000 1.0
C      1  0.4210170000000  0.4753950000000  0.5087590000000 1.0
C      1  0.5798490000000  0.4759430000000  0.4917720000000 1.0
C      1  0.4288470000000  0.4695680000000  0.4803070000000 1.0
C      1  0.5714170000000  0.4856300000000  0.4658030000000 1.0
C      1  0.4162460000000  0.5147320000000  0.4837740000000 1.0
C      1  0.5697010000000  0.5318130000000  0.4783110000000 1.0
C      1  0.5104020000000  0.5856650000000  0.4385410000000 1.0
C      1  0.4869760000000  0.6056050000000  0.5067330000000 1.0
C      1  0.5090150000000  0.5839670000000  0.5656200000000 1.0
C      1  0.4853760000000  0.5317400000000  0.6020340000000 1.0
C      1  0.5104530000000  0.4651940000000  0.6015070000000 1.0
C      1  0.4843160000000  0.4125600000000  0.5624130000000 1.0
C      1  0.5144400000000  0.3935980000000  0.4992850000000 1.0
C      1  0.4864810000000  0.4166050000000  0.4356790000000 1.0
C      1  0.5134910000000  0.4747210000000  0.3950840000000 1.0
C      1  0.4878200000000  0.5362790000000  0.3992140000000 1.0
C      1  0.4614690000000  0.4949670000000  0.4029240000000 1.0
C      1  0.5371240000000  0.5505730000000  0.4163030000000 1.0
C      1  0.4702170000000  0.5883920000000  0.4658100000000 1.0
C      1  0.5372700000000  0.5895260000000  0.5269260000000 1.0
C      1  0.4648620000000  0.5615220000000  0.5715780000000 1.0
C      1  0.5395740000000  0.5079170000000  0.5941660000000 1.0
C      1  0.4599130000000  0.4522740000000  0.5792450000000 1.0
C      1  0.5400600000000  0.4173400000000  0.5392860000000 1.0
C      1  0.4634440000000  0.4052180000000  0.4765400000000 1.0
C      1  0.5293440000000  0.4403210000000  0.4230570000000 1.0
C      1  0.5644800000000  0.4924300000000  0.5638510000000 1.0
C      1  0.4400230000000  0.4591460000000  0.5346410000000 1.0
C      1  0.5576530000000  0.4432400000000  0.5024860000000 1.0
C      1  0.4412400000000  0.4461190000000  0.4705530000000 1.0
C      1  0.5638460000000  0.4690680000000  0.4425330000000 1.0
C      1  0.4393380000000  0.5063870000000  0.4416180000000 1.0
C      1  0.5642720000000  0.5482210000000  0.4556970000000 1.0
C      1  0.4390440000000  0.5574340000000  0.4854170000000 1.0
C      1  0.5626260000000  0.5495720000000  0.5260260000000 1.0
C      1  0.4364670000000  0.5234320000000  0.5580780000000 1.0
C      1  0.3977620000000  0.4733740000000  0.5496090000000 1.0
C      1  0.6027840000000  0.4617800000000  0.5279260000000 1.0
C      1  0.3959960000000  0.4463140000000  0.4977560000000 1.0
C      1  0.6082170000000  0.4609820000000  0.4692350000000 1.0
C      1  0.4012500000000  0.4863850000000  0.4533350000000 1.0
C      1  0.6014830000000  0.5157330000000  0.4525370000000 1.0
C      1  0.3903140000000  0.5438850000000  0.4750330000000 1.0
C      1  0.6052050000000  0.5499560000000  0.5009730000000 1.0
C      1  0.3998980000000  0.5449800000000  0.5289890000000 1.0
C      1  0.6045620000000  0.5159380000000  0.5503170000000 1.0
C      1  0.5242020000000  0.4540930000000  0.5299780000000 1.0
C      1  0.4712870000000  0.4542420000000  0.4947440000000 1.0
C      1  0.5265700000000  0.4583390000000  0.4653570000000 1.0
C      1  0.4696750000000  0.4757870000000  0.4504830000000 1.0
C      1  0.5296970000000  0.5258250000000  0.4535190000000 1.0
C      1  0.4763610000000  0.5444330000000  0.4709810000000 1.0
C      1  0.5319720000000  0.5532450000000  0.4950270000000 1.0
C      1  0.4749910000000  0.5335620000000  0.5281910000000 1.0
C      1  0.5242290000000  0.5137840000000  0.5528990000000 1.0
C      1  0.4737160000000  0.4892430000000  0.5478940000000 1.0
C      1  0.5368650000000  0.5741960000000  0.4342030000000 1.0
C      1  0.4622080000000  0.5973250000000  0.4921260000000 1.0
C      1  0.5351730000000  0.5815130000000  0.5553240000000 1.0
C      1  0.4597370000000  0.5389720000000  0.5906740000000 1.0
C      1  0.5344880000000  0.4778900000000  0.5941630000000 1.0
C      1  0.4584890000000  0.4260410000000  0.5642810000000 1.0
C      1  0.5384090000000  0.4019610000000  0.5128180000000 1.0
C      1  0.4606590000000  0.4160980000000  0.4493630000000 1.0
C      1  0.5378160000000  0.4636660000000  0.4079140000000 1.0
C      1  0.4621660000000  0.5236470000000  0.4019350000000 1.0
C      1  0.4595240000000  0.5745040000000  0.4395320000000 1.0
C      1  0.5356270000000  0.6020000000000  0.4997160000000 1.0
C      1  0.4641000000000  0.5840940000000  0.5516690000000 1.0
C      1  0.5342450000000  0.5368280000000  0.5903580000000 1.0
C      1  0.4639780000000  0.4722850000000  0.6019340000000 1.0
C      1  0.5335220000000  0.4266080000000  0.5667590000000 1.0
C      1  0.4658510000000  0.3977430000000  0.5051730000000 1.0
C      1  0.5393220000000  0.4173910000000  0.4409800000000 1.0
C      1  0.4639210000000  0.4651810000000  0.4019340000000 1.0
C      1  0.5350010000000  0.5248960000000  0.4020240000000 1.0
C      1  0.4096680000000  0.5010550000000  0.5070750000000 1.0
C      1  0.5939820000000  0.4974880000000  0.5008330000000 1.0
C      1  0.4579950000000  0.5068900000000  0.4920310000000 1.0
C      1  0.5337100000000  0.5055180000000  0.4953450000000 1.0
END
