TITL C-2441166-8118-1281 0.0638353373509506 125000 -17551.6292964285 0 0 131 (C1) n - 1
REM
REM in /home/bkarasulu/work/CARBON/AIRSS/Generating-Clusters/ReaxFF-fromJPCA2015/Units_Real/with-SteepDescent/Higher-Symm
REM
REM
REM
REM
REM
REM ./C.cell (1df0a924f5614ab8850e4351716899ee)
REM
REM compiler GCC version 9.2.1 20190827 (Red Hat 9.2.1-1)
REM options -cpp -mtune=generic -march=x86-64 -g -O0 -fpre-include=/usr/include/finclude/math-vector-fortran.h
REM seed 175302206 1348786533 -1944599855 -1337881753 -857700344 -571912983 -1970696927 579975787 561468576 1346714479 1501755237 1452567220 -999044868 1083271895 -799170685 1278513125 -1855377331 1208109892 582684092 -668755391 1337753680 -1329819345 176094855 1097662778 -759057927 1395916669 733571723 -2015010061 1790805074 1613959607 -1990966525 -654989549 -879592246
REM
CELL 1.54180   50.00000   50.00000   50.00000   90.00000   90.00000   90.00000
LATT -1
SFAC C  
C      1  0.5262870000000  0.4657990000000  0.5053960000000 1.0
C      1  0.4786480000000  0.5309910000000  0.4930760000000 1.0
C      1  0.4925410000000  0.5444320000000  0.4016580000000 1.0
C      1  0.5042000000000  0.4561890000000  0.5959360000000 1.0
C      1  0.5798710000000  0.4712720000000  0.4694070000000 1.0
C      1  0.4210480000000  0.5270070000000  0.5284410000000 1.0
C      1  0.5412860000000  0.4886190000000  0.5144110000000 1.0
C      1  0.4586920000000  0.5106220000000  0.4882010000000 1.0
C      1  0.5167440000000  0.5368460000000  0.5236630000000 1.0
C      1  0.4867330000000  0.4674780000000  0.4755170000000 1.0
C      1  0.5341230000000  0.4209830000000  0.5363540000000 1.0
C      1  0.4632540000000  0.5762170000000  0.4617560000000 1.0
C      1  0.5733010000000  0.4395890000000  0.5242900000000 1.0
C      1  0.4156160000000  0.5658260000000  0.4845400000000 1.0
C      1  0.4950550000000  0.4731320000000  0.5494750000000 1.0
C      1  0.4977520000000  0.5309760000000  0.4535420000000 1.0
C      1  0.4106550000000  0.5047810000000  0.5083570000000 1.0
C      1  0.5898580000000  0.4924840000000  0.4881090000000 1.0
C      1  0.5453330000000  0.5399900000000  0.5258150000000 1.0
C      1  0.4562800000000  0.4642260000000  0.4706030000000 1.0
C      1  0.5644550000000  0.4458230000000  0.4730580000000 1.0
C      1  0.4345380000000  0.5532420000000  0.5285920000000 1.0
C      1  0.5333780000000  0.4813230000000  0.4611750000000 1.0
C      1  0.4681090000000  0.5187930000000  0.5403050000000 1.0
C      1  0.4494510000000  0.4128260000000  0.4957500000000 1.0
C      1  0.5445420000000  0.5930890000000  0.4984000000000 1.0
C      1  0.4976420000000  0.5438250000000  0.5772360000000 1.0
C      1  0.4991920000000  0.4500430000000  0.4182830000000 1.0
C      1  0.5214580000000  0.4807430000000  0.4354820000000 1.0
C      1  0.4900990000000  0.5171490000000  0.5595830000000 1.0
C      1  0.4638320000000  0.5782580000000  0.4905930000000 1.0
C      1  0.5338020000000  0.4200220000000  0.5076860000000 1.0
C      1  0.4345250000000  0.5172990000000  0.4744690000000 1.0
C      1  0.5671570000000  0.4842000000000  0.5237450000000 1.0
C      1  0.5530210000000  0.5245470000000  0.4276170000000 1.0
C      1  0.4419770000000  0.4716710000000  0.5715290000000 1.0
C      1  0.5284420000000  0.4112680000000  0.4599740000000 1.0
C      1  0.4714110000000  0.5874450000000  0.5428890000000 1.0
C      1  0.5081950000000  0.5562170000000  0.4640190000000 1.0
C      1  0.4901840000000  0.4477390000000  0.5350810000000 1.0
C      1  0.4626220000000  0.4376600000000  0.5418320000000 1.0
C      1  0.5365520000000  0.5592960000000  0.4570520000000 1.0
C      1  0.4776180000000  0.4132310000000  0.5091360000000 1.0
C      1  0.5164240000000  0.5888300000000  0.4881980000000 1.0
C      1  0.4536590000000  0.4364660000000  0.4631730000000 1.0
C      1  0.5493200000000  0.5657570000000  0.5366460000000 1.0
C      1  0.4433110000000  0.4701780000000  0.5004760000000 1.0
C      1  0.5556450000000  0.5313920000000  0.4987010000000 1.0
C      1  0.5037960000000  0.5640300000000  0.5559490000000 1.0
C      1  0.4968580000000  0.4336250000000  0.4409580000000 1.0
C      1  0.5533480000000  0.5292380000000  0.5759430000000 1.0
C      1  0.4489580000000  0.4724290000000  0.4156260000000 1.0
C      1  0.5849650000000  0.4644220000000  0.5332000000000 1.0
C      1  0.4300540000000  0.5458580000000  0.4671350000000 1.0
C      1  0.4350070000000  0.5118620000000  0.4221380000000 1.0
C      1  0.5665550000000  0.4870120000000  0.5689620000000 1.0
C      1  0.5271730000000  0.4607330000000  0.4773020000000 1.0
C      1  0.4734550000000  0.5387320000000  0.5204340000000 1.0
C      1  0.5317260000000  0.5060110000000  0.4213470000000 1.0
C      1  0.4543570000000  0.4950190000000  0.5823000000000 1.0
C      1  0.4623740000000  0.5452570000000  0.5699150000000 1.0
C      1  0.5355440000000  0.4506140000000  0.4276180000000 1.0
C      1  0.4320270000000  0.4847190000000  0.5464450000000 1.0
C      1  0.5678870000000  0.5119450000000  0.4492090000000 1.0
C      1  0.5769150000000  0.4840590000000  0.4429300000000 1.0
C      1  0.4258780000000  0.5134690000000  0.5529730000000 1.0
C      1  0.5845410000000  0.5207190000000  0.4916380000000 1.0
C      1  0.4155190000000  0.4769390000000  0.5148510000000 1.0
C      1  0.4965930000000  0.5956320000000  0.5315200000000 1.0
C      1  0.5015190000000  0.4041990000000  0.4695150000000 1.0
C      1  0.5585270000000  0.4663900000000  0.4303000000000 1.0
C      1  0.4454530000000  0.5217670000000  0.5741210000000 1.0
C      1  0.4610410000000  0.5002130000000  0.4126880000000 1.0
C      1  0.5486480000000  0.5026470000000  0.5873420000000 1.0
C      1  0.4953400000000  0.5560750000000  0.5274440000000 1.0
C      1  0.5052450000000  0.4442180000000  0.4715140000000 1.0
C      1  0.5231410000000  0.4963380000000  0.5726320000000 1.0
C      1  0.4702010000000  0.4954030000000  0.4455640000000 1.0
C      1  0.5774460000000  0.5642810000000  0.5205690000000 1.0
C      1  0.4186190000000  0.4524820000000  0.4709680000000 1.0
C      1  0.4943600000000  0.4825730000000  0.4510010000000 1.0
C      1  0.5098650000000  0.5129850000000  0.5393300000000 1.0
C      1  0.5071230000000  0.5225100000000  0.4968330000000 1.0
C      1  0.4977040000000  0.4717240000000  0.5072860000000 1.0
C      1  0.5049980000000  0.4844120000000  0.5916300000000 1.0
C      1  0.4869860000000  0.5168260000000  0.4066330000000 1.0
C      1  0.5968050000000  0.4897030000000  0.5178220000000 1.0
C      1  0.4105940000000  0.5018140000000  0.4793630000000 1.0
C      1  0.5244790000000  0.4769330000000  0.5499930000000 1.0
C      1  0.4701910000000  0.5241700000000  0.4494580000000 1.0
C      1  0.5463040000000  0.4335380000000  0.4521690000000 1.0
C      1  0.4534520000000  0.5641070000000  0.5497810000000 1.0
C      1  0.5329400000000  0.5666650000000  0.4957620000000 1.0
C      1  0.4649070000000  0.4365850000000  0.5007370000000 1.0
C      1  0.5702670000000  0.5792820000000  0.4968160000000 1.0
C      1  0.4245810000000  0.4268910000000  0.5039090000000 1.0
C      1  0.4449570000000  0.4464040000000  0.5175140000000 1.0
C      1  0.5552570000000  0.5561900000000  0.4804000000000 1.0
C      1  0.5094660000000  0.4282480000000  0.5495730000000 1.0
C      1  0.4890760000000  0.5731820000000  0.4486560000000 1.0
C      1  0.4606620000000  0.4910600000000  0.5353910000000 1.0
C      1  0.5459100000000  0.5050870000000  0.4669630000000 1.0
C      1  0.4436360000000  0.5601000000000  0.4457670000000 1.0
C      1  0.5563730000000  0.4377450000000  0.5480550000000 1.0
C      1  0.4497960000000  0.5357060000000  0.4316840000000 1.0
C      1  0.5495990000000  0.4642320000000  0.5593550000000 1.0
C      1  0.4388960000000  0.5690260000000  0.5036650000000 1.0
C      1  0.5581700000000  0.4337390000000  0.4991740000000 1.0
C      1  0.5401040000000  0.5514660000000  0.4297610000000 1.0
C      1  0.4580940000000  0.4467010000000  0.5687770000000 1.0
C      1  0.4922570000000  0.5685550000000  0.4201080000000 1.0
C      1  0.5076530000000  0.4321340000000  0.5778650000000 1.0
C      1  0.4812160000000  0.4407480000000  0.5870180000000 1.0
C      1  0.5175590000000  0.5578870000000  0.4113750000000 1.0
C      1  0.4578960000000  0.4900970000000  0.5069970000000 1.0
C      1  0.5378760000000  0.5110620000000  0.4931770000000 1.0
C      1  0.4834640000000  0.4905000000000  0.5736540000000 1.0
C      1  0.5060490000000  0.5172440000000  0.4289930000000 1.0
C      1  0.4746200000000  0.4597770000000  0.4171200000000 1.0
C      1  0.5266130000000  0.5371910000000  0.5778520000000 1.0
C      1  0.4093340000000  0.4508100000000  0.4980310000000 1.0
C      1  0.5912440000000  0.5379370000000  0.5146430000000 1.0
C      1  0.5245990000000  0.5799790000000  0.5438020000000 1.0
C      1  0.4757620000000  0.4195700000000  0.4552910000000 1.0
C      1  0.5748460000000  0.5124340000000  0.5565140000000 1.0
C      1  0.4288330000000  0.4857350000000  0.4338220000000 1.0
C      1  0.5049060000000  0.4184010000000  0.4959970000000 1.0
C      1  0.4911970000000  0.5830510000000  0.5043460000000 1.0
C      1  0.5926530000000  0.5164830000000  0.5343000000000 1.0
C      1  0.4154880000000  0.4789560000000  0.4594940000000 1.0
C      1  0.5005350000000  0.4996590000000  0.5154430000000 1.0
END
