TITL C-2441165-58-91 0.000660774704914679 125000 -3892.29417472434 0 0 28 (C2) n - 1
REM
REM in /home/bkarasulu/work/CARBON/AIRSS/Generating-Clusters/ReaxFF-fromJPCA2015/Units_Real/with-SteepDescent/Higher-Symm
REM
REM
REM
REM
REM
REM ./C.cell (1df0a924f5614ab8850e4351716899ee)
REM
REM compiler GCC version 9.2.1 20190827 (Red Hat 9.2.1-1)
REM options -cpp -mtune=generic -march=x86-64 -g -O0 -fpre-include=/usr/include/finclude/math-vector-fortran.h
REM seed -1858356827 25121417 1720902051 27465356 -2032993965 -633307425 204984529 1329400797 -869142809 -760705306 2028774619 1528922466 -913957308 -1917612725 -199428598 -1044018573 -788142173 1670332992 -1418032268 600779613 -2018936371 1413053502 1299558488 1733430016 274706853 1250533260 -848276783 -187650052 -25065603 -1491817519 -1655025605 -1626232377 532928112
REM
CELL 1.54180   50.00000   50.00000   50.00000   90.00000   90.00000   90.00000
LATT -1
SFAC C  
C      1  0.5010080000000  0.4637750000000  0.4666740000000 1.0
C      1  0.4989930000000  0.5362270000000  0.4666730000000 1.0
C      1  0.4825940000000  0.4691220000000  0.5195600000000 1.0
C      1  0.5174080000000  0.5308780000000  0.5195590000000 1.0
C      1  0.4631180000000  0.5312820000000  0.5602660000000 1.0
C      1  0.5368810000000  0.4687180000000  0.5602660000000 1.0
C      1  0.4630250000000  0.5076730000000  0.5412030000000 1.0
C      1  0.5369740000000  0.4923270000000  0.5412010000000 1.0
C      1  0.4800940000000  0.5329680000000  0.4886200000000 1.0
C      1  0.5199060000000  0.4670300000000  0.4886200000000 1.0
C      1  0.5808060000000  0.4610700000000  0.4876260000000 1.0
C      1  0.4192040000000  0.5389460000000  0.4876500000000 1.0
C      1  0.4922810000000  0.4875610000000  0.4513320000000 1.0
C      1  0.5077180000000  0.5124400000000  0.4513320000000 1.0
C      1  0.4384530000000  0.5247170000000  0.4884600000000 1.0
C      1  0.5615240000000  0.4752490000000  0.4885040000000 1.0
C      1  0.5382240000000  0.4924960000000  0.4895470000000 1.0
C      1  0.4617860000000  0.5075200000000  0.4895670000000 1.0
C      1  0.4658200000000  0.4860350000000  0.4649230000000 1.0
C      1  0.5341820000000  0.5139650000000  0.4649220000000 1.0
C      1  0.5356180000000  0.5086250000000  0.5179970000000 1.0
C      1  0.4643830000000  0.4913760000000  0.5179970000000 1.0
C      1  0.5298130000000  0.5424350000000  0.4715160000000 1.0
C      1  0.4701860000000  0.4575660000000  0.4715150000000 1.0
C      1  0.5091230000000  0.4565510000000  0.5139740000000 1.0
C      1  0.4908770000000  0.5434500000000  0.5139740000000 1.0
C      1  0.5257810000000  0.4514010000000  0.5382620000000 1.0
C      1  0.4742200000000  0.5485990000000  0.5382600000000 1.0
END
