TITL C-2441159-1093-1286 0.0235176701988686 125000 -27904.9703348809 0 0 187 (C1) n - 1
REM
REM in /home/bkarasulu/work/CARBON/AIRSS/Generating-Clusters/ReaxFF-fromJPCA2015/Units_Real/with-SteepDescent/Higher-Symm
REM
REM
REM
REM
REM
REM ./C.cell (1df0a924f5614ab8850e4351716899ee)
REM
REM compiler GCC version 9.2.1 20190827 (Red Hat 9.2.1-1)
REM options -cpp -mtune=generic -march=x86-64 -g -O0 -fpre-include=/usr/include/finclude/math-vector-fortran.h
REM seed -323196294 1445972834 1385072003 948299615 -2019359606 229371026 -401516882 1289416334 -1153024615 835124391 -1063849311 -1812969331 -1212831806 2060178711 -1499286077 -740610873 -2025052610 -1787193743 -364894010 -70025356 -10796679 1637446047 1590147530 315608145 1255652914 -316905317 -491856109 332396081 -2044757523 -30699404 -1694454277 1863041009 -1208127153
REM
CELL 1.54180   50.00000   50.00000   50.00000   90.00000   90.00000   90.00000
LATT -1
SFAC C  
C      1  0.5946820000000  0.5169870000000  0.5202340000000 1.0
C      1  0.5469840000000  0.5110550000000  0.4217510000000 1.0
C      1  0.4290260000000  0.5061400000000  0.4142930000000 1.0
C      1  0.4159740000000  0.5203100000000  0.5353310000000 1.0
C      1  0.5073290000000  0.5096250000000  0.6008770000000 1.0
C      1  0.5784480000000  0.4166390000000  0.5151520000000 1.0
C      1  0.5389980000000  0.4168210000000  0.4304120000000 1.0
C      1  0.4455540000000  0.4200370000000  0.4399200000000 1.0
C      1  0.4278760000000  0.4190400000000  0.5326380000000 1.0
C      1  0.5095180000000  0.4167620000000  0.5799560000000 1.0
C      1  0.5319130000000  0.5261280000000  0.6047680000000 1.0
C      1  0.6154210000000  0.5315760000000  0.5049990000000 1.0
C      1  0.5441580000000  0.5267320000000  0.3998010000000 1.0
C      1  0.4147730000000  0.5256140000000  0.4316230000000 1.0
C      1  0.4080180000000  0.5338330000000  0.5593750000000 1.0
C      1  0.5723720000000  0.5105410000000  0.4241380000000 1.0
C      1  0.4508950000000  0.5079360000000  0.3994140000000 1.0
C      1  0.4010660000000  0.4992210000000  0.5225290000000 1.0
C      1  0.4808300000000  0.5215170000000  0.6055880000000 1.0
C      1  0.5960790000000  0.5083460000000  0.5471470000000 1.0
C      1  0.4881520000000  0.5168760000000  0.5491940000000 1.0
C      1  0.5411760000000  0.5183660000000  0.5159460000000 1.0
C      1  0.5297340000000  0.5072200000000  0.4673110000000 1.0
C      1  0.4783180000000  0.5240690000000  0.4536500000000 1.0
C      1  0.4517030000000  0.5156980000000  0.5056620000000 1.0
C      1  0.4417300000000  0.4887470000000  0.4985890000000 1.0
C      1  0.4809620000000  0.4871790000000  0.5567840000000 1.0
C      1  0.5484690000000  0.5067630000000  0.5418220000000 1.0
C      1  0.5535160000000  0.4875570000000  0.4669330000000 1.0
C      1  0.4801650000000  0.4925850000000  0.4492460000000 1.0
C      1  0.5860280000000  0.4326910000000  0.4692360000000 1.0
C      1  0.4960810000000  0.4343930000000  0.4073810000000 1.0
C      1  0.4104930000000  0.4313660000000  0.4737760000000 1.0
C      1  0.4482190000000  0.4352450000000  0.5758580000000 1.0
C      1  0.5556680000000  0.4317090000000  0.5705400000000 1.0
C      1  0.4850300000000  0.4570020000000  0.6038840000000 1.0
C      1  0.5964230000000  0.4495370000000  0.5489440000000 1.0
C      1  0.5806930000000  0.4477570000000  0.4221630000000 1.0
C      1  0.4508720000000  0.4558600000000  0.4035920000000 1.0
C      1  0.3932660000000  0.4502740000000  0.5151580000000 1.0
C      1  0.5944790000000  0.4350870000000  0.4963770000000 1.0
C      1  0.5253230000000  0.4343470000000  0.4081740000000 1.0
C      1  0.4192830000000  0.4356510000000  0.4465080000000 1.0
C      1  0.4261270000000  0.4370820000000  0.5577010000000 1.0
C      1  0.5334380000000  0.4352650000000  0.5887020000000 1.0
C      1  0.5220210000000  0.5411040000000  0.5102950000000 1.0
C      1  0.5202080000000  0.5358090000000  0.4819640000000 1.0
C      1  0.4926290000000  0.5384730000000  0.4803550000000 1.0
C      1  0.4418000000000  0.5361820000000  0.4865050000000 1.0
C      1  0.4674840000000  0.5349920000000  0.5438710000000 1.0
C      1  0.5319650000000  0.5539000000000  0.5924030000000 1.0
C      1  0.6051920000000  0.5587360000000  0.5043930000000 1.0
C      1  0.5343010000000  0.5539320000000  0.4089850000000 1.0
C      1  0.4212670000000  0.5539320000000  0.4380900000000 1.0
C      1  0.4185920000000  0.5615640000000  0.5587110000000 1.0
C      1  0.5191110000000  0.4022630000000  0.4807420000000 1.0
C      1  0.4879460000000  0.4087860000000  0.4792120000000 1.0
C      1  0.4738670000000  0.4052690000000  0.5060290000000 1.0
C      1  0.4973010000000  0.4102410000000  0.5248640000000 1.0
C      1  0.5246900000000  0.4041010000000  0.5085610000000 1.0
C      1  0.5266750000000  0.5000670000000  0.5587710000000 1.0
C      1  0.5673650000000  0.4915410000000  0.4921810000000 1.0
C      1  0.5056750000000  0.4856480000000  0.4371290000000 1.0
C      1  0.4424530000000  0.4943590000000  0.4709340000000 1.0
C      1  0.4568630000000  0.4873440000000  0.5422090000000 1.0
C      1  0.5165270000000  0.4590750000000  0.4450010000000 1.0
C      1  0.4536530000000  0.4515830000000  0.4721510000000 1.0
C      1  0.4691920000000  0.4486250000000  0.5324080000000 1.0
C      1  0.5202400000000  0.4518750000000  0.5399940000000 1.0
C      1  0.5422270000000  0.4478570000000  0.4913080000000 1.0
C      1  0.3892220000000  0.4773520000000  0.4777410000000 1.0
C      1  0.4427310000000  0.4809120000000  0.5962680000000 1.0
C      1  0.5792820000000  0.4753210000000  0.5855010000000 1.0
C      1  0.6031100000000  0.4784180000000  0.4543490000000 1.0
C      1  0.4906370000000  0.4794860000000  0.3840400000000 1.0
C      1  0.4750090000000  0.5054130000000  0.3859160000000 1.0
C      1  0.3919880000000  0.5003910000000  0.4949230000000 1.0
C      1  0.4552180000000  0.5065770000000  0.6050220000000 1.0
C      1  0.5930430000000  0.5002440000000  0.5739530000000 1.0
C      1  0.5950450000000  0.5040240000000  0.4393070000000 1.0
C      1  0.4384190000000  0.5237330000000  0.5904060000000 1.0
C      1  0.5744420000000  0.5215990000000  0.5810890000000 1.0
C      1  0.6001350000000  0.5230690000000  0.4607410000000 1.0
C      1  0.4949200000000  0.5224520000000  0.3997510000000 1.0
C      1  0.3975650000000  0.5228000000000  0.4783780000000 1.0
C      1  0.4127790000000  0.4625410000000  0.4366590000000 1.0
C      1  0.4138140000000  0.4635240000000  0.5588320000000 1.0
C      1  0.5326180000000  0.4625930000000  0.5999260000000 1.0
C      1  0.6050400000000  0.4625560000000  0.5020080000000 1.0
C      1  0.5356950000000  0.4606460000000  0.4001010000000 1.0
C      1  0.4866640000000  0.4856870000000  0.4817600000000 1.0
C      1  0.4793320000000  0.5041770000000  0.5026340000000 1.0
C      1  0.4980380000000  0.5037350000000  0.5210810000000 1.0
C      1  0.5234250000000  0.4927690000000  0.5101860000000 1.0
C      1  0.5149540000000  0.4865540000000  0.4835080000000 1.0
C      1  0.4944830000000  0.4372480000000  0.4848080000000 1.0
C      1  0.4766100000000  0.4575250000000  0.4878530000000 1.0
C      1  0.4961710000000  0.4419060000000  0.5257630000000 1.0
C      1  0.5400710000000  0.4640750000000  0.5164080000000 1.0
C      1  0.5169650000000  0.4543590000000  0.4769060000000 1.0
C      1  0.5457640000000  0.4677980000000  0.4464130000000 1.0
C      1  0.4531600000000  0.4748810000000  0.4513750000000 1.0
C      1  0.4452430000000  0.4701860000000  0.5213450000000 1.0
C      1  0.5086450000000  0.4769760000000  0.5608580000000 1.0
C      1  0.5648520000000  0.4810320000000  0.5215440000000 1.0
C      1  0.5557510000000  0.4809710000000  0.6006320000000 1.0
C      1  0.6123530000000  0.4828290000000  0.4811760000000 1.0
C      1  0.5190610000000  0.4825240000000  0.3882270000000 1.0
C      1  0.3975100000000  0.4825500000000  0.4514910000000 1.0
C      1  0.4196270000000  0.4838980000000  0.5789090000000 1.0
C      1  0.4002900000000  0.5117300000000  0.4517160000000 1.0
C      1  0.4143760000000  0.5133920000000  0.5797180000000 1.0
C      1  0.5556560000000  0.5108980000000  0.6013500000000 1.0
C      1  0.6164180000000  0.5125210000000  0.4821720000000 1.0
C      1  0.5208690000000  0.5116800000000  0.3914990000000 1.0
C      1  0.4737360000000  0.4181700000000  0.4498750000000 1.0
C      1  0.4469270000000  0.4145160000000  0.5086220000000 1.0
C      1  0.4923750000000  0.4121300000000  0.5564770000000 1.0
C      1  0.5487000000000  0.4126620000000  0.5227330000000 1.0
C      1  0.5382510000000  0.4111830000000  0.4603570000000 1.0
C      1  0.3905310000000  0.4502250000000  0.4863670000000 1.0
C      1  0.4562050000000  0.4553180000000  0.5963690000000 1.0
C      1  0.5807550000000  0.4490300000000  0.5738830000000 1.0
C      1  0.5954320000000  0.4510720000000  0.4475320000000 1.0
C      1  0.4784090000000  0.4550840000000  0.3930560000000 1.0
C      1  0.4712980000000  0.5973150000000  0.5363020000000 1.0
C      1  0.5276710000000  0.6040570000000  0.5351410000000 1.0
C      1  0.5486720000000  0.6017710000000  0.4841960000000 1.0
C      1  0.5018140000000  0.5977150000000  0.4545700000000 1.0
C      1  0.4560300000000  0.5965480000000  0.4845890000000 1.0
C      1  0.4674560000000  0.5553460000000  0.4199450000000 1.0
C      1  0.4080530000000  0.5622360000000  0.5092550000000 1.0
C      1  0.4764600000000  0.5472670000000  0.5935430000000 1.0
C      1  0.5724070000000  0.5501900000000  0.5411690000000 1.0
C      1  0.5595880000000  0.5497280000000  0.4520940000000 1.0
C      1  0.5450800000000  0.5734670000000  0.5769390000000 1.0
C      1  0.5911730000000  0.5671310000000  0.4804670000000 1.0
C      1  0.5134810000000  0.5718840000000  0.4132940000000 1.0
C      1  0.4176450000000  0.5724870000000  0.4597730000000 1.0
C      1  0.4437230000000  0.5695270000000  0.5697030000000 1.0
C      1  0.5848920000000  0.5676960000000  0.5260210000000 1.0
C      1  0.5358640000000  0.5462550000000  0.4380250000000 1.0
C      1  0.4498720000000  0.5587920000000  0.4396500000000 1.0
C      1  0.4208820000000  0.5680900000000  0.5321620000000 1.0
C      1  0.5126500000000  0.5508560000000  0.5700200000000 1.0
C      1  0.4104030000000  0.4715480000000  0.5300780000000 1.0
C      1  0.5071950000000  0.4764890000000  0.5950470000000 1.0
C      1  0.5922580000000  0.4697110000000  0.5271050000000 1.0
C      1  0.5573140000000  0.4664100000000  0.4192410000000 1.0
C      1  0.4355610000000  0.4750390000000  0.4228570000000 1.0
C      1  0.5103900000000  0.5216490000000  0.5680470000000 1.0
C      1  0.5698190000000  0.5194120000000  0.4997780000000 1.0
C      1  0.5234670000000  0.5086420000000  0.4397810000000 1.0
C      1  0.4500540000000  0.5216820000000  0.4635200000000 1.0
C      1  0.4470480000000  0.5181800000000  0.5351800000000 1.0
C      1  0.5605750000000  0.5304890000000  0.5561310000000 1.0
C      1  0.5774500000000  0.5394010000000  0.4723990000000 1.0
C      1  0.4850830000000  0.5345920000000  0.4247450000000 1.0
C      1  0.4147590000000  0.5438210000000  0.4885500000000 1.0
C      1  0.4557960000000  0.5432640000000  0.5729080000000 1.0
C      1  0.5402880000000  0.4296220000000  0.5454450000000 1.0
C      1  0.5571990000000  0.4280240000000  0.4762960000000 1.0
C      1  0.4945520000000  0.4326830000000  0.4363570000000 1.0
C      1  0.4380990000000  0.4307960000000  0.4841780000000 1.0
C      1  0.4683950000000  0.4289880000000  0.5547560000000 1.0
C      1  0.5413290000000  0.5704720000000  0.4508330000000 1.0
C      1  0.4647840000000  0.5829520000000  0.4346910000000 1.0
C      1  0.4225710000000  0.5894000000000  0.5131910000000 1.0
C      1  0.4887440000000  0.5666320000000  0.5767560000000 1.0
C      1  0.5677200000000  0.5922610000000  0.5327570000000 1.0
C      1  0.4683400000000  0.5816250000000  0.5613440000000 1.0
C      1  0.5480270000000  0.5918450000000  0.5555810000000 1.0
C      1  0.5712640000000  0.5860310000000  0.4817320000000 1.0
C      1  0.4962070000000  0.5887640000000  0.4266440000000 1.0
C      1  0.4279730000000  0.5897030000000  0.4798390000000 1.0
C      1  0.5850800000000  0.4250680000000  0.5405260000000 1.0
C      1  0.5649360000000  0.4263000000000  0.4310560000000 1.0
C      1  0.4536940000000  0.4308500000000  0.4157050000000 1.0
C      1  0.4072160000000  0.4261790000000  0.5155770000000 1.0
C      1  0.4910880000000  0.4319340000000  0.5937430000000 1.0
C      1  0.4530660000000  0.5951360000000  0.5135470000000 1.0
C      1  0.5000050000000  0.5972430000000  0.5258360000000 1.0
C      1  0.5479250000000  0.6046380000000  0.5148850000000 1.0
C      1  0.5279860000000  0.5910230000000  0.4656340000000 1.0
C      1  0.4746920000000  0.5916390000000  0.4625980000000 1.0
C      1  0.4906560000000  0.5446520000000  0.5106690000000 1.0
C      1  0.4954800000000  0.5726170000000  0.5133090000000 1.0
END
