TITL C-2441160-1326-735 0.0208149541160607 125000 -4012.76642735252 0 0 32 (C2v) n - 1
REM
REM in /home/bkarasulu/work/CARBON/AIRSS/Generating-Clusters/ReaxFF-fromJPCA2015/Units_Real/with-SteepDescent/Higher-Symm
REM
REM
REM
REM
REM
REM ./C.cell (1df0a924f5614ab8850e4351716899ee)
REM
REM compiler GCC version 9.2.1 20190827 (Red Hat 9.2.1-1)
REM options -cpp -mtune=generic -march=x86-64 -g -O0 -fpre-include=/usr/include/finclude/math-vector-fortran.h
REM seed -167932184 -1841327699 -1453316886 -495872836 -2044482902 -478766093 2069779588 1033664272 -1258864574 -1135343418 -1950813139 1616048252 -462262244 2146752168 -1720682718 2090330031 315927381 -693197004 742723145 -760567234 -406190386 -1517250361 2012258099 2043288682 -959004616 -941298444 1329502511 -219088845 -1156572839 1449601081 138409946 -1263296587 -1971702524
REM
CELL 1.54180   50.00000   50.00000   50.00000   90.00000   90.00000   90.00000
LATT -1
SFAC C  
C      1  0.4851680000000  0.4737300000000  0.5585570000000 1.0
C      1  0.5148320000000  0.4737300000000  0.4414420000000 1.0
C      1  0.4851650000000  0.4737390000000  0.4414650000000 1.0
C      1  0.5148350000000  0.4737390000000  0.5585350000000 1.0
C      1  0.5445380000000  0.5013900000000  0.5381200000000 1.0
C      1  0.4554620000000  0.5013900000000  0.4618800000000 1.0
C      1  0.5445760000000  0.5013820000000  0.4618410000000 1.0
C      1  0.4554250000000  0.5013830000000  0.5381590000000 1.0
C      1  0.5146020000000  0.5001510000000  0.5723120000000 1.0
C      1  0.4853980000000  0.5001510000000  0.4276880000000 1.0
C      1  0.5145940000000  0.5001480000000  0.4276740000000 1.0
C      1  0.4854060000000  0.5001490000000  0.5723270000000 1.0
C      1  0.4847390000000  0.5248690000000  0.4446290000000 1.0
C      1  0.5152610000000  0.5248700000000  0.5553710000000 1.0
C      1  0.4847220000000  0.5248630000000  0.5553790000000 1.0
C      1  0.5152770000000  0.5248630000000  0.4446200000000 1.0
C      1  0.5606000000000  0.4896170000000  0.5147290000000 1.0
C      1  0.4394010000000  0.4896170000000  0.4852710000000 1.0
C      1  0.5606130000000  0.4896340000000  0.4852580000000 1.0
C      1  0.4393870000000  0.4896340000000  0.5147420000000 1.0
C      1  0.5289070000000  0.5247400000000  0.5303340000000 1.0
C      1  0.4710930000000  0.5247390000000  0.4696660000000 1.0
C      1  0.5289560000000  0.5247370000000  0.4696360000000 1.0
C      1  0.4710440000000  0.5247360000000  0.5303650000000 1.0
C      1  0.4861250000000  0.5047530000000  0.4856960000000 1.0
C      1  0.5138750000000  0.5047530000000  0.5143040000000 1.0
C      1  0.4860850000000  0.5047510000000  0.5143270000000 1.0
C      1  0.5139140000000  0.5047510000000  0.4856730000000 1.0
C      1  0.4755910000000  0.4807460000000  0.5320100000000 1.0
C      1  0.5244090000000  0.4807460000000  0.4679900000000 1.0
C      1  0.4756200000000  0.4807480000000  0.4680270000000 1.0
C      1  0.5243800000000  0.4807480000000  0.5319730000000 1.0
END
