TITL C-2441159-1093-914 0.0239059296152558 125000 -17458.0666484572 0 0 117 (C1) n - 1
REM
REM in /home/bkarasulu/work/CARBON/AIRSS/Generating-Clusters/ReaxFF-fromJPCA2015/Units_Real/with-SteepDescent/Higher-Symm
REM
REM
REM
REM
REM
REM ./C.cell (1df0a924f5614ab8850e4351716899ee)
REM
REM compiler GCC version 9.2.1 20190827 (Red Hat 9.2.1-1)
REM options -cpp -mtune=generic -march=x86-64 -g -O0 -fpre-include=/usr/include/finclude/math-vector-fortran.h
REM seed -1624904968 -2116323418 -816001490 -1750078008 -200322629 1935808005 -239323357 146973691 -1065574877 1895482354 -1833187994 -1799045419 -1659178328 -604586017 1363201272 -2070381640 110999143 -2003895297 6919079 1687361888 -675256500 -642932017 1497454025 -1865625508 800854956 -624204054 339810652 -1235314104 -74108709 -1972768511 -1966145553 -1556356293 -1165360493
REM
CELL 1.54180   50.00000   50.00000   50.00000   90.00000   90.00000   90.00000
LATT -1
SFAC C  
C      1  0.5653740000000  0.4367850000000  0.5390210000000 1.0
C      1  0.5642160000000  0.4793590000000  0.5593240000000 1.0
C      1  0.5658520000000  0.5284260000000  0.5708120000000 1.0
C      1  0.5657090000000  0.5545830000000  0.5314220000000 1.0
C      1  0.5637080000000  0.5708020000000  0.4859730000000 1.0
C      1  0.5619620000000  0.5422590000000  0.4387670000000 1.0
C      1  0.5642820000000  0.5010270000000  0.4404970000000 1.0
C      1  0.5672920000000  0.4513600000000  0.4438060000000 1.0
C      1  0.5674740000000  0.4346360000000  0.4901060000000 1.0
C      1  0.4670050000000  0.5679580000000  0.4582660000000 1.0
C      1  0.4674020000000  0.5251060000000  0.4243830000000 1.0
C      1  0.4687180000000  0.4706260000000  0.4250820000000 1.0
C      1  0.4681020000000  0.4295960000000  0.4618720000000 1.0
C      1  0.4683380000000  0.4213610000000  0.5159360000000 1.0
C      1  0.4676330000000  0.4505840000000  0.5630310000000 1.0
C      1  0.4678990000000  0.5023480000000  0.5805200000000 1.0
C      1  0.4682270000000  0.5533910000000  0.5606370000000 1.0
C      1  0.4686630000000  0.5793060000000  0.5123700000000 1.0
C      1  0.5247250000000  0.5902380000000  0.5028210000000 1.0
C      1  0.5238220000000  0.5742940000000  0.4436280000000 1.0
C      1  0.5240150000000  0.5230350000000  0.4139250000000 1.0
C      1  0.5248190000000  0.4589720000000  0.4190170000000 1.0
C      1  0.5246930000000  0.4187500000000  0.4637930000000 1.0
C      1  0.5235490000000  0.4134240000000  0.5261270000000 1.0
C      1  0.5244280000000  0.4498770000000  0.5745890000000 1.0
C      1  0.5245850000000  0.5115820000000  0.5925230000000 1.0
C      1  0.5259640000000  0.5674110000000  0.5638630000000 1.0
C      1  0.5055910000000  0.5828190000000  0.5483170000000 1.0
C      1  0.5033980000000  0.5951580000000  0.4829480000000 1.0
C      1  0.5028230000000  0.5633330000000  0.4258910000000 1.0
C      1  0.5051920000000  0.5016720000000  0.4048860000000 1.0
C      1  0.5039070000000  0.4385610000000  0.4251970000000 1.0
C      1  0.5046570000000  0.4055020000000  0.4818380000000 1.0
C      1  0.5029560000000  0.4154220000000  0.5474670000000 1.0
C      1  0.5050570000000  0.4667410000000  0.5892690000000 1.0
C      1  0.5037590000000  0.5316840000000  0.5916790000000 1.0
C      1  0.5468710000000  0.5733820000000  0.5434060000000 1.0
C      1  0.5465960000000  0.5924700000000  0.4817240000000 1.0
C      1  0.5461350000000  0.5619060000000  0.4265200000000 1.0
C      1  0.5466700000000  0.5031200000000  0.4176490000000 1.0
C      1  0.5461280000000  0.4403380000000  0.4276690000000 1.0
C      1  0.5459680000000  0.4149460000000  0.4837220000000 1.0
C      1  0.5449800000000  0.4180750000000  0.5458370000000 1.0
C      1  0.5459130000000  0.4697470000000  0.5792200000000 1.0
C      1  0.5439920000000  0.5305450000000  0.5878870000000 1.0
C      1  0.5279750000000  0.5932320000000  0.5313780000000 1.0
C      1  0.5241560000000  0.5966920000000  0.4616350000000 1.0
C      1  0.5240380000000  0.5515870000000  0.4087280000000 1.0
C      1  0.5285200000000  0.4832310000000  0.4036680000000 1.0
C      1  0.5254000000000  0.4203120000000  0.4346200000000 1.0
C      1  0.5271370000000  0.3997550000000  0.5006230000000 1.0
C      1  0.5244790000000  0.4218000000000  0.5669860000000 1.0
C      1  0.5270970000000  0.4849270000000  0.5959870000000 1.0
C      1  0.5249120000000  0.5516930000000  0.5879770000000 1.0
C      1  0.4389660000000  0.4296290000000  0.4642350000000 1.0
C      1  0.4391810000000  0.4225570000000  0.5176040000000 1.0
C      1  0.4384730000000  0.4517400000000  0.5642050000000 1.0
C      1  0.4389590000000  0.5034930000000  0.5791190000000 1.0
C      1  0.4394250000000  0.5533600000000  0.5581120000000 1.0
C      1  0.4396570000000  0.5783280000000  0.5102300000000 1.0
C      1  0.4378450000000  0.5669110000000  0.4566930000000 1.0
C      1  0.4385060000000  0.5234780000000  0.4251190000000 1.0
C      1  0.4396490000000  0.4693120000000  0.4268150000000 1.0
C      1  0.4334280000000  0.4540880000000  0.4505150000000 1.0
C      1  0.4290570000000  0.4337750000000  0.4921160000000 1.0
C      1  0.4336870000000  0.4427570000000  0.5374240000000 1.0
C      1  0.4289720000000  0.4799290000000  0.5648300000000 1.0
C      1  0.4300240000000  0.5262730000000  0.5631660000000 1.0
C      1  0.4300810000000  0.5594520000000  0.5308240000000 1.0
C      1  0.4337660000000  0.5653460000000  0.4850640000000 1.0
C      1  0.4276790000000  0.5413230000000  0.4456920000000 1.0
C      1  0.4288120000000  0.4964770000000  0.4319120000000 1.0
C      1  0.4334610000000  0.5345750000000  0.5177890000000 1.0
C      1  0.4452200000000  0.5354810000000  0.4910380000000 1.0
C      1  0.4307370000000  0.5236380000000  0.4679480000000 1.0
C      1  0.4318610000000  0.4976660000000  0.4600800000000 1.0
C      1  0.4456800000000  0.4740940000000  0.4733930000000 1.0
C      1  0.4337340000000  0.4612820000000  0.4958450000000 1.0
C      1  0.4455600000000  0.4684990000000  0.5209310000000 1.0
C      1  0.4323610000000  0.4882900000000  0.5379990000000 1.0
C      1  0.4334780000000  0.5154370000000  0.5371730000000 1.0
C      1  0.4794670000000  0.4188610000000  0.4874700000000 1.0
C      1  0.4785720000000  0.4301070000000  0.5424690000000 1.0
C      1  0.4790860000000  0.4737870000000  0.5779880000000 1.0
C      1  0.4783060000000  0.5300520000000  0.5775740000000 1.0
C      1  0.4798850000000  0.5720340000000  0.5400190000000 1.0
C      1  0.4784240000000  0.5801670000000  0.4842640000000 1.0
C      1  0.4779330000000  0.5513630000000  0.4358550000000 1.0
C      1  0.4792130000000  0.4983290000000  0.4176760000000 1.0
C      1  0.4790250000000  0.4459520000000  0.4383090000000 1.0
C      1  0.5336090000000  0.4745790000000  0.4727180000000 1.0
C      1  0.5205220000000  0.4667760000000  0.4970790000000 1.0
C      1  0.5335870000000  0.4727430000000  0.5218830000000 1.0
C      1  0.5187760000000  0.4903940000000  0.5391080000000 1.0
C      1  0.5192400000000  0.5202860000000  0.5371550000000 1.0
C      1  0.5212720000000  0.5349500000000  0.5112310000000 1.0
C      1  0.5367730000000  0.5284040000000  0.4878140000000 1.0
C      1  0.5207500000000  0.5199140000000  0.4666810000000 1.0
C      1  0.5189280000000  0.4929950000000  0.4601410000000 1.0
C      1  0.5749690000000  0.5519060000000  0.5023980000000 1.0
C      1  0.5643130000000  0.5304210000000  0.4849330000000 1.0
C      1  0.5735030000000  0.5241440000000  0.4561030000000 1.0
C      1  0.5614240000000  0.4751750000000  0.4622140000000 1.0
C      1  0.5760780000000  0.4512030000000  0.4690160000000 1.0
C      1  0.5740040000000  0.4446820000000  0.5156280000000 1.0
C      1  0.5622950000000  0.4670410000000  0.5307310000000 1.0
C      1  0.5755350000000  0.5056580000000  0.5589370000000 1.0
C      1  0.5687600000000  0.5286800000000  0.5425460000000 1.0
C      1  0.4925640000000  0.5368510000000  0.5109380000000 1.0
C      1  0.4759620000000  0.5327510000000  0.4889740000000 1.0
C      1  0.4910090000000  0.5215640000000  0.4678800000000 1.0
C      1  0.4912010000000  0.4926290000000  0.4596990000000 1.0
C      1  0.4762810000000  0.4739790000000  0.4755740000000 1.0
C      1  0.4913790000000  0.4663140000000  0.4972880000000 1.0
C      1  0.4764570000000  0.4717370000000  0.5196310000000 1.0
C      1  0.4897970000000  0.4902150000000  0.5367570000000 1.0
C      1  0.4900840000000  0.5204240000000  0.5346070000000 1.0
END
