TITL C-2441159-1093-419 0.0390415763066599 125000 -9255.16793118535 0 0 74 (C1) n - 1
REM
REM in /home/bkarasulu/work/CARBON/AIRSS/Generating-Clusters/ReaxFF-fromJPCA2015/Units_Real/with-SteepDescent/Higher-Symm
REM
REM
REM
REM
REM
REM ./C.cell (1df0a924f5614ab8850e4351716899ee)
REM
REM compiler GCC version 9.2.1 20190827 (Red Hat 9.2.1-1)
REM options -cpp -mtune=generic -march=x86-64 -g -O0 -fpre-include=/usr/include/finclude/math-vector-fortran.h
REM seed -1327496204 200584074 -1274351999 -1057527799 1581846467 -427610733 -1064583198 1225011821 -215309183 -123729167 -1230883286 -1472095114 -1640286889 628972398 -538384277 1098719362 -907123589 -1402706848 1930070687 1734005983 721547112 2002000006 137588647 503103136 -890704929 -692236738 -1808620357 1317031775 -1619272200 2125946028 919783899 753110125 271383006
REM
CELL 1.54180   50.00000   50.00000   50.00000   90.00000   90.00000   90.00000
LATT -1
SFAC C  
C      1  0.5025850000000  0.5412550000000  0.4497570000000 1.0
C      1  0.5065220000000  0.4602490000000  0.4451530000000 1.0
C      1  0.5049650000000  0.4331300000000  0.5240920000000 1.0
C      1  0.5039100000000  0.5037670000000  0.5706190000000 1.0
C      1  0.5084260000000  0.5680530000000  0.5235780000000 1.0
C      1  0.4947170000000  0.4900890000000  0.5358380000000 1.0
C      1  0.4903600000000  0.5287100000000  0.5208950000000 1.0
C      1  0.4950950000000  0.5286600000000  0.4944570000000 1.0
C      1  0.5067830000000  0.4964850000000  0.4686160000000 1.0
C      1  0.4941060000000  0.4630110000000  0.4998310000000 1.0
C      1  0.5764910000000  0.4773530000000  0.4998360000000 1.0
C      1  0.5768760000000  0.4933850000000  0.5238150000000 1.0
C      1  0.5756220000000  0.5217990000000  0.5159310000000 1.0
C      1  0.5757690000000  0.5223170000000  0.4864680000000 1.0
C      1  0.5764820000000  0.4948200000000  0.4767760000000 1.0
C      1  0.4970590000000  0.5699640000000  0.4902790000000 1.0
C      1  0.4970520000000  0.5066980000000  0.4285660000000 1.0
C      1  0.4949620000000  0.4314210000000  0.4746310000000 1.0
C      1  0.5006090000000  0.4522300000000  0.5527860000000 1.0
C      1  0.4980300000000  0.5339450000000  0.5630420000000 1.0
C      1  0.5116620000000  0.5119020000000  0.5326920000000 1.0
C      1  0.5205820000000  0.5382700000000  0.4989510000000 1.0
C      1  0.5182140000000  0.5190710000000  0.4567910000000 1.0
C      1  0.5104030000000  0.4687820000000  0.4743860000000 1.0
C      1  0.5101520000000  0.4725250000000  0.5202740000000 1.0
C      1  0.4778510000000  0.4907470000000  0.5597320000000 1.0
C      1  0.4811110000000  0.5562680000000  0.5257030000000 1.0
C      1  0.4773540000000  0.5415720000000  0.4625640000000 1.0
C      1  0.4790810000000  0.4560660000000  0.4514980000000 1.0
C      1  0.4786920000000  0.4406520000000  0.5139010000000 1.0
C      1  0.4720970000000  0.5424410000000  0.5528650000000 1.0
C      1  0.4705860000000  0.5634110000000  0.4814550000000 1.0
C      1  0.4683320000000  0.5039770000000  0.4285880000000 1.0
C      1  0.4689830000000  0.4324530000000  0.4865660000000 1.0
C      1  0.4731080000000  0.4610830000000  0.5561270000000 1.0
C      1  0.4314720000000  0.4745620000000  0.4730780000000 1.0
C      1  0.4304560000000  0.4784460000000  0.5285120000000 1.0
C      1  0.4299350000000  0.5098690000000  0.5344960000000 1.0
C      1  0.4281000000000  0.5337310000000  0.5084110000000 1.0
C      1  0.4295560000000  0.5188170000000  0.4699320000000 1.0
C      1  0.5424770000000  0.4388640000000  0.4858620000000 1.0
C      1  0.5415790000000  0.4648810000000  0.5542550000000 1.0
C      1  0.5433810000000  0.5402680000000  0.5508510000000 1.0
C      1  0.5428370000000  0.5622990000000  0.4759670000000 1.0
C      1  0.5429620000000  0.4958630000000  0.4368090000000 1.0
C      1  0.5154520000000  0.4289520000000  0.4961730000000 1.0
C      1  0.5158460000000  0.4748650000000  0.5644830000000 1.0
C      1  0.5162090000000  0.5526260000000  0.5482710000000 1.0
C      1  0.5145200000000  0.5627930000000  0.4673920000000 1.0
C      1  0.5161290000000  0.4851160000000  0.4303430000000 1.0
C      1  0.4572190000000  0.5055950000000  0.5364010000000 1.0
C      1  0.4538460000000  0.5336860000000  0.5096750000000 1.0
C      1  0.4577890000000  0.5215840000000  0.4642910000000 1.0
C      1  0.4574110000000  0.4717490000000  0.4606390000000 1.0
C      1  0.4513880000000  0.4705400000000  0.5094280000000 1.0
C      1  0.5481530000000  0.4471980000000  0.5309300000000 1.0
C      1  0.5492530000000  0.5128250000000  0.5622390000000 1.0
C      1  0.5386890000000  0.5589790000000  0.5069700000000 1.0
C      1  0.5452750000000  0.5223510000000  0.4476220000000 1.0
C      1  0.5510070000000  0.4523970000000  0.4611020000000 1.0
C      1  0.5557880000000  0.4900910000000  0.5446890000000 1.0
C      1  0.5567280000000  0.5413320000000  0.5256360000000 1.0
C      1  0.5572970000000  0.5374750000000  0.4694790000000 1.0
C      1  0.5569620000000  0.4820230000000  0.4582020000000 1.0
C      1  0.5520560000000  0.4602200000000  0.5041590000000 1.0
C      1  0.4483190000000  0.5259270000000  0.5525580000000 1.0
C      1  0.4459630000000  0.5547880000000  0.4962230000000 1.0
C      1  0.4427310000000  0.5111050000000  0.4426680000000 1.0
C      1  0.4449410000000  0.4499300000000  0.4819960000000 1.0
C      1  0.4501170000000  0.4580810000000  0.5375550000000 1.0
C      1  0.4572130000000  0.5013260000000  0.5040040000000 1.0
C      1  0.4285920000000  0.4983200000000  0.4904520000000 1.0
C      1  0.5268490000000  0.4957800000000  0.5114440000000 1.0
C      1  0.5049790000000  0.5038550000000  0.4922970000000 1.0
END
