TITL C-2441157-2117-1199 0.0158104924722988 125000 -11750.4211738344 0 0 85 (C1) n - 1
REM
REM in /home/bkarasulu/work/CARBON/AIRSS/Generating-Clusters/ReaxFF-fromJPCA2015/Units_Real/with-SteepDescent/Higher-Symm
REM
REM
REM
REM
REM
REM ./C.cell (1df0a924f5614ab8850e4351716899ee)
REM
REM compiler GCC version 9.2.1 20190827 (Red Hat 9.2.1-1)
REM options -cpp -mtune=generic -march=x86-64 -g -O0 -fpre-include=/usr/include/finclude/math-vector-fortran.h
REM seed -1703046967 -2140180721 -2083851922 -575461367 416483747 1068816537 -32905687 2077353297 -1860130907 -1236630125 -1451548471 -1528133484 -521863969 -1825949562 196460635 521313924 2011070101 1381172730 956835501 595316810 -1270899312 2003414533 -560203326 2124129914 165556616 1183526855 -409575163 1643652728 -908281315 1583927092 345059870 -1499951701 -1254246742
REM
CELL 1.54180   50.00000   50.00000   50.00000   90.00000   90.00000   90.00000
LATT -1
SFAC C  
C      1  0.4659510000000  0.4344640000000  0.5464160000000 1.0
C      1  0.4378670000000  0.5500810000000  0.4700920000000 1.0
C      1  0.5542620000000  0.4700660000000  0.4402810000000 1.0
C      1  0.5192790000000  0.5592390000000  0.5603250000000 1.0
C      1  0.4789890000000  0.5575360000000  0.4428080000000 1.0
C      1  0.5317280000000  0.4393360000000  0.4523830000000 1.0
C      1  0.5552570000000  0.4470420000000  0.4739360000000 1.0
C      1  0.4434350000000  0.4408020000000  0.5266240000000 1.0
C      1  0.5679490000000  0.5512430000000  0.5234950000000 1.0
C      1  0.4447610000000  0.5355230000000  0.4434000000000 1.0
C      1  0.5620490000000  0.5277410000000  0.5494670000000 1.0
C      1  0.4392700000000  0.4883620000000  0.5528510000000 1.0
C      1  0.4786030000000  0.4346410000000  0.4484380000000 1.0
C      1  0.4559810000000  0.5599820000000  0.5154400000000 1.0
C      1  0.5597270000000  0.4704000000000  0.5481540000000 1.0
C      1  0.5281690000000  0.5703340000000  0.4565360000000 1.0
C      1  0.4676800000000  0.5574520000000  0.5637430000000 1.0
C      1  0.5097720000000  0.4461300000000  0.5630790000000 1.0
C      1  0.5698150000000  0.4544970000000  0.5242850000000 1.0
C      1  0.4524800000000  0.4387820000000  0.4691470000000 1.0
C      1  0.5530530000000  0.5621680000000  0.4717670000000 1.0
C      1  0.4510650000000  0.5317520000000  0.5692580000000 1.0
C      1  0.5617130000000  0.5213930000000  0.4427760000000 1.0
C      1  0.4387030000000  0.4829560000000  0.4440400000000 1.0
C      1  0.4886690000000  0.5328290000000  0.4831090000000 1.0
C      1  0.5396030000000  0.4902530000000  0.4805280000000 1.0
C      1  0.4888380000000  0.4882400000000  0.5480450000000 1.0
C      1  0.5128350000000  0.4453090000000  0.4894200000000 1.0
C      1  0.4808180000000  0.4658250000000  0.5087260000000 1.0
C      1  0.5134910000000  0.5380180000000  0.5180310000000 1.0
C      1  0.4417880000000  0.5098540000000  0.4875030000000 1.0
C      1  0.5414340000000  0.5163900000000  0.5129410000000 1.0
C      1  0.4517750000000  0.4797270000000  0.5124930000000 1.0
C      1  0.5173890000000  0.5140370000000  0.5602220000000 1.0
C      1  0.4897340000000  0.5216110000000  0.4580680000000 1.0
C      1  0.5152360000000  0.4851570000000  0.4560110000000 1.0
C      1  0.4871090000000  0.5181910000000  0.5080950000000 1.0
C      1  0.5419100000000  0.4861820000000  0.5096020000000 1.0
C      1  0.4871280000000  0.4770620000000  0.4594920000000 1.0
C      1  0.5290980000000  0.4503050000000  0.5133180000000 1.0
C      1  0.4880300000000  0.4573540000000  0.4810160000000 1.0
C      1  0.5139030000000  0.5451170000000  0.4890780000000 1.0
C      1  0.4567800000000  0.5116260000000  0.5126700000000 1.0
C      1  0.5400880000000  0.5198110000000  0.4832800000000 1.0
C      1  0.4367260000000  0.4817630000000  0.4868560000000 1.0
C      1  0.5152800000000  0.5139090000000  0.4520000000000 1.0
C      1  0.4883740000000  0.5146090000000  0.5573730000000 1.0
C      1  0.5172500000000  0.4865160000000  0.5506290000000 1.0
C      1  0.5181330000000  0.4212040000000  0.4727470000000 1.0
C      1  0.4335690000000  0.4679170000000  0.5330060000000 1.0
C      1  0.4702180000000  0.5201180000000  0.4358940000000 1.0
C      1  0.4792800000000  0.5717730000000  0.4676960000000 1.0
C      1  0.5057020000000  0.5612940000000  0.5338430000000 1.0
C      1  0.4859620000000  0.4379960000000  0.5260920000000 1.0
C      1  0.5691400000000  0.5268280000000  0.5106130000000 1.0
C      1  0.4266990000000  0.5345440000000  0.4916450000000 1.0
C      1  0.5662830000000  0.4733450000000  0.4783700000000 1.0
C      1  0.5314300000000  0.4848090000000  0.4293920000000 1.0
C      1  0.4667310000000  0.4789730000000  0.5659760000000 1.0
C      1  0.5368300000000  0.5348690000000  0.5627380000000 1.0
C      1  0.5132030000000  0.4365060000000  0.5356900000000 1.0
C      1  0.4347200000000  0.4622590000000  0.4660910000000 1.0
C      1  0.4671050000000  0.5087680000000  0.5771540000000 1.0
C      1  0.4755550000000  0.5656920000000  0.5360880000000 1.0
C      1  0.5075910000000  0.5728510000000  0.4760530000000 1.0
C      1  0.4890820000000  0.4188600000000  0.4692390000000 1.0
C      1  0.5626810000000  0.5342060000000  0.4700390000000 1.0
C      1  0.4388630000000  0.5357770000000  0.5206080000000 1.0
C      1  0.5713120000000  0.4783200000000  0.5080580000000 1.0
C      1  0.5328940000000  0.4645950000000  0.5614950000000 1.0
C      1  0.4673350000000  0.4899130000000  0.4432570000000 1.0
C      1  0.5352610000000  0.5145700000000  0.4307630000000 1.0
C      1  0.5551220000000  0.4396510000000  0.5032650000000 1.0
C      1  0.4562630000000  0.5655230000000  0.4862050000000 1.0
C      1  0.5693840000000  0.4941880000000  0.4408960000000 1.0
C      1  0.4804810000000  0.4500810000000  0.5661850000000 1.0
C      1  0.4369970000000  0.5173030000000  0.5492760000000 1.0
C      1  0.4939750000000  0.5603890000000  0.5729150000000 1.0
C      1  0.5073510000000  0.5596910000000  0.4358520000000 1.0
C      1  0.5052630000000  0.4432720000000  0.4411510000000 1.0
C      1  0.4477030000000  0.4367570000000  0.4973050000000 1.0
C      1  0.5590870000000  0.5639150000000  0.4996960000000 1.0
C      1  0.4312120000000  0.5103140000000  0.4422730000000 1.0
C      1  0.5628480000000  0.4993340000000  0.5490630000000 1.0
C      1  0.4978020000000  0.4902420000000  0.5064840000000 1.0
END
