TITL C-2441164-471-808 0.00530600363527089 125000 -11379.1495809236 0 0 78 (C1) n - 1
REM
REM in /home/bkarasulu/work/CARBON/AIRSS/Generating-Clusters/ReaxFF-fromJPCA2015/Units_Real/with-SteepDescent/Higher-Symm
REM
REM
REM
REM
REM
REM ./C.cell (1df0a924f5614ab8850e4351716899ee)
REM
REM compiler GCC version 9.2.1 20190827 (Red Hat 9.2.1-1)
REM options -cpp -mtune=generic -march=x86-64 -g -O0 -fpre-include=/usr/include/finclude/math-vector-fortran.h
REM seed -1821187392 -1649111228 1794305121 1348602084 537088574 -1303076948 -2014751207 -55482935 188982133 961915120 1984870989 -503642073 1812369575 464638549 1526632423 833331321 -86095922 -1776362447 1832269392 1924351528 -1032766255 -1516232647 -1307461864 328927103 -2023906007 1800387958 -2038292731 1828041981 -1199266920 -1290087640 -403831896 1721822754 -1620402826
REM
CELL 1.54180   50.00000   50.00000   50.00000   90.00000   90.00000   90.00000
LATT -1
SFAC C  
C      1  0.4768240000000  0.5216000000000  0.4226940000000 1.0
C      1  0.4805070000000  0.4715570000000  0.4229630000000 1.0
C      1  0.4777860000000  0.4144740000000  0.4819580000000 1.0
C      1  0.4781490000000  0.4342230000000  0.5568210000000 1.0
C      1  0.4787310000000  0.5048380000000  0.5867620000000 1.0
C      1  0.4780070000000  0.5725890000000  0.5509000000000 1.0
C      1  0.4763700000000  0.5842440000000  0.4746210000000 1.0
C      1  0.4900190000000  0.5595440000000  0.4448880000000 1.0
C      1  0.5111190000000  0.4972750000000  0.4151510000000 1.0
C      1  0.4923600000000  0.4363290000000  0.4497940000000 1.0
C      1  0.4926630000000  0.4197500000000  0.5204780000000 1.0
C      1  0.4933080000000  0.4671370000000  0.5767360000000 1.0
C      1  0.4947280000000  0.5402440000000  0.5714590000000 1.0
C      1  0.4920780000000  0.5812880000000  0.5130140000000 1.0
C      1  0.5044660000000  0.4693380000000  0.5141160000000 1.0
C      1  0.5047980000000  0.4911900000000  0.5330770000000 1.0
C      1  0.5038650000000  0.5193990000000  0.5262770000000 1.0
C      1  0.5025520000000  0.5321360000000  0.5006620000000 1.0
C      1  0.5034450000000  0.5211300000000  0.4752490000000 1.0
C      1  0.5049610000000  0.4939370000000  0.4680970000000 1.0
C      1  0.5042930000000  0.4708190000000  0.4850450000000 1.0
C      1  0.5046050000000  0.5242540000000  0.4124260000000 1.0
C      1  0.5001100000000  0.4516970000000  0.4259330000000 1.0
C      1  0.5018740000000  0.4084490000000  0.4949240000000 1.0
C      1  0.5027110000000  0.4403710000000  0.5689000000000 1.0
C      1  0.5031760000000  0.5183230000000  0.5894300000000 1.0
C      1  0.5014330000000  0.5836180000000  0.5402380000000 1.0
C      1  0.5002570000000  0.5818310000000  0.4603470000000 1.0
C      1  0.4653670000000  0.5807040000000  0.5000320000000 1.0
C      1  0.4671610000000  0.5427340000000  0.4395460000000 1.0
C      1  0.4646570000000  0.4940960000000  0.4256340000000 1.0
C      1  0.4658430000000  0.4303690000000  0.4624300000000 1.0
C      1  0.4661320000000  0.4275760000000  0.5326780000000 1.0
C      1  0.4666600000000  0.4816230000000  0.5774690000000 1.0
C      1  0.4673190000000  0.5497550000000  0.5627280000000 1.0
C      1  0.4410140000000  0.4539030000000  0.4971710000000 1.0
C      1  0.4413810000000  0.4694910000000  0.5346820000000 1.0
C      1  0.4419170000000  0.5084200000000  0.5459650000000 1.0
C      1  0.4417000000000  0.5415690000000  0.5225790000000 1.0
C      1  0.4395990000000  0.5435850000000  0.4820470000000 1.0
C      1  0.4341530000000  0.5129890000000  0.4566610000000 1.0
C      1  0.4375030000000  0.4732250000000  0.4615850000000 1.0
C      1  0.5171300000000  0.4876820000000  0.4412590000000 1.0
C      1  0.5109220000000  0.4455590000000  0.4712840000000 1.0
C      1  0.5111870000000  0.4430660000000  0.5254740000000 1.0
C      1  0.5115600000000  0.4852980000000  0.5610540000000 1.0
C      1  0.5114760000000  0.5384810000000  0.5468340000000 1.0
C      1  0.5111710000000  0.5596240000000  0.5021790000000 1.0
C      1  0.5118330000000  0.5425510000000  0.4565430000000 1.0
C      1  0.4444030000000  0.4506530000000  0.4720280000000 1.0
C      1  0.4452880000000  0.4477220000000  0.5217210000000 1.0
C      1  0.4458600000000  0.4848250000000  0.5548140000000 1.0
C      1  0.4463740000000  0.5339340000000  0.5465120000000 1.0
C      1  0.4447090000000  0.5577240000000  0.5027650000000 1.0
C      1  0.4435620000000  0.5372400000000  0.4570670000000 1.0
C      1  0.4403430000000  0.4916650000000  0.4443350000000 1.0
C      1  0.5496820000000  0.4364060000000  0.4985930000000 1.0
C      1  0.5489890000000  0.4621720000000  0.5467570000000 1.0
C      1  0.5506510000000  0.5139740000000  0.5613220000000 1.0
C      1  0.5551060000000  0.5590520000000  0.5297370000000 1.0
C      1  0.5537250000000  0.5589470000000  0.4746990000000 1.0
C      1  0.5491420000000  0.5166230000000  0.4406310000000 1.0
C      1  0.5519330000000  0.4582630000000  0.4488910000000 1.0
C      1  0.5621970000000  0.5091490000000  0.5348670000000 1.0
C      1  0.5647820000000  0.5348970000000  0.5178590000000 1.0
C      1  0.5651270000000  0.5358920000000  0.4868860000000 1.0
C      1  0.5614550000000  0.5072550000000  0.4678410000000 1.0
C      1  0.5655300000000  0.4722810000000  0.4704490000000 1.0
C      1  0.5624140000000  0.4631930000000  0.4986820000000 1.0
C      1  0.5597310000000  0.4802780000000  0.5262840000000 1.0
C      1  0.5242270000000  0.5624160000000  0.5345720000000 1.0
C      1  0.5233560000000  0.5665390000000  0.4752920000000 1.0
C      1  0.5280140000000  0.5323290000000  0.4310800000000 1.0
C      1  0.5286040000000  0.4628020000000  0.4304890000000 1.0
C      1  0.5260440000000  0.4247650000000  0.4851230000000 1.0
C      1  0.5266880000000  0.4426520000000  0.5499170000000 1.0
C      1  0.5270230000000  0.5041530000000  0.5767660000000 1.0
C      1  0.5468190000000  0.4998980000000  0.4920160000000 1.0
END
