TITL C-2441164-471-749 0.115382480932066 125000 -18299.9168117809 0 0 148 (C1) n - 1
REM
REM in /home/bkarasulu/work/CARBON/AIRSS/Generating-Clusters/ReaxFF-fromJPCA2015/Units_Real/with-SteepDescent/Higher-Symm
REM
REM
REM
REM
REM
REM ./C.cell (1df0a924f5614ab8850e4351716899ee)
REM
REM compiler GCC version 9.2.1 20190827 (Red Hat 9.2.1-1)
REM options -cpp -mtune=generic -march=x86-64 -g -O0 -fpre-include=/usr/include/finclude/math-vector-fortran.h
REM seed 677493446 334682162 -1810717554 743267145 588727961 814379754 1829109688 497513298 1387708366 1023898688 -1879403398 -199175985 -2005856124 -2018355319 552757903 -1991303618 1571152465 -1461871925 -762329364 -1000075056 -940372557 -995627543 2064509040 1082834942 1335662377 638007851 -624455192 1289972168 -2048232077 -840610851 -1962398158 86269301 1313182233
REM
CELL 1.54180   50.00000   50.00000   50.00000   90.00000   90.00000   90.00000
LATT -1
SFAC C  
C      1  0.4648410000000  0.5640050000000  0.4392860000000 1.0
C      1  0.4379650000000  0.4635470000000  0.5578200000000 1.0
C      1  0.5439440000000  0.4308870000000  0.4535500000000 1.0
C      1  0.4716090000000  0.4415170000000  0.5563470000000 1.0
C      1  0.5429300000000  0.4507240000000  0.4321070000000 1.0
C      1  0.5297940000000  0.5546890000000  0.5559840000000 1.0
C      1  0.4386540000000  0.5345730000000  0.4380700000000 1.0
C      1  0.5581840000000  0.5350360000000  0.5629310000000 1.0
C      1  0.5724790000000  0.4592840000000  0.4547560000000 1.0
C      1  0.5602630000000  0.5563090000000  0.5286420000000 1.0
C      1  0.4371740000000  0.5601360000000  0.4639440000000 1.0
C      1  0.4346990000000  0.4422790000000  0.5370090000000 1.0
C      1  0.4144590000000  0.5502980000000  0.4791600000000 1.0
C      1  0.4817820000000  0.4145330000000  0.5499160000000 1.0
C      1  0.5457630000000  0.4772380000000  0.4167680000000 1.0
C      1  0.4120560000000  0.4495940000000  0.5196400000000 1.0
C      1  0.5866290000000  0.4562840000000  0.4790030000000 1.0
C      1  0.5869140000000  0.5512220000000  0.5173560000000 1.0
C      1  0.4804420000000  0.5857910000000  0.4492360000000 1.0
C      1  0.5188840000000  0.5834230000000  0.5520200000000 1.0
C      1  0.5203260000000  0.4136990000000  0.4543280000000 1.0
C      1  0.5515400000000  0.5205170000000  0.5867840000000 1.0
C      1  0.4488930000000  0.5205090000000  0.4151230000000 1.0
C      1  0.4479390000000  0.4781350000000  0.5823740000000 1.0
C      1  0.5321300000000  0.4227090000000  0.5585440000000 1.0
C      1  0.5588290000000  0.5268600000000  0.4245790000000 1.0
C      1  0.4260310000000  0.5597880000000  0.5306190000000 1.0
C      1  0.5316830000000  0.5744300000000  0.4372500000000 1.0
C      1  0.4675910000000  0.5756990000000  0.5585140000000 1.0
C      1  0.4713090000000  0.4246910000000  0.4392670000000 1.0
C      1  0.5619860000000  0.4694990000000  0.5747030000000 1.0
C      1  0.4402000000000  0.4685980000000  0.4240150000000 1.0
C      1  0.4391580000000  0.5308010000000  0.5747030000000 1.0
C      1  0.4246880000000  0.4385170000000  0.4688410000000 1.0
C      1  0.5764120000000  0.4396310000000  0.5264540000000 1.0
C      1  0.5765790000000  0.5596950000000  0.4668350000000 1.0
C      1  0.5650100000000  0.5157050000000  0.4934220000000 1.0
C      1  0.4967880000000  0.5645690000000  0.5156390000000 1.0
C      1  0.5140570000000  0.4936450000000  0.5710290000000 1.0
C      1  0.5653180000000  0.4888850000000  0.5068210000000 1.0
C      1  0.4341700000000  0.4849790000000  0.4941650000000 1.0
C      1  0.4340730000000  0.5140420000000  0.5057890000000 1.0
C      1  0.4912420000000  0.4288750000000  0.4835690000000 1.0
C      1  0.5054740000000  0.4404780000000  0.5163720000000 1.0
C      1  0.5068390000000  0.5703220000000  0.4873630000000 1.0
C      1  0.5126950000000  0.5068550000000  0.4311290000000 1.0
C      1  0.4856920000000  0.5062660000000  0.5719270000000 1.0
C      1  0.4856270000000  0.4944320000000  0.4316610000000 1.0
C      1  0.4331520000000  0.5030100000000  0.5795800000000 1.0
C      1  0.5781970000000  0.4358140000000  0.4981830000000 1.0
C      1  0.5037230000000  0.5796300000000  0.4322100000000 1.0
C      1  0.4333310000000  0.4961200000000  0.4195590000000 1.0
C      1  0.5684530000000  0.4967250000000  0.5796610000000 1.0
C      1  0.5636410000000  0.4989530000000  0.4225080000000 1.0
C      1  0.5820060000000  0.5672630000000  0.4938940000000 1.0
C      1  0.4203230000000  0.5664710000000  0.5028810000000 1.0
C      1  0.4206190000000  0.4321880000000  0.4972970000000 1.0
C      1  0.5051930000000  0.4183630000000  0.5668050000000 1.0
C      1  0.4998460000000  0.4215120000000  0.4355700000000 1.0
C      1  0.4949270000000  0.5801360000000  0.5672640000000 1.0
C      1  0.5073350000000  0.5429370000000  0.5390020000000 1.0
C      1  0.5327750000000  0.4997180000000  0.5491310000000 1.0
C      1  0.5464310000000  0.5414390000000  0.5043060000000 1.0
C      1  0.5013480000000  0.4514750000000  0.4679220000000 1.0
C      1  0.4921180000000  0.4582980000000  0.5394790000000 1.0
C      1  0.4991470000000  0.5473820000000  0.4672670000000 1.0
C      1  0.5325970000000  0.4994720000000  0.4524910000000 1.0
C      1  0.4655850000000  0.5029580000000  0.5481780000000 1.0
C      1  0.4659470000000  0.5003560000000  0.4523900000000 1.0
C      1  0.5458780000000  0.4691860000000  0.4970800000000 1.0
C      1  0.4544790000000  0.4631590000000  0.4994060000000 1.0
C      1  0.4552360000000  0.5332980000000  0.4981630000000 1.0
C      1  0.4993180000000  0.5326300000000  0.4913850000000 1.0
C      1  0.4859670000000  0.4885260000000  0.5327210000000 1.0
C      1  0.5223190000000  0.4840090000000  0.4956240000000 1.0
C      1  0.4779040000000  0.4744190000000  0.4978190000000 1.0
C      1  0.5018660000000  0.4639090000000  0.4955400000000 1.0
C      1  0.5227530000000  0.5270900000000  0.5002450000000 1.0
C      1  0.4860260000000  0.5037120000000  0.4699210000000 1.0
C      1  0.5111980000000  0.5106560000000  0.5337800000000 1.0
C      1  0.5126890000000  0.4950070000000  0.4697310000000 1.0
C      1  0.5222330000000  0.5055970000000  0.5107860000000 1.0
C      1  0.4777930000000  0.5163610000000  0.4946950000000 1.0
C      1  0.4776990000000  0.4947220000000  0.5092630000000 1.0
C      1  0.4626130000000  0.4352300000000  0.4937150000000 1.0
C      1  0.4964900000000  0.4630090000000  0.4411330000000 1.0
C      1  0.4391090000000  0.4936480000000  0.4627110000000 1.0
C      1  0.4645310000000  0.5596560000000  0.5071820000000 1.0
C      1  0.5376670000000  0.5670860000000  0.4906230000000 1.0
C      1  0.5363910000000  0.4428600000000  0.5045230000000 1.0
C      1  0.4932220000000  0.5373650000000  0.5665780000000 1.0
C      1  0.5049400000000  0.5369040000000  0.4397710000000 1.0
C      1  0.5081310000000  0.4638050000000  0.5647840000000 1.0
C      1  0.4362490000000  0.5055740000000  0.5368030000000 1.0
C      1  0.5601210000000  0.5064100000000  0.4645970000000 1.0
C      1  0.5591930000000  0.4946250000000  0.5375680000000 1.0
C      1  0.4080570000000  0.5220670000000  0.4876370000000 1.0
C      1  0.4885400000000  0.4110600000000  0.5214540000000 1.0
C      1  0.5207700000000  0.4882310000000  0.4054450000000 1.0
C      1  0.4074560000000  0.4781800000000  0.5108280000000 1.0
C      1  0.5955380000000  0.4835690000000  0.4926590000000 1.0
C      1  0.5924620000000  0.5225450000000  0.5094230000000 1.0
C      1  0.4874510000000  0.5941840000000  0.4779290000000 1.0
C      1  0.5117820000000  0.5904270000000  0.5240620000000 1.0
C      1  0.5088320000000  0.4038340000000  0.4816150000000 1.0
C      1  0.5237020000000  0.5128080000000  0.5955570000000 1.0
C      1  0.4771530000000  0.5121060000000  0.4066940000000 1.0
C      1  0.4753440000000  0.4859770000000  0.5933490000000 1.0
C      1  0.4715680000000  0.3978350000000  0.5039980000000 1.0
C      1  0.5040690000000  0.4668030000000  0.3977880000000 1.0
C      1  0.3974510000000  0.5055390000000  0.4676970000000 1.0
C      1  0.4663390000000  0.6019790000000  0.4945280000000 1.0
C      1  0.5333600000000  0.6022620000000  0.5084410000000 1.0
C      1  0.5334310000000  0.4008900000000  0.4964570000000 1.0
C      1  0.5066290000000  0.5335060000000  0.6042390000000 1.0
C      1  0.4937630000000  0.5325310000000  0.3972630000000 1.0
C      1  0.4934380000000  0.4662740000000  0.6035240000000 1.0
C      1  0.3974350000000  0.4952820000000  0.5308140000000 1.0
C      1  0.6020950000000  0.4979060000000  0.4690810000000 1.0
C      1  0.5995680000000  0.5028980000000  0.5284620000000 1.0
C      1  0.5697760000000  0.5319500000000  0.4520090000000 1.0
C      1  0.4520830000000  0.5726120000000  0.5332810000000 1.0
C      1  0.5354110000000  0.4517460000000  0.5673620000000 1.0
C      1  0.5699590000000  0.4660500000000  0.5462590000000 1.0
C      1  0.4294590000000  0.4654800000000  0.4526330000000 1.0
C      1  0.4298280000000  0.5332210000000  0.5464540000000 1.0
C      1  0.4522240000000  0.4275260000000  0.4643760000000 1.0
C      1  0.5483750000000  0.4292560000000  0.5318620000000 1.0
C      1  0.5488250000000  0.5720590000000  0.4637840000000 1.0
C      1  0.5342060000000  0.5453890000000  0.4288650000000 1.0
C      1  0.4650070000000  0.5479800000000  0.5701400000000 1.0
C      1  0.4672160000000  0.4528000000000  0.4290990000000 1.0
C      1  0.5763470000000  0.5132770000000  0.5540710000000 1.0
C      1  0.5565390000000  0.5810950000000  0.5102220000000 1.0
C      1  0.5098810000000  0.5559480000000  0.5804180000000 1.0
C      1  0.5802310000000  0.4862430000000  0.4472850000000 1.0
C      1  0.4206690000000  0.4886550000000  0.5538780000000 1.0
C      1  0.4217200000000  0.5114490000000  0.4449460000000 1.0
C      1  0.5517580000000  0.4242050000000  0.4851960000000 1.0
C      1  0.4439480000000  0.4227390000000  0.5144590000000 1.0
C      1  0.4457500000000  0.5762460000000  0.4879250000000 1.0
C      1  0.5133840000000  0.4463230000000  0.4221240000000 1.0
C      1  0.4912180000000  0.4443670000000  0.5798480000000 1.0
C      1  0.4872570000000  0.5550710000000  0.4217760000000 1.0
C      1  0.5447360000000  0.4549690000000  0.5418640000000 1.0
C      1  0.4638780000000  0.5339940000000  0.5401670000000 1.0
C      1  0.5411090000000  0.5420080000000  0.4593620000000 1.0
C      1  0.4587020000000  0.4573580000000  0.4589010000000 1.0
END
