TITL C-2441163-1170-340 0.0616841369137113 125000 -19981.5780836434 0 0 142 (C1) n - 1
REM
REM in /home/bkarasulu/work/CARBON/AIRSS/Generating-Clusters/ReaxFF-fromJPCA2015/Units_Real/with-SteepDescent/Higher-Symm
REM
REM
REM
REM
REM
REM ./C.cell (1df0a924f5614ab8850e4351716899ee)
REM
REM compiler GCC version 9.2.1 20190827 (Red Hat 9.2.1-1)
REM options -cpp -mtune=generic -march=x86-64 -g -O0 -fpre-include=/usr/include/finclude/math-vector-fortran.h
REM seed 239291410 844428782 -452553710 -2083286499 1659866863 1316556453 -447661322 1227069943 173075530 -895245077 1255786775 -1560378254 470567886 -1142506284 -969205856 -2104697585 97299783 -1921608175 -1248277168 351886465 -1449680987 -1054702742 176826456 261247398 -683203628 -194989164 -1939132258 1272370860 842947934 756579371 -1798440697 936704027 -989695686
REM
CELL 1.54180   50.00000   50.00000   50.00000   90.00000   90.00000   90.00000
LATT -1
SFAC C  
C      1  0.5342550000000  0.4568130000000  0.4940980000000 1.0
C      1  0.5341820000000  0.4647770000000  0.5370740000000 1.0
C      1  0.5385630000000  0.5032790000000  0.5417610000000 1.0
C      1  0.5367840000000  0.5409490000000  0.5280680000000 1.0
C      1  0.5271120000000  0.5441060000000  0.4849910000000 1.0
C      1  0.5302610000000  0.5263100000000  0.4628550000000 1.0
C      1  0.5347370000000  0.4781410000000  0.4586480000000 1.0
C      1  0.4783790000000  0.4969980000000  0.4072010000000 1.0
C      1  0.4789300000000  0.4263700000000  0.4447640000000 1.0
C      1  0.4797160000000  0.4097590000000  0.5233900000000 1.0
C      1  0.4797850000000  0.4606680000000  0.5844900000000 1.0
C      1  0.4798140000000  0.5405390000000  0.5870730000000 1.0
C      1  0.4733840000000  0.5901500000000  0.5118480000000 1.0
C      1  0.4788230000000  0.5707770000000  0.4375830000000 1.0
C      1  0.5754540000000  0.4852130000000  0.5652970000000 1.0
C      1  0.5709640000000  0.5411350000000  0.5499540000000 1.0
C      1  0.5735810000000  0.5656440000000  0.4992840000000 1.0
C      1  0.5735010000000  0.5397080000000  0.4485200000000 1.0
C      1  0.5742400000000  0.4840400000000  0.4358860000000 1.0
C      1  0.5744130000000  0.4396140000000  0.4728380000000 1.0
C      1  0.5765420000000  0.4388600000000  0.5307440000000 1.0
C      1  0.4792050000000  0.5924760000000  0.4835990000000 1.0
C      1  0.4783700000000  0.5466420000000  0.4192580000000 1.0
C      1  0.4788730000000  0.4677240000000  0.4135940000000 1.0
C      1  0.4781400000000  0.4121590000000  0.4717780000000 1.0
C      1  0.4791650000000  0.4212220000000  0.5514210000000 1.0
C      1  0.4786730000000  0.4898330000000  0.5926960000000 1.0
C      1  0.4762140000000  0.5665680000000  0.5710480000000 1.0
C      1  0.5987160000000  0.5080150000000  0.5331240000000 1.0
C      1  0.5991280000000  0.5306760000000  0.5140980000000 1.0
C      1  0.5992220000000  0.5297110000000  0.4846510000000 1.0
C      1  0.5992900000000  0.5061530000000  0.4669030000000 1.0
C      1  0.5992700000000  0.4776060000000  0.4742840000000 1.0
C      1  0.5992810000000  0.4655540000000  0.5012730000000 1.0
C      1  0.5998520000000  0.4788430000000  0.5275980000000 1.0
C      1  0.4644960000000  0.4465870000000  0.4292040000000 1.0
C      1  0.4648870000000  0.4123210000000  0.4981520000000 1.0
C      1  0.4649130000000  0.4407260000000  0.5685980000000 1.0
C      1  0.4653000000000  0.5154600000000  0.5880290000000 1.0
C      1  0.4616330000000  0.5721290000000  0.5480500000000 1.0
C      1  0.4643180000000  0.5809340000000  0.4605250000000 1.0
C      1  0.4636410000000  0.5214920000000  0.4137500000000 1.0
C      1  0.5085340000000  0.4243620000000  0.5503410000000 1.0
C      1  0.5082820000000  0.4907870000000  0.5913960000000 1.0
C      1  0.5066640000000  0.5669480000000  0.5674090000000 1.0
C      1  0.5081500000000  0.5880270000000  0.4885120000000 1.0
C      1  0.5080870000000  0.5466390000000  0.4194390000000 1.0
C      1  0.5079320000000  0.4681950000000  0.4147960000000 1.0
C      1  0.5077190000000  0.4110830000000  0.4714940000000 1.0
C      1  0.5076360000000  0.4836600000000  0.4603560000000 1.0
C      1  0.5077730000000  0.4578300000000  0.5022130000000 1.0
C      1  0.5062130000000  0.4712550000000  0.5290440000000 1.0
C      1  0.5125010000000  0.5018280000000  0.5305280000000 1.0
C      1  0.5043990000000  0.5465680000000  0.5245300000000 1.0
C      1  0.5041110000000  0.5391120000000  0.4964250000000 1.0
C      1  0.5064110000000  0.5105490000000  0.4508240000000 1.0
C      1  0.4789160000000  0.5315090000000  0.5321190000000 1.0
C      1  0.4838060000000  0.5386850000000  0.4805410000000 1.0
C      1  0.4820880000000  0.5210660000000  0.4600610000000 1.0
C      1  0.4854940000000  0.4678450000000  0.4660630000000 1.0
C      1  0.4831240000000  0.4549560000000  0.4903520000000 1.0
C      1  0.4819740000000  0.4790890000000  0.5437380000000 1.0
C      1  0.4882160000000  0.5074470000000  0.5446390000000 1.0
C      1  0.5072480000000  0.4991590000000  0.4175240000000 1.0
C      1  0.5084830000000  0.4263090000000  0.4464780000000 1.0
C      1  0.5089660000000  0.4149220000000  0.5227340000000 1.0
C      1  0.5092220000000  0.4629210000000  0.5827640000000 1.0
C      1  0.5081790000000  0.5408710000000  0.5794060000000 1.0
C      1  0.5041440000000  0.5803110000000  0.5177880000000 1.0
C      1  0.5085590000000  0.5677280000000  0.4395480000000 1.0
C      1  0.4180440000000  0.4658480000000  0.5574440000000 1.0
C      1  0.4260090000000  0.5353570000000  0.5568670000000 1.0
C      1  0.4233230000000  0.5652450000000  0.5137360000000 1.0
C      1  0.4209040000000  0.5509030000000  0.4606460000000 1.0
C      1  0.4183100000000  0.5007710000000  0.4348650000000 1.0
C      1  0.4185340000000  0.4495190000000  0.4575590000000 1.0
C      1  0.4186090000000  0.4350880000000  0.5119060000000 1.0
C      1  0.5343000000000  0.4119440000000  0.4841080000000 1.0
C      1  0.5355360000000  0.4308290000000  0.5598080000000 1.0
C      1  0.5346780000000  0.5030320000000  0.5886530000000 1.0
C      1  0.5320950000000  0.5734410000000  0.5541910000000 1.0
C      1  0.5343500000000  0.5852910000000  0.4764640000000 1.0
C      1  0.5350060000000  0.5348470000000  0.4169220000000 1.0
C      1  0.5342330000000  0.4573370000000  0.4209550000000 1.0
C      1  0.5356720000000  0.5316940000000  0.5832370000000 1.0
C      1  0.5322740000000  0.5842330000000  0.5267110000000 1.0
C      1  0.5350250000000  0.5726660000000  0.4497290000000 1.0
C      1  0.5356230000000  0.5064410000000  0.4110140000000 1.0
C      1  0.5350780000000  0.4349690000000  0.4396730000000 1.0
C      1  0.5359420000000  0.4124140000000  0.5132140000000 1.0
C      1  0.5361730000000  0.4538730000000  0.5778880000000 1.0
C      1  0.5550790000000  0.4936300000000  0.4685460000000 1.0
C      1  0.5521530000000  0.4709310000000  0.4780790000000 1.0
C      1  0.5499350000000  0.4628000000000  0.5156280000000 1.0
C      1  0.5535230000000  0.4814900000000  0.5333260000000 1.0
C      1  0.5521920000000  0.5184910000000  0.5232430000000 1.0
C      1  0.5495630000000  0.5347830000000  0.5010560000000 1.0
C      1  0.5550230000000  0.5179110000000  0.4769400000000 1.0
C      1  0.4460240000000  0.4545970000000  0.4504040000000 1.0
C      1  0.4473050000000  0.4346160000000  0.5070550000000 1.0
C      1  0.4450600000000  0.4570350000000  0.5554810000000 1.0
C      1  0.4488180000000  0.5202380000000  0.5633160000000 1.0
C      1  0.4490300000000  0.5780740000000  0.5238930000000 1.0
C      1  0.4483060000000  0.5572900000000  0.4676460000000 1.0
C      1  0.4462820000000  0.5079090000000  0.4334590000000 1.0
C      1  0.5829340000000  0.5508590000000  0.4743650000000 1.0
C      1  0.5831450000000  0.5112610000000  0.4438760000000 1.0
C      1  0.5833540000000  0.4626230000000  0.4558530000000 1.0
C      1  0.5836860000000  0.4417540000000  0.5018240000000 1.0
C      1  0.5851560000000  0.4634500000000  0.5465100000000 1.0
C      1  0.5820530000000  0.5129150000000  0.5555560000000 1.0
C      1  0.5827350000000  0.5520240000000  0.5237480000000 1.0
C      1  0.4121920000000  0.5570850000000  0.4881780000000 1.0
C      1  0.4110870000000  0.5255150000000  0.4490680000000 1.0
C      1  0.4094560000000  0.4757560000000  0.4479040000000 1.0
C      1  0.4097500000000  0.4435550000000  0.4852760000000 1.0
C      1  0.4084290000000  0.4527820000000  0.5332180000000 1.0
C      1  0.4163670000000  0.4955010000000  0.5538590000000 1.0
C      1  0.4121090000000  0.5479570000000  0.5349360000000 1.0
C      1  0.5506010000000  0.4259900000000  0.4638270000000 1.0
C      1  0.5519770000000  0.4242450000000  0.5358320000000 1.0
C      1  0.5511570000000  0.4798750000000  0.5801820000000 1.0
C      1  0.5494020000000  0.5517470000000  0.5662320000000 1.0
C      1  0.5493260000000  0.5815100000000  0.5019180000000 1.0
C      1  0.5511590000000  0.5521730000000  0.4351470000000 1.0
C      1  0.5509790000000  0.4821850000000  0.4187830000000 1.0
C      1  0.3993320000000  0.5320080000000  0.4935860000000 1.0
C      1  0.3996430000000  0.5143750000000  0.4721550000000 1.0
C      1  0.3992730000000  0.4868130000000  0.4715620000000 1.0
C      1  0.3994480000000  0.4690860000000  0.4924300000000 1.0
C      1  0.3975980000000  0.4749640000000  0.5192920000000 1.0
C      1  0.3979780000000  0.5001980000000  0.5320210000000 1.0
C      1  0.3985390000000  0.5258670000000  0.5205480000000 1.0
C      1  0.4602760000000  0.5462880000000  0.4911230000000 1.0
C      1  0.4576770000000  0.5052060000000  0.4600730000000 1.0
C      1  0.4585160000000  0.4762900000000  0.4660750000000 1.0
C      1  0.4575300000000  0.4616860000000  0.5036570000000 1.0
C      1  0.4565150000000  0.4750970000000  0.5346610000000 1.0
C      1  0.4424280000000  0.5010660000000  0.5417260000000 1.0
C      1  0.4562160000000  0.5278020000000  0.5136840000000 1.0
C      1  0.4831920000000  0.4960980000000  0.4971270000000 1.0
C      1  0.4596540000000  0.5013340000000  0.5006640000000 1.0
END
