TITL C-2441167-4473-1353 0.0691382441277942 125000 -26186.7427320922 0 0 181 (C1) n - 1
REM
REM in /home/bkarasulu/work/CARBON/AIRSS/Generating-Clusters/ReaxFF-fromJPCA2015/Units_Real/with-SteepDescent/Higher-Symm
REM
REM
REM
REM
REM
REM ./C.cell (1df0a924f5614ab8850e4351716899ee)
REM
REM compiler GCC version 9.2.1 20190827 (Red Hat 9.2.1-1)
REM options -cpp -mtune=generic -march=x86-64 -g -O0 -fpre-include=/usr/include/finclude/math-vector-fortran.h
REM seed -1437388930 -1216496346 -1076989409 -1209907517 -1612234151 824829490 1161052263 -1838088701 -110900944 -789138031 2036078044 -1824144741 -789647009 -877459425 2134314758 -318491932 295147457 653280903 -1195598726 1953716705 -2027173478 385140077 1785110089 -1443589851 -823499824 -1666787487 625365000 696454487 -1341320317 -1263188489 742585194 -1887809177 1865228925
REM
CELL 1.54180   50.00000   50.00000   50.00000   90.00000   90.00000   90.00000
LATT -1
SFAC C  
C      1  0.5401990000000  0.4933510000000  0.4988760000000 1.0
C      1  0.5144650000000  0.4818610000000  0.4572270000000 1.0
C      1  0.4670030000000  0.4809790000000  0.4753180000000 1.0
C      1  0.4637810000000  0.4813560000000  0.5258170000000 1.0
C      1  0.5114120000000  0.4941550000000  0.5387580000000 1.0
C      1  0.4640840000000  0.4954270000000  0.4995270000000 1.0
C      1  0.4897510000000  0.4953190000000  0.4653580000000 1.0
C      1  0.5346550000000  0.4780520000000  0.4753530000000 1.0
C      1  0.5333430000000  0.4831070000000  0.5245610000000 1.0
C      1  0.4869160000000  0.4787750000000  0.5416620000000 1.0
C      1  0.4331380000000  0.4503340000000  0.5677630000000 1.0
C      1  0.5451400000000  0.4475040000000  0.5869700000000 1.0
C      1  0.5959640000000  0.4480690000000  0.4842370000000 1.0
C      1  0.5136300000000  0.4488750000000  0.4031790000000 1.0
C      1  0.4124080000000  0.4493380000000  0.4571500000000 1.0
C      1  0.5686030000000  0.4493360000000  0.5685070000000 1.0
C      1  0.4562090000000  0.4502960000000  0.5843930000000 1.0
C      1  0.4041880000000  0.4461160000000  0.4850410000000 1.0
C      1  0.4847610000000  0.4460030000000  0.4047470000000 1.0
C      1  0.5863160000000  0.4499110000000  0.4565760000000 1.0
C      1  0.5656520000000  0.5189950000000  0.5531740000000 1.0
C      1  0.5729710000000  0.5144860000000  0.4513110000000 1.0
C      1  0.4789860000000  0.5145620000000  0.4167390000000 1.0
C      1  0.4143520000000  0.5158430000000  0.4931320000000 1.0
C      1  0.4688360000000  0.5188750000000  0.5798970000000 1.0
C      1  0.4322840000000  0.5174540000000  0.5549530000000 1.0
C      1  0.4283290000000  0.5200290000000  0.4542440000000 1.0
C      1  0.5244880000000  0.5174560000000  0.4171750000000 1.0
C      1  0.5871400000000  0.5162600000000  0.4932890000000 1.0
C      1  0.5330170000000  0.5168290000000  0.5800900000000 1.0
C      1  0.5701460000000  0.5823800000000  0.5377100000000 1.0
C      1  0.5579200000000  0.5834500000000  0.4453130000000 1.0
C      1  0.4657170000000  0.5812300000000  0.4283620000000 1.0
C      1  0.4242630000000  0.5821150000000  0.5109790000000 1.0
C      1  0.4839970000000  0.5818700000000  0.5801130000000 1.0
C      1  0.4285040000000  0.5818530000000  0.5395540000000 1.0
C      1  0.4417820000000  0.5824320000000  0.4443320000000 1.0
C      1  0.5340300000000  0.5839650000000  0.4276240000000 1.0
C      1  0.5782540000000  0.5814060000000  0.5100890000000 1.0
C      1  0.5124460000000  0.5812940000000  0.5752190000000 1.0
C      1  0.4560850000000  0.5875110000000  0.5370890000000 1.0
C      1  0.5181660000000  0.5825210000000  0.5454140000000 1.0
C      1  0.5484710000000  0.5835740000000  0.5009010000000 1.0
C      1  0.5174450000000  0.5910040000000  0.4512270000000 1.0
C      1  0.4567340000000  0.5901180000000  0.4682850000000 1.0
C      1  0.5427340000000  0.5897610000000  0.5307310000000 1.0
C      1  0.4776660000000  0.5873380000000  0.5531400000000 1.0
C      1  0.4506180000000  0.5832110000000  0.4962740000000 1.0
C      1  0.4835800000000  0.5839480000000  0.4538710000000 1.0
C      1  0.5404810000000  0.5908130000000  0.4681420000000 1.0
C      1  0.5867650000000  0.5403310000000  0.4560950000000 1.0
C      1  0.4865380000000  0.5406470000000  0.4061130000000 1.0
C      1  0.4065140000000  0.5427000000000  0.4844970000000 1.0
C      1  0.4533970000000  0.5423690000000  0.5872340000000 1.0
C      1  0.5675610000000  0.5429030000000  0.5695560000000 1.0
C      1  0.4128150000000  0.5439130000000  0.4577100000000 1.0
C      1  0.5145800000000  0.5412200000000  0.4041610000000 1.0
C      1  0.5956980000000  0.5418470000000  0.4827960000000 1.0
C      1  0.5448000000000  0.5426860000000  0.5858090000000 1.0
C      1  0.4312160000000  0.5419370000000  0.5702630000000 1.0
C      1  0.4849150000000  0.3983110000000  0.5431220000000 1.0
C      1  0.5358360000000  0.3971750000000  0.5274180000000 1.0
C      1  0.5362700000000  0.3966200000000  0.4738870000000 1.0
C      1  0.4840600000000  0.3943170000000  0.4553280000000 1.0
C      1  0.4520210000000  0.3933300000000  0.5002150000000 1.0
C      1  0.5129060000000  0.3931590000000  0.5445410000000 1.0
C      1  0.4619820000000  0.3968640000000  0.5271160000000 1.0
C      1  0.4610680000000  0.3969560000000  0.4726240000000 1.0
C      1  0.5128330000000  0.3983240000000  0.4573630000000 1.0
C      1  0.5453660000000  0.3949060000000  0.5007810000000 1.0
C      1  0.5387060000000  0.5570680000000  0.4982580000000 1.0
C      1  0.5128010000000  0.5433740000000  0.4575930000000 1.0
C      1  0.4681190000000  0.5445470000000  0.4758280000000 1.0
C      1  0.4638650000000  0.5432450000000  0.5247310000000 1.0
C      1  0.5116580000000  0.5558470000000  0.5362860000000 1.0
C      1  0.4608710000000  0.5564850000000  0.4990710000000 1.0
C      1  0.4884800000000  0.5570400000000  0.4632800000000 1.0
C      1  0.5362160000000  0.5440520000000  0.4730130000000 1.0
C      1  0.5324080000000  0.5421920000000  0.5216500000000 1.0
C      1  0.4863960000000  0.5438670000000  0.5405780000000 1.0
C      1  0.6025510000000  0.4880380000000  0.5476120000000 1.0
C      1  0.5772050000000  0.4848270000000  0.4153170000000 1.0
C      1  0.4460670000000  0.4860930000000  0.4009740000000 1.0
C      1  0.3892060000000  0.4872150000000  0.5198590000000 1.0
C      1  0.4844110000000  0.4868780000000  0.6119340000000 1.0
C      1  0.3964380000000  0.4867990000000  0.5478360000000 1.0
C      1  0.4222310000000  0.4871190000000  0.4174150000000 1.0
C      1  0.5539600000000  0.4849640000000  0.3991940000000 1.0
C      1  0.6102940000000  0.4870920000000  0.5200050000000 1.0
C      1  0.5130620000000  0.4874290000000  0.6114950000000 1.0
C      1  0.4452410000000  0.4097580000000  0.4505750000000 1.0
C      1  0.4370010000000  0.4094250000000  0.5354690000000 1.0
C      1  0.5136480000000  0.4049000000000  0.5716290000000 1.0
C      1  0.5718340000000  0.4056690000000  0.5082850000000 1.0
C      1  0.5287020000000  0.4113860000000  0.4357850000000 1.0
C      1  0.5527890000000  0.4095100000000  0.4526920000000 1.0
C      1  0.5617490000000  0.4097730000000  0.5357720000000 1.0
C      1  0.4847900000000  0.4103450000000  0.5697050000000 1.0
C      1  0.4269840000000  0.4066020000000  0.5081620000000 1.0
C      1  0.4688030000000  0.4062910000000  0.4328490000000 1.0
C      1  0.5604380000000  0.5124720000000  0.5032240000000 1.0
C      1  0.5214760000000  0.5171790000000  0.4458620000000 1.0
C      1  0.4560070000000  0.5246040000000  0.4600780000000 1.0
C      1  0.4476900000000  0.5188730000000  0.5305470000000 1.0
C      1  0.5151960000000  0.5151050000000  0.5576080000000 1.0
C      1  0.4390140000000  0.5089270000000  0.5051710000000 1.0
C      1  0.4762020000000  0.5110460000000  0.4448600000000 1.0
C      1  0.5464290000000  0.5196990000000  0.4614530000000 1.0
C      1  0.5508300000000  0.5214670000000  0.5288020000000 1.0
C      1  0.4879420000000  0.5237790000000  0.5594280000000 1.0
C      1  0.4458450000000  0.5409940000000  0.4012020000000 1.0
C      1  0.3897900000000  0.5420580000000  0.5213540000000 1.0
C      1  0.4842880000000  0.5418040000000  0.6136900000000 1.0
C      1  0.6023610000000  0.5427910000000  0.5486110000000 1.0
C      1  0.5780640000000  0.5453910000000  0.4159270000000 1.0
C      1  0.5552170000000  0.5460830000000  0.3991550000000 1.0
C      1  0.6106870000000  0.5421610000000  0.5209410000000 1.0
C      1  0.5131020000000  0.5421240000000  0.6113200000000 1.0
C      1  0.3962080000000  0.5415330000000  0.5494310000000 1.0
C      1  0.4220300000000  0.5419740000000  0.4173640000000 1.0
C      1  0.5242590000000  0.4394990000000  0.4283620000000 1.0
C      1  0.4378450000000  0.4375870000000  0.4527210000000 1.0
C      1  0.4384100000000  0.4378890000000  0.5421260000000 1.0
C      1  0.5262850000000  0.4311920000000  0.5712310000000 1.0
C      1  0.5778630000000  0.4336980000000  0.5022740000000 1.0
C      1  0.4759430000000  0.4326260000000  0.4274680000000 1.0
C      1  0.5597850000000  0.4375860000000  0.4561640000000 1.0
C      1  0.5626850000000  0.4377920000000  0.5430210000000 1.0
C      1  0.4782970000000  0.4385850000000  0.5715540000000 1.0
C      1  0.4246890000000  0.4314770000000  0.4969670000000 1.0
C      1  0.4242630000000  0.4866030000000  0.5906580000000 1.0
C      1  0.5611260000000  0.4843850000000  0.6008470000000 1.0
C      1  0.6238820000000  0.4861980000000  0.4744280000000 1.0
C      1  0.5121300000000  0.4894410000000  0.3757680000000 1.0
C      1  0.3859280000000  0.4904120000000  0.4509880000000 1.0
C      1  0.5819710000000  0.4896270000000  0.5916630000000 1.0
C      1  0.4375460000000  0.4879460000000  0.6096820000000 1.0
C      1  0.3832870000000  0.4838270000000  0.4731540000000 1.0
C      1  0.4902010000000  0.4843200000000  0.3817870000000 1.0
C      1  0.6100710000000  0.4850170000000  0.4557940000000 1.0
C      1  0.5173850000000  0.4442330000000  0.5468620000000 1.0
C      1  0.5507810000000  0.4444410000000  0.5031660000000 1.0
C      1  0.5086550000000  0.4558320000000  0.4476830000000 1.0
C      1  0.4605690000000  0.4538310000000  0.4705810000000 1.0
C      1  0.4515010000000  0.4550860000000  0.5224520000000 1.0
C      1  0.4923490000000  0.4536340000000  0.5525760000000 1.0
C      1  0.4491080000000  0.4443190000000  0.4965900000000 1.0
C      1  0.4831850000000  0.4451700000000  0.4514190000000 1.0
C      1  0.5435540000000  0.4512580000000  0.4769250000000 1.0
C      1  0.5382850000000  0.4546270000000  0.5284590000000 1.0
C      1  0.4661380000000  0.5614510000000  0.4068870000000 1.0
C      1  0.4025900000000  0.5627700000000  0.5049770000000 1.0
C      1  0.4705660000000  0.5625840000000  0.5987540000000 1.0
C      1  0.5832960000000  0.5634920000000  0.5564970000000 1.0
C      1  0.5788180000000  0.5626700000000  0.4389480000000 1.0
C      1  0.5335060000000  0.5637920000000  0.4052920000000 1.0
C      1  0.5993230000000  0.5625250000000  0.5032940000000 1.0
C      1  0.5252980000000  0.5624820000000  0.5941640000000 1.0
C      1  0.4147690000000  0.5621850000000  0.5576040000000 1.0
C      1  0.4201040000000  0.5631410000000  0.4373120000000 1.0
C      1  0.4174150000000  0.4753470000000  0.5656500000000 1.0
C      1  0.5363200000000  0.4711190000000  0.6021460000000 1.0
C      1  0.6132030000000  0.4696440000000  0.4952100000000 1.0
C      1  0.5288870000000  0.4715790000000  0.3906320000000 1.0
C      1  0.4079150000000  0.4751040000000  0.4406950000000 1.0
C      1  0.5866890000000  0.4736370000000  0.5688260000000 1.0
C      1  0.4597840000000  0.4704800000000  0.6050140000000 1.0
C      1  0.3893460000000  0.4688880000000  0.4962910000000 1.0
C      1  0.4703110000000  0.4695860000000  0.3949870000000 1.0
C      1  0.5863920000000  0.4763150000000  0.4419450000000 1.0
C      1  0.6096760000000  0.5146730000000  0.5106780000000 1.0
C      1  0.5494320000000  0.5133510000000  0.4054650000000 1.0
C      1  0.4173030000000  0.5142380000000  0.4276720000000 1.0
C      1  0.4038920000000  0.5135760000000  0.5567530000000 1.0
C      1  0.5225050000000  0.5147210000000  0.6066300000000 1.0
C      1  0.3912370000000  0.5147590000000  0.5101250000000 1.0
C      1  0.4561750000000  0.5134270000000  0.3992510000000 1.0
C      1  0.5750610000000  0.5130270000000  0.4223520000000 1.0
C      1  0.5940220000000  0.5152180000000  0.5546050000000 1.0
C      1  0.4756720000000  0.5142220000000  0.6073240000000 1.0
C      1  0.4936630000000  0.5118840000000  0.4946940000000 1.0
END
