TITL C-2441164-471-301 0.0875449123988282 125000 -13917.7368347452 0 0 110 (C1) n - 1
REM
REM in /home/bkarasulu/work/CARBON/AIRSS/Generating-Clusters/ReaxFF-fromJPCA2015/Units_Real/with-SteepDescent/Higher-Symm
REM
REM
REM
REM
REM
REM ./C.cell (1df0a924f5614ab8850e4351716899ee)
REM
REM compiler GCC version 9.2.1 20190827 (Red Hat 9.2.1-1)
REM options -cpp -mtune=generic -march=x86-64 -g -O0 -fpre-include=/usr/include/finclude/math-vector-fortran.h
REM seed -978655693 2012938165 1657386469 -1179976571 1004362600 39594153 -1129492732 -652560066 -612976930 37515987 1150727886 -964122431 -1735986361 2042838408 1789340467 729459425 180803080 2088548757 1172684865 1039074864 -1883772383 810037902 1611622893 1794293179 -2037795164 953668009 -1326439388 -1523843614 1784992378 806299230 125333297 -309557928 1697926001
REM
CELL 1.54180   50.00000   50.00000   50.00000   90.00000   90.00000   90.00000
LATT -1
SFAC C  
C      1  0.4937800000000  0.4158340000000  0.5140420000000 1.0
C      1  0.5784030000000  0.5358480000000  0.5139480000000 1.0
C      1  0.4293610000000  0.5494110000000  0.5138160000000 1.0
C      1  0.4949270000000  0.4171300000000  0.4840910000000 1.0
C      1  0.5770310000000  0.5367540000000  0.4840760000000 1.0
C      1  0.4296150000000  0.5491310000000  0.4839710000000 1.0
C      1  0.5029930000000  0.4406870000000  0.5715600000000 1.0
C      1  0.5493060000000  0.5298520000000  0.5706330000000 1.0
C      1  0.4470730000000  0.5274910000000  0.5714290000000 1.0
C      1  0.5004880000000  0.4437030000000  0.4281450000000 1.0
C      1  0.5490920000000  0.5298250000000  0.4273810000000 1.0
C      1  0.4474560000000  0.5263850000000  0.4267090000000 1.0
C      1  0.4964340000000  0.5291840000000  0.5791150000000 1.0
C      1  0.4766120000000  0.4835160000000  0.5795570000000 1.0
C      1  0.5269390000000  0.4876860000000  0.5791590000000 1.0
C      1  0.4967950000000  0.5307800000000  0.4148690000000 1.0
C      1  0.4769820000000  0.4861470000000  0.4209290000000 1.0
C      1  0.5254470000000  0.4881840000000  0.4194590000000 1.0
C      1  0.5493670000000  0.5012510000000  0.5655780000000 1.0
C      1  0.4716890000000  0.5432160000000  0.5684400000000 1.0
C      1  0.4784740000000  0.4549820000000  0.5694620000000 1.0
C      1  0.5445530000000  0.5025800000000  0.4376870000000 1.0
C      1  0.4721850000000  0.5418890000000  0.4281920000000 1.0
C      1  0.4860860000000  0.4654080000000  0.4394960000000 1.0
C      1  0.4718800000000  0.4293150000000  0.4698390000000 1.0
C      1  0.5761500000000  0.5107340000000  0.4715890000000 1.0
C      1  0.4521120000000  0.5629960000000  0.4696250000000 1.0
C      1  0.4708920000000  0.4292240000000  0.5276570000000 1.0
C      1  0.5777080000000  0.5095870000000  0.5268280000000 1.0
C      1  0.4518680000000  0.5629000000000  0.5273290000000 1.0
C      1  0.5175350000000  0.4806410000000  0.4586830000000 1.0
C      1  0.5100090000000  0.5186310000000  0.4537090000000 1.0
C      1  0.4875890000000  0.5063460000000  0.4662080000000 1.0
C      1  0.5169150000000  0.4864380000000  0.5383150000000 1.0
C      1  0.4961040000000  0.5209570000000  0.5376110000000 1.0
C      1  0.4868930000000  0.4923690000000  0.5395720000000 1.0
C      1  0.4233740000000  0.5224920000000  0.5246430000000 1.0
C      1  0.5197230000000  0.4245720000000  0.5240550000000 1.0
C      1  0.5586590000000  0.5530510000000  0.5256900000000 1.0
C      1  0.4244620000000  0.5222040000000  0.4737090000000 1.0
C      1  0.5205850000000  0.4217650000000  0.4711750000000 1.0
C      1  0.5558980000000  0.5539390000000  0.4734740000000 1.0
C      1  0.4170580000000  0.4829950000000  0.5135690000000 1.0
C      1  0.5608190000000  0.4434460000000  0.5147370000000 1.0
C      1  0.5220930000000  0.5819090000000  0.5142020000000 1.0
C      1  0.4192300000000  0.4819170000000  0.4843320000000 1.0
C      1  0.5632550000000  0.4456570000000  0.4857950000000 1.0
C      1  0.5235970000000  0.5783830000000  0.4839240000000 1.0
C      1  0.4472490000000  0.4858730000000  0.4762930000000 1.0
C      1  0.5352810000000  0.4485020000000  0.4755040000000 1.0
C      1  0.5157680000000  0.5515110000000  0.4774180000000 1.0
C      1  0.4439890000000  0.4874180000000  0.5229440000000 1.0
C      1  0.5377880000000  0.4602640000000  0.5193850000000 1.0
C      1  0.5179320000000  0.5539370000000  0.5211330000000 1.0
C      1  0.4797140000000  0.5265530000000  0.4852340000000 1.0
C      1  0.4884580000000  0.4822620000000  0.4866180000000 1.0
C      1  0.5268490000000  0.4988260000000  0.4833480000000 1.0
C      1  0.4824500000000  0.5268300000000  0.5136670000000 1.0
C      1  0.4808100000000  0.4774230000000  0.5138860000000 1.0
C      1  0.5270290000000  0.4988210000000  0.5135460000000 1.0
C      1  0.5582340000000  0.4931000000000  0.5126310000000 1.0
C      1  0.4760150000000  0.5550620000000  0.5108480000000 1.0
C      1  0.4645070000000  0.4530010000000  0.5109650000000 1.0
C      1  0.5607200000000  0.4926000000000  0.4885540000000 1.0
C      1  0.4764480000000  0.5554830000000  0.4858800000000 1.0
C      1  0.4556800000000  0.4454850000000  0.4864150000000 1.0
C      1  0.5050940000000  0.4592430000000  0.4869700000000 1.0
C      1  0.5353870000000  0.5338000000000  0.4852380000000 1.0
C      1  0.4513620000000  0.5129080000000  0.4852380000000 1.0
C      1  0.5119270000000  0.4520840000000  0.5133580000000 1.0
C      1  0.5377100000000  0.5361680000000  0.5142180000000 1.0
C      1  0.4503400000000  0.5132650000000  0.5149900000000 1.0
C      1  0.4275260000000  0.4526170000000  0.5155770000000 1.0
C      1  0.5746070000000  0.4678810000000  0.5266790000000 1.0
C      1  0.4917800000000  0.5832710000000  0.5152410000000 1.0
C      1  0.4270620000000  0.4518090000000  0.4840940000000 1.0
C      1  0.5719380000000  0.4705620000000  0.4747550000000 1.0
C      1  0.4936080000000  0.5830020000000  0.4860320000000 1.0
C      1  0.5245840000000  0.4580220000000  0.5807980000000 1.0
C      1  0.5231840000000  0.5410940000000  0.5811100000000 1.0
C      1  0.4517390000000  0.4995720000000  0.5808200000000 1.0
C      1  0.5227810000000  0.4592140000000  0.4175840000000 1.0
C      1  0.5238850000000  0.5419380000000  0.4156540000000 1.0
C      1  0.4523130000000  0.4994010000000  0.4189960000000 1.0
C      1  0.5432880000000  0.4452840000000  0.5622580000000 1.0
C      1  0.5256180000000  0.5629430000000  0.5624710000000 1.0
C      1  0.4315410000000  0.4899230000000  0.5622470000000 1.0
C      1  0.5412340000000  0.4432060000000  0.4330230000000 1.0
C      1  0.5257620000000  0.5631150000000  0.4351100000000 1.0
C      1  0.4320370000000  0.4894510000000  0.4353780000000 1.0
C      1  0.4728050000000  0.5642420000000  0.5478940000000 1.0
C      1  0.4603240000000  0.4454490000000  0.5498620000000 1.0
C      1  0.5720920000000  0.4899300000000  0.5488380000000 1.0
C      1  0.4715320000000  0.5616190000000  0.4484210000000 1.0
C      1  0.4646000000000  0.4478370000000  0.4472920000000 1.0
C      1  0.5699600000000  0.4897610000000  0.4508310000000 1.0
C      1  0.4452270000000  0.4699600000000  0.4523890000000 1.0
C      1  0.5400620000000  0.4655510000000  0.4523240000000 1.0
C      1  0.5037890000000  0.5486250000000  0.4524350000000 1.0
C      1  0.4516080000000  0.4745630000000  0.5461960000000 1.0
C      1  0.5398580000000  0.4691460000000  0.5444250000000 1.0
C      1  0.5029630000000  0.5508830000000  0.5445770000000 1.0
C      1  0.4259450000000  0.5170620000000  0.4452080000000 1.0
C      1  0.5195180000000  0.4257180000000  0.4428190000000 1.0
C      1  0.5521310000000  0.5544710000000  0.4441880000000 1.0
C      1  0.4251510000000  0.5176370000000  0.5536810000000 1.0
C      1  0.5219380000000  0.4267370000000  0.5536320000000 1.0
C      1  0.5525050000000  0.5547620000000  0.5541950000000 1.0
C      1  0.4997690000000  0.5022480000000  0.4137520000000 1.0
C      1  0.5004890000000  0.5005580000000  0.5820350000000 1.0
END
