TITL C-2441169-1362-1162 -0.00159013712574398 125000 -8323.32947627147 0 0 60 (C1) n - 1
REM
REM in /home/bkarasulu/work/CARBON/AIRSS/Generating-Clusters/ReaxFF-fromJPCA2015/Units_Real/with-SteepDescent/Higher-Symm
REM
REM
REM
REM
REM
REM ./C.cell (1df0a924f5614ab8850e4351716899ee)
REM
REM compiler GCC version 9.2.1 20190827 (Red Hat 9.2.1-1)
REM options -cpp -mtune=generic -march=x86-64 -g -O0 -fpre-include=/usr/include/finclude/math-vector-fortran.h
REM seed 2059316615 2025277873 -1818437281 58127035 88669969 -26135317 -2111663776 -606120240 -1791749863 -195956878 -641577044 -1873120964 1047231867 766296848 1256626421 -385257111 1742871367 -1748607773 1462088807 1204990542 615435374 225762395 1820809920 780808945 1765630944 -1424620336 133546423 -1981069557 -271430171 1947470841 1447556736 -1295724395 -831502800
REM
CELL 1.54180   50.00000   50.00000   50.00000   90.00000   90.00000   90.00000
LATT -1
SFAC C  
C      1  0.5390900000000  0.5489070000000  0.4646220000000 1.0
C      1  0.5365610000000  0.4636900000000  0.4545380000000 1.0
C      1  0.5386470000000  0.4515300000000  0.5351980000000 1.0
C      1  0.5365640000000  0.5363350000000  0.5456760000000 1.0
C      1  0.4640130000000  0.5475030000000  0.4650700000000 1.0
C      1  0.4610910000000  0.4615330000000  0.4514490000000 1.0
C      1  0.4640240000000  0.4524450000000  0.5350400000000 1.0
C      1  0.4607340000000  0.5382340000000  0.5483940000000 1.0
C      1  0.4651390000000  0.5117360000000  0.4485360000000 1.0
C      1  0.4585710000000  0.4433890000000  0.4863320000000 1.0
C      1  0.4652460000000  0.4882160000000  0.5514610000000 1.0
C      1  0.4592730000000  0.5567000000000  0.5135630000000 1.0
C      1  0.5462020000000  0.5162660000000  0.4426250000000 1.0
C      1  0.5363400000000  0.4510650000000  0.4863720000000 1.0
C      1  0.5460100000000  0.4840540000000  0.5573700000000 1.0
C      1  0.5355060000000  0.5482390000000  0.5132270000000 1.0
C      1  0.5168410000000  0.4344860000000  0.5281860000000 1.0
C      1  0.5157020000000  0.5296330000000  0.5634230000000 1.0
C      1  0.5170600000000  0.5657100000000  0.4714810000000 1.0
C      1  0.5158760000000  0.4705250000000  0.4367180000000 1.0
C      1  0.4835410000000  0.4332490000000  0.5283080000000 1.0
C      1  0.4832040000000  0.5316920000000  0.5650260000000 1.0
C      1  0.4837600000000  0.5665730000000  0.4715870000000 1.0
C      1  0.4833970000000  0.4683100000000  0.4347840000000 1.0
C      1  0.5261150000000  0.4968700000000  0.4304100000000 1.0
C      1  0.5255960000000  0.4336690000000  0.5019220000000 1.0
C      1  0.5259840000000  0.5032500000000  0.5696070000000 1.0
C      1  0.5255550000000  0.5662490000000  0.4979350000000 1.0
C      1  0.4739980000000  0.4942770000000  0.4329300000000 1.0
C      1  0.4685890000000  0.4261640000000  0.5056490000000 1.0
C      1  0.4739030000000  0.5057200000000  0.5670670000000 1.0
C      1  0.4690870000000  0.5736950000000  0.4944000000000 1.0
C      1  0.5579110000000  0.4788510000000  0.4681110000000 1.0
C      1  0.5590220000000  0.4682450000000  0.5225340000000 1.0
C      1  0.5580440000000  0.5212480000000  0.5320030000000 1.0
C      1  0.5592610000000  0.5319580000000  0.4774880000000 1.0
C      1  0.4437070000000  0.4758940000000  0.4692430000000 1.0
C      1  0.4436350000000  0.4681840000000  0.5224410000000 1.0
C      1  0.4430830000000  0.5235520000000  0.5312630000000 1.0
C      1  0.4439130000000  0.5316070000000  0.4779560000000 1.0
C      1  0.4828710000000  0.5061380000000  0.4709310000000 1.0
C      1  0.4788410000000  0.4598560000000  0.4892580000000 1.0
C      1  0.4826650000000  0.4941100000000  0.5290200000000 1.0
C      1  0.4793240000000  0.5401840000000  0.5111050000000 1.0
C      1  0.5211500000000  0.5144680000000  0.4528640000000 1.0
C      1  0.5169990000000  0.4736710000000  0.4969480000000 1.0
C      1  0.5213330000000  0.4864500000000  0.5464990000000 1.0
C      1  0.5173180000000  0.5263070000000  0.5028830000000 1.0
C      1  0.5634780000000  0.5068090000000  0.4626050000000 1.0
C      1  0.5606860000000  0.4638630000000  0.4931810000000 1.0
C      1  0.5637420000000  0.4933420000000  0.5374170000000 1.0
C      1  0.5606130000000  0.5360850000000  0.5068770000000 1.0
C      1  0.4424340000000  0.5058290000000  0.4632500000000 1.0
C      1  0.4377140000000  0.4612550000000  0.4942260000000 1.0
C      1  0.4423250000000  0.4939920000000  0.5370940000000 1.0
C      1  0.4383080000000  0.5386700000000  0.5062620000000 1.0
C      1  0.5068330000000  0.4789430000000  0.5237050000000 1.0
C      1  0.5073060000000  0.5207070000000  0.4763540000000 1.0
C      1  0.4936680000000  0.4793080000000  0.4797960000000 1.0
C      1  0.4938580000000  0.5205580000000  0.5197840000000 1.0
END
