TITL C-2441154-10-404 0.0133501380202708 125000 -21786.330715346 0 0 145 (C1) n - 1
REM
REM in /home/bkarasulu/work/CARBON/AIRSS/Generating-Clusters/ReaxFF-fromJPCA2015/Units_Real/with-SteepDescent/Higher-Symm
REM
REM
REM
REM
REM
REM ./C.cell (1df0a924f5614ab8850e4351716899ee)
REM
REM compiler GCC version 9.2.1 20190827 (Red Hat 9.2.1-1)
REM options -cpp -mtune=generic -march=x86-64 -g -O0 -fpre-include=/usr/include/finclude/math-vector-fortran.h
REM seed -25444143 771918389 -173014767 -1179866672 -299839778 934092541 -170486607 -777609316 -20981643 569221130 549827523 -28265134 -1843784866 496944101 1381063036 -1363884176 -459814953 -1342350288 -681757540 529654485 785204457 -651604911 -124659617 1944694909 -1743121439 1306557622 -367916496 1333971201 619479116 739161317 378463006 -2070205016 -1098056517
REM
CELL 1.54180   50.00000   50.00000   50.00000   90.00000   90.00000   90.00000
LATT -1
SFAC C  
C      1  0.5137110000000  0.4499480000000  0.4170080000000 1.0
C      1  0.4560810000000  0.4714940000000  0.4192490000000 1.0
C      1  0.4563620000000  0.5335580000000  0.4188570000000 1.0
C      1  0.5187100000000  0.5482630000000  0.4155790000000 1.0
C      1  0.5526810000000  0.4979540000000  0.4194700000000 1.0
C      1  0.4560740000000  0.4353050000000  0.4559110000000 1.0
C      1  0.4236160000000  0.5216760000000  0.4563160000000 1.0
C      1  0.4953670000000  0.5767920000000  0.4534370000000 1.0
C      1  0.5765820000000  0.5280340000000  0.4563290000000 1.0
C      1  0.5485380000000  0.4377590000000  0.4532190000000 1.0
C      1  0.5334050000000  0.5751540000000  0.5527090000000 1.0
C      1  0.5838420000000  0.4838070000000  0.5544210000000 1.0
C      1  0.5205510000000  0.4155690000000  0.5528050000000 1.0
C      1  0.4205660000000  0.4593420000000  0.5540830000000 1.0
C      1  0.4425790000000  0.5607870000000  0.5508860000000 1.0
C      1  0.4534600000000  0.5005530000000  0.5729260000000 1.0
C      1  0.4826480000000  0.5426640000000  0.5806150000000 1.0
C      1  0.5343010000000  0.5227800000000  0.5719240000000 1.0
C      1  0.5392620000000  0.4742630000000  0.5816090000000 1.0
C      1  0.4814190000000  0.4601610000000  0.5706250000000 1.0
C      1  0.5923780000000  0.5036030000000  0.5349490000000 1.0
C      1  0.5503050000000  0.4192370000000  0.5443130000000 1.0
C      1  0.4291860000000  0.4397900000000  0.5335230000000 1.0
C      1  0.4218850000000  0.5528220000000  0.5318950000000 1.0
C      1  0.5094870000000  0.5885630000000  0.5415220000000 1.0
C      1  0.4951460000000  0.4146750000000  0.4423270000000 1.0
C      1  0.4168520000000  0.4766980000000  0.4461950000000 1.0
C      1  0.4521220000000  0.5678490000000  0.4429930000000 1.0
C      1  0.5491150000000  0.5677760000000  0.4342810000000 1.0
C      1  0.5791900000000  0.4706370000000  0.4449490000000 1.0
C      1  0.5149110000000  0.5238530000000  0.4613360000000 1.0
C      1  0.5253700000000  0.4956850000000  0.4624280000000 1.0
C      1  0.5033800000000  0.4758660000000  0.4621430000000 1.0
C      1  0.4778070000000  0.4903370000000  0.4603560000000 1.0
C      1  0.4828530000000  0.5196480000000  0.4551830000000 1.0
C      1  0.5180490000000  0.4851660000000  0.5966510000000 1.0
C      1  0.4904390000000  0.4763770000000  0.5937290000000 1.0
C      1  0.4740650000000  0.4995980000000  0.5949940000000 1.0
C      1  0.4911060000000  0.5218720000000  0.5970320000000 1.0
C      1  0.5179190000000  0.5135010000000  0.5953170000000 1.0
C      1  0.5215570000000  0.4147520000000  0.4984600000000 1.0
C      1  0.4283390000000  0.4546980000000  0.5074530000000 1.0
C      1  0.4266540000000  0.5705060000000  0.5093730000000 1.0
C      1  0.5382590000000  0.5959860000000  0.5014240000000 1.0
C      1  0.5848530000000  0.4908250000000  0.5087250000000 1.0
C      1  0.5616040000000  0.4696990000000  0.4234660000000 1.0
C      1  0.4896040000000  0.4328150000000  0.4224930000000 1.0
C      1  0.4319120000000  0.4881820000000  0.4257430000000 1.0
C      1  0.4675420000000  0.5605070000000  0.4216900000000 1.0
C      1  0.5494920000000  0.5458660000000  0.4179640000000 1.0
C      1  0.5410610000000  0.4473880000000  0.4268450000000 1.0
C      1  0.4623340000000  0.4445920000000  0.4290100000000 1.0
C      1  0.4337730000000  0.5184170000000  0.4294800000000 1.0
C      1  0.4974160000000  0.5658950000000  0.4269270000000 1.0
C      1  0.5647150000000  0.5226150000000  0.4298750000000 1.0
C      1  0.5660850000000  0.4399860000000  0.5582100000000 1.0
C      1  0.4694680000000  0.4153460000000  0.5460980000000 1.0
C      1  0.4057660000000  0.5079710000000  0.5487800000000 1.0
C      1  0.4836890000000  0.5848070000000  0.5539990000000 1.0
C      1  0.5754710000000  0.5485680000000  0.5476650000000 1.0
C      1  0.4498680000000  0.5857750000000  0.5137360000000 1.0
C      1  0.5603950000000  0.5783060000000  0.5102540000000 1.0
C      1  0.5700330000000  0.4621550000000  0.5164210000000 1.0
C      1  0.4990720000000  0.4058170000000  0.5092940000000 1.0
C      1  0.4227230000000  0.4842820000000  0.5158630000000 1.0
C      1  0.5251860000000  0.4436760000000  0.4965610000000 1.0
C      1  0.4580720000000  0.4597880000000  0.4954700000000 1.0
C      1  0.4535210000000  0.5225710000000  0.4984730000000 1.0
C      1  0.5053560000000  0.5555790000000  0.4976690000000 1.0
C      1  0.5593320000000  0.5060780000000  0.4975800000000 1.0
C      1  0.4766380000000  0.4386200000000  0.4776570000000 1.0
C      1  0.4346450000000  0.5026730000000  0.4774820000000 1.0
C      1  0.4817810000000  0.5619970000000  0.4780370000000 1.0
C      1  0.5584890000000  0.5362950000000  0.4794770000000 1.0
C      1  0.5505070000000  0.4569130000000  0.4772680000000 1.0
C      1  0.5418230000000  0.5727380000000  0.4602150000000 1.0
C      1  0.5921840000000  0.4690640000000  0.4686340000000 1.0
C      1  0.4989510000000  0.3996240000000  0.4636780000000 1.0
C      1  0.4054010000000  0.4690690000000  0.4695350000000 1.0
C      1  0.4432790000000  0.5783180000000  0.4665960000000 1.0
C      1  0.5591390000000  0.4163550000000  0.5178330000000 1.0
C      1  0.4475030000000  0.4186620000000  0.5263970000000 1.0
C      1  0.4069400000000  0.5285200000000  0.5268310000000 1.0
C      1  0.5115920000000  0.5981790000000  0.5140210000000 1.0
C      1  0.5919790000000  0.5318140000000  0.5295940000000 1.0
C      1  0.4915070000000  0.6020760000000  0.4928470000000 1.0
C      1  0.5946410000000  0.5390390000000  0.5006930000000 1.0
C      1  0.5682140000000  0.4193210000000  0.4914940000000 1.0
C      1  0.4501050000000  0.4122090000000  0.4972270000000 1.0
C      1  0.4018660000000  0.5224530000000  0.4986060000000 1.0
C      1  0.4550900000000  0.4812010000000  0.4742780000000 1.0
C      1  0.4680670000000  0.5361780000000  0.4740180000000 1.0
C      1  0.5310650000000  0.5467670000000  0.4735200000000 1.0
C      1  0.5478700000000  0.4872770000000  0.4772320000000 1.0
C      1  0.5031530000000  0.4515730000000  0.4769130000000 1.0
C      1  0.5221020000000  0.5140300000000  0.5041750000000 1.0
C      1  0.5150420000000  0.4881190000000  0.5073900000000 1.0
C      1  0.4881180000000  0.4864890000000  0.5032470000000 1.0
C      1  0.4826740000000  0.5140790000000  0.5050490000000 1.0
C      1  0.5040470000000  0.5276000000000  0.4924760000000 1.0
C      1  0.4863770000000  0.4735820000000  0.5440260000000 1.0
C      1  0.4674760000000  0.5014230000000  0.5429090000000 1.0
C      1  0.4946620000000  0.5218480000000  0.5366640000000 1.0
C      1  0.5257000000000  0.5095760000000  0.5432030000000 1.0
C      1  0.5202550000000  0.4786460000000  0.5364300000000 1.0
C      1  0.4225760000000  0.5036780000000  0.5724900000000 1.0
C      1  0.4790120000000  0.5693230000000  0.5775940000000 1.0
C      1  0.5602770000000  0.5402090000000  0.5711180000000 1.0
C      1  0.5585850000000  0.4554400000000  0.5810870000000 1.0
C      1  0.4766410000000  0.4306660000000  0.5705190000000 1.0
C      1  0.5586450000000  0.5705350000000  0.5378980000000 1.0
C      1  0.5803680000000  0.4582980000000  0.5421460000000 1.0
C      1  0.4960480000000  0.4077890000000  0.5368860000000 1.0
C      1  0.4071740000000  0.4808880000000  0.5397880000000 1.0
C      1  0.4590210000000  0.5811100000000  0.5394570000000 1.0
C      1  0.5440620000000  0.5177860000000  0.5216300000000 1.0
C      1  0.5381670000000  0.4591990000000  0.5217310000000 1.0
C      1  0.4776300000000  0.4638140000000  0.5177590000000 1.0
C      1  0.4483920000000  0.5037090000000  0.5215100000000 1.0
C      1  0.4965440000000  0.5488330000000  0.5263290000000 1.0
C      1  0.5666040000000  0.4826420000000  0.5778540000000 1.0
C      1  0.5047500000000  0.4274810000000  0.5720930000000 1.0
C      1  0.4322130000000  0.4769900000000  0.5742570000000 1.0
C      1  0.4560300000000  0.5525630000000  0.5751790000000 1.0
C      1  0.5360390000000  0.5547700000000  0.5730190000000 1.0
C      1  0.4086690000000  0.4939440000000  0.4916730000000 1.0
C      1  0.4645660000000  0.5894170000000  0.4897040000000 1.0
C      1  0.5744210000000  0.5581490000000  0.4939910000000 1.0
C      1  0.5764930000000  0.4491280000000  0.4901810000000 1.0
C      1  0.4781000000000  0.4063140000000  0.4887470000000 1.0
C      1  0.4098840000000  0.5389640000000  0.4757790000000 1.0
C      1  0.5057580000000  0.6005410000000  0.4675220000000 1.0
C      1  0.5971390000000  0.5210330000000  0.4762290000000 1.0
C      1  0.5514640000000  0.4126770000000  0.4675020000000 1.0
C      1  0.4355030000000  0.4255060000000  0.4752090000000 1.0
C      1  0.5248970000000  0.4991440000000  0.4109930000000 1.0
C      1  0.5060270000000  0.4768610000000  0.4108080000000 1.0
C      1  0.4789810000000  0.4869540000000  0.4125890000000 1.0
C      1  0.4804320000000  0.5156140000000  0.4185860000000 1.0
C      1  0.5079830000000  0.5222990000000  0.4111710000000 1.0
C      1  0.4146180000000  0.4447760000000  0.4821430000000 1.0
C      1  0.4217400000000  0.5653310000000  0.4813070000000 1.0
C      1  0.5345400000000  0.5985530000000  0.4730100000000 1.0
C      1  0.6006280000000  0.4929750000000  0.4826250000000 1.0
C      1  0.5260280000000  0.4009030000000  0.4751340000000 1.0
END
