TITL C-2441158-471-1123 0.0513760520177782 125000 -9447.89739489143 0 0 75 (C1) n - 1
REM
REM in /home/bkarasulu/work/CARBON/AIRSS/Generating-Clusters/ReaxFF-fromJPCA2015/Units_Real/with-SteepDescent/Higher-Symm
REM
REM
REM
REM
REM
REM ./C.cell (1df0a924f5614ab8850e4351716899ee)
REM
REM compiler GCC version 9.2.1 20190827 (Red Hat 9.2.1-1)
REM options -cpp -mtune=generic -march=x86-64 -g -O0 -fpre-include=/usr/include/finclude/math-vector-fortran.h
REM seed 1280576157 2081006639 187885204 1015663454 1296089 1298988226 -2073434854 -1319450674 1520790381 -1680664828 -840244951 745819077 -413092760 -242709709 -406356988 -236446670 -105155394 753025762 -1501497472 -228996908 -1717972963 1010740504 -1902102934 -1673847217 -427526946 1480119797 -851369237 1899555813 -2006656816 -1365115746 -1678503590 705406347 -4410604
REM
CELL 1.54180   50.00000   50.00000   50.00000   90.00000   90.00000   90.00000
LATT -1
SFAC C  
C      1  0.5627070000000  0.4786190000000  0.5481230000000 1.0
C      1  0.4368090000000  0.4519550000000  0.4809600000000 1.0
C      1  0.5637680000000  0.5192470000000  0.4519630000000 1.0
C      1  0.4367840000000  0.5481880000000  0.5211280000000 1.0
C      1  0.5387840000000  0.4732090000000  0.4406420000000 1.0
C      1  0.4591740000000  0.5577280000000  0.4737760000000 1.0
C      1  0.5393630000000  0.5276380000000  0.5588580000000 1.0
C      1  0.4605430000000  0.4400070000000  0.5277900000000 1.0
C      1  0.5291060000000  0.5182550000000  0.4214750000000 1.0
C      1  0.4713030000000  0.5808500000000  0.5175620000000 1.0
C      1  0.5276380000000  0.4832940000000  0.5808910000000 1.0
C      1  0.4717020000000  0.4196660000000  0.4828210000000 1.0
C      1  0.5205500000000  0.4922070000000  0.4263450000000 1.0
C      1  0.4771710000000  0.5731240000000  0.4912770000000 1.0
C      1  0.5217110000000  0.5095190000000  0.5735400000000 1.0
C      1  0.4791800000000  0.4261230000000  0.5087920000000 1.0
C      1  0.4738920000000  0.4568670000000  0.5489730000000 1.0
C      1  0.5260940000000  0.4514210000000  0.4568260000000 1.0
C      1  0.4723900000000  0.5433790000000  0.4518930000000 1.0
C      1  0.5255750000000  0.5484020000000  0.5438550000000 1.0
C      1  0.4577540000000  0.4377740000000  0.4656290000000 1.0
C      1  0.5421360000000  0.5361150000000  0.4399810000000 1.0
C      1  0.4578810000000  0.5622880000000  0.5350750000000 1.0
C      1  0.5410880000000  0.4655260000000  0.5625670000000 1.0
C      1  0.4979570000000  0.5459160000000  0.5340900000000 1.0
C      1  0.5014910000000  0.4659290000000  0.5456010000000 1.0
C      1  0.4979320000000  0.4544320000000  0.4656750000000 1.0
C      1  0.5008610000000  0.5340480000000  0.4538650000000 1.0
C      1  0.4658200000000  0.4824990000000  0.5616960000000 1.0
C      1  0.5335500000000  0.4383870000000  0.4822070000000 1.0
C      1  0.4648840000000  0.5178760000000  0.4384270000000 1.0
C      1  0.5351020000000  0.5609440000000  0.5182880000000 1.0
C      1  0.4741440000000  0.5392880000000  0.5484800000000 1.0
C      1  0.5252810000000  0.4520190000000  0.5394700000000 1.0
C      1  0.4736690000000  0.4606730000000  0.4522760000000 1.0
C      1  0.5241790000000  0.5480650000000  0.4615150000000 1.0
C      1  0.4421740000000  0.5388540000000  0.4931240000000 1.0
C      1  0.5578080000000  0.5067550000000  0.5384030000000 1.0
C      1  0.4451780000000  0.4569410000000  0.5087580000000 1.0
C      1  0.5542970000000  0.4919300000000  0.4571120000000 1.0
C      1  0.4232410000000  0.5008750000000  0.4504090000000 1.0
C      1  0.5777650000000  0.5501830000000  0.5000050000000 1.0
C      1  0.4234770000000  0.4983210000000  0.5484600000000 1.0
C      1  0.5769450000000  0.4505250000000  0.5003750000000 1.0
C      1  0.5290800000000  0.5046740000000  0.5276950000000 1.0
C      1  0.4696070000000  0.4725450000000  0.5049400000000 1.0
C      1  0.5297490000000  0.4963240000000  0.4731480000000 1.0
C      1  0.4710420000000  0.5266180000000  0.4965280000000 1.0
C      1  0.5209610000000  0.5191520000000  0.5046670000000 1.0
C      1  0.4785570000000  0.4953960000000  0.5192090000000 1.0
C      1  0.5198900000000  0.4806510000000  0.4942950000000 1.0
C      1  0.4794300000000  0.5056720000000  0.4809360000000 1.0
C      1  0.4781280000000  0.4932090000000  0.4549260000000 1.0
C      1  0.5216640000000  0.5463710000000  0.4923680000000 1.0
C      1  0.4788980000000  0.5074730000000  0.5460570000000 1.0
C      1  0.5206350000000  0.4547880000000  0.5069100000000 1.0
C      1  0.4358630000000  0.4961970000000  0.4757060000000 1.0
C      1  0.5633690000000  0.5254100000000  0.4967740000000 1.0
C      1  0.4350910000000  0.5037120000000  0.5234190000000 1.0
C      1  0.5644230000000  0.4770640000000  0.5012630000000 1.0
C      1  0.4912900000000  0.4524640000000  0.4973230000000 1.0
C      1  0.5071210000000  0.5030880000000  0.4522430000000 1.0
C      1  0.4917870000000  0.5474490000000  0.5028400000000 1.0
C      1  0.5077280000000  0.4970560000000  0.5474030000000 1.0
C      1  0.4366210000000  0.4731770000000  0.4612040000000 1.0
C      1  0.5674250000000  0.5381820000000  0.4729970000000 1.0
C      1  0.4374700000000  0.5263140000000  0.5400260000000 1.0
C      1  0.5620270000000  0.4598310000000  0.5261900000000 1.0
C      1  0.5621090000000  0.5612060000000  0.5192170000000 1.0
C      1  0.4395680000000  0.4792610000000  0.5586140000000 1.0
C      1  0.5606590000000  0.4418310000000  0.4798440000000 1.0
C      1  0.4382760000000  0.5206550000000  0.4406210000000 1.0
C      1  0.5701990000000  0.5034460000000  0.5109540000000 1.0
C      1  0.4284230000000  0.5099660000000  0.4976870000000 1.0
C      1  0.4994930000000  0.4999720000000  0.4998680000000 1.0
END
