TITL C-2441166-8118-259 0.0911101142480821 125000 -23348.0570933912 0 0 173 (C1) n - 1
REM
REM in /home/bkarasulu/work/CARBON/AIRSS/Generating-Clusters/ReaxFF-fromJPCA2015/Units_Real/with-SteepDescent/Higher-Symm
REM
REM
REM
REM
REM
REM ./C.cell (1df0a924f5614ab8850e4351716899ee)
REM
REM compiler GCC version 9.2.1 20190827 (Red Hat 9.2.1-1)
REM options -cpp -mtune=generic -march=x86-64 -g -O0 -fpre-include=/usr/include/finclude/math-vector-fortran.h
REM seed 1641234876 1622959967 777806010 2144315117 349783693 1588918029 631140588 -187634773 -611895260 -799179356 -1882977807 -1569664945 1359111592 157070989 -1446683575 1736218879 -370566769 1144477312 -1657793849 -1257872993 289952143 -741556063 -1095297582 -997301999 432435533 -2091206460 1841867763 -1047442226 -1407205998 -1581833535 -33002068 -959570955 1653756031
REM
CELL 1.54180   50.00000   50.00000   50.00000   90.00000   90.00000   90.00000
LATT -1
SFAC C  
C      1  0.5291380000000  0.5558210000000  0.5709160000000 1.0
C      1  0.5277240000000  0.4435990000000  0.5701910000000 1.0
C      1  0.4887880000000  0.5506100000000  0.4486110000000 1.0
C      1  0.4911320000000  0.4472760000000  0.4511690000000 1.0
C      1  0.5314960000000  0.5102400000000  0.5968230000000 1.0
C      1  0.5343270000000  0.4821770000000  0.6004010000000 1.0
C      1  0.5523810000000  0.5431920000000  0.5852180000000 1.0
C      1  0.5409110000000  0.4563530000000  0.5925910000000 1.0
C      1  0.4484910000000  0.5808360000000  0.4545490000000 1.0
C      1  0.4466540000000  0.4148570000000  0.4568050000000 1.0
C      1  0.5731290000000  0.4722010000000  0.5443800000000 1.0
C      1  0.5736420000000  0.5275530000000  0.5478840000000 1.0
C      1  0.5105750000000  0.4427550000000  0.4704530000000 1.0
C      1  0.5102120000000  0.5568930000000  0.4679190000000 1.0
C      1  0.5118630000000  0.4873950000000  0.4012210000000 1.0
C      1  0.5116670000000  0.5180570000000  0.4006770000000 1.0
C      1  0.4236090000000  0.4642520000000  0.4614190000000 1.0
C      1  0.4214100000000  0.5383610000000  0.4641220000000 1.0
C      1  0.5760210000000  0.5516520000000  0.4298810000000 1.0
C      1  0.5733990000000  0.4481940000000  0.4301800000000 1.0
C      1  0.5567670000000  0.4249920000000  0.5078810000000 1.0
C      1  0.5527020000000  0.5767650000000  0.5043680000000 1.0
C      1  0.5375880000000  0.5793450000000  0.4142970000000 1.0
C      1  0.5258520000000  0.4256180000000  0.4139790000000 1.0
C      1  0.4098470000000  0.5463680000000  0.4888520000000 1.0
C      1  0.4151290000000  0.4619050000000  0.4884330000000 1.0
C      1  0.5303620000000  0.5962180000000  0.5427880000000 1.0
C      1  0.5307610000000  0.4044130000000  0.5441360000000 1.0
C      1  0.4317970000000  0.4877240000000  0.5652850000000 1.0
C      1  0.4287830000000  0.5160800000000  0.5727590000000 1.0
C      1  0.5563660000000  0.4161820000000  0.5396320000000 1.0
C      1  0.5550720000000  0.5850780000000  0.5330350000000 1.0
C      1  0.5008460000000  0.4872450000000  0.4911510000000 1.0
C      1  0.5078760000000  0.5155030000000  0.4942220000000 1.0
C      1  0.5411080000000  0.5845070000000  0.4420390000000 1.0
C      1  0.5384940000000  0.4177030000000  0.4423340000000 1.0
C      1  0.5320060000000  0.5137830000000  0.5098180000000 1.0
C      1  0.5356310000000  0.4855510000000  0.5134510000000 1.0
C      1  0.5143480000000  0.4468960000000  0.4996540000000 1.0
C      1  0.5173100000000  0.5552780000000  0.4986950000000 1.0
C      1  0.4522880000000  0.4487990000000  0.4255490000000 1.0
C      1  0.4412030000000  0.5416580000000  0.4220670000000 1.0
C      1  0.5832540000000  0.4754510000000  0.4313970000000 1.0
C      1  0.5852020000000  0.5246970000000  0.4336560000000 1.0
C      1  0.4713440000000  0.4266810000000  0.4220480000000 1.0
C      1  0.4818010000000  0.5763220000000  0.4198290000000 1.0
C      1  0.4645770000000  0.4743470000000  0.4215640000000 1.0
C      1  0.4659840000000  0.5245500000000  0.4172610000000 1.0
C      1  0.5525660000000  0.5149780000000  0.5810520000000 1.0
C      1  0.5607400000000  0.4772740000000  0.5886110000000 1.0
C      1  0.3963810000000  0.5305160000000  0.5103910000000 1.0
C      1  0.3938030000000  0.4811670000000  0.5239050000000 1.0
C      1  0.5469700000000  0.5152430000000  0.5529860000000 1.0
C      1  0.5435140000000  0.4836630000000  0.5415410000000 1.0
C      1  0.4590320000000  0.4809410000000  0.5088910000000 1.0
C      1  0.4533860000000  0.5197040000000  0.5268630000000 1.0
C      1  0.4852080000000  0.4245090000000  0.5618700000000 1.0
C      1  0.4873850000000  0.5737150000000  0.5613070000000 1.0
C      1  0.5368900000000  0.5277710000000  0.4091040000000 1.0
C      1  0.5387530000000  0.4746360000000  0.4081350000000 1.0
C      1  0.5137710000000  0.4176700000000  0.5636460000000 1.0
C      1  0.5154050000000  0.5819850000000  0.5631900000000 1.0
C      1  0.4551950000000  0.4561100000000  0.5836730000000 1.0
C      1  0.4568560000000  0.5442830000000  0.5849980000000 1.0
C      1  0.4841100000000  0.4226850000000  0.5218670000000 1.0
C      1  0.4819840000000  0.5754440000000  0.5176780000000 1.0
C      1  0.4964790000000  0.4597730000000  0.6014900000000 1.0
C      1  0.4964070000000  0.5419180000000  0.6045530000000 1.0
C      1  0.5375400000000  0.5972940000000  0.4905010000000 1.0
C      1  0.5396240000000  0.4048070000000  0.4916760000000 1.0
C      1  0.4870040000000  0.6129520000000  0.5110030000000 1.0
C      1  0.4892420000000  0.3857850000000  0.5140550000000 1.0
C      1  0.4723350000000  0.3979280000000  0.5347360000000 1.0
C      1  0.4714630000000  0.6006270000000  0.5331260000000 1.0
C      1  0.5178630000000  0.5225050000000  0.4663370000000 1.0
C      1  0.5222180000000  0.4812970000000  0.4721180000000 1.0
C      1  0.5085860000000  0.5775650000000  0.5118550000000 1.0
C      1  0.5091810000000  0.4232860000000  0.5141260000000 1.0
C      1  0.4068380000000  0.4743350000000  0.5473830000000 1.0
C      1  0.4105050000000  0.5229400000000  0.5363110000000 1.0
C      1  0.3917850000000  0.5090210000000  0.4943870000000 1.0
C      1  0.3898610000000  0.4811370000000  0.4963280000000 1.0
C      1  0.5000940000000  0.4630420000000  0.5339440000000 1.0
C      1  0.5066890000000  0.5391300000000  0.5292990000000 1.0
C      1  0.5741030000000  0.5493690000000  0.5663840000000 1.0
C      1  0.5760570000000  0.4582180000000  0.5697430000000 1.0
C      1  0.5686200000000  0.4338570000000  0.5576830000000 1.0
C      1  0.5780030000000  0.5722090000000  0.5478940000000 1.0
C      1  0.4746230000000  0.5913780000000  0.4435090000000 1.0
C      1  0.4736230000000  0.4087800000000  0.4457250000000 1.0
C      1  0.5950120000000  0.4703260000000  0.4583400000000 1.0
C      1  0.5973120000000  0.5319980000000  0.4599150000000 1.0
C      1  0.5880070000000  0.5317780000000  0.5244940000000 1.0
C      1  0.5837650000000  0.4653120000000  0.5184580000000 1.0
C      1  0.4594400000000  0.4837180000000  0.5457110000000 1.0
C      1  0.4646070000000  0.5120280000000  0.5504550000000 1.0
C      1  0.4645020000000  0.4425000000000  0.4824300000000 1.0
C      1  0.4661140000000  0.5431860000000  0.4895120000000 1.0
C      1  0.5207250000000  0.3966370000000  0.5151650000000 1.0
C      1  0.5180040000000  0.6049090000000  0.5151340000000 1.0
C      1  0.5272250000000  0.4026580000000  0.4652450000000 1.0
C      1  0.5264990000000  0.6000670000000  0.4640580000000 1.0
C      1  0.5363750000000  0.5597500000000  0.4566770000000 1.0
C      1  0.5346980000000  0.4422360000000  0.4570020000000 1.0
C      1  0.4289540000000  0.5068240000000  0.5191970000000 1.0
C      1  0.4307670000000  0.4829300000000  0.5042930000000 1.0
C      1  0.5501360000000  0.5540660000000  0.4122000000000 1.0
C      1  0.5487100000000  0.4479060000000  0.4137890000000 1.0
C      1  0.5504280000000  0.4890530000000  0.4740210000000 1.0
C      1  0.5463800000000  0.5153390000000  0.4604510000000 1.0
C      1  0.4836070000000  0.3902090000000  0.4857750000000 1.0
C      1  0.4817850000000  0.6032910000000  0.4844070000000 1.0
C      1  0.4968060000000  0.4426100000000  0.4187830000000 1.0
C      1  0.4954930000000  0.5573980000000  0.4218120000000 1.0
C      1  0.4435350000000  0.4453560000000  0.4537910000000 1.0
C      1  0.4351700000000  0.5560050000000  0.4464780000000 1.0
C      1  0.4246980000000  0.4267770000000  0.5263960000000 1.0
C      1  0.4266830000000  0.5723480000000  0.5285540000000 1.0
C      1  0.4639020000000  0.4530710000000  0.5089300000000 1.0
C      1  0.4634480000000  0.5417810000000  0.5172840000000 1.0
C      1  0.4908400000000  0.4690380000000  0.4056290000000 1.0
C      1  0.4897180000000  0.5387230000000  0.4032830000000 1.0
C      1  0.4210500000000  0.4315330000000  0.4982900000000 1.0
C      1  0.4227150000000  0.5706900000000  0.4994140000000 1.0
C      1  0.4378710000000  0.4876710000000  0.4224740000000 1.0
C      1  0.4379390000000  0.5150000000000  0.4126730000000 1.0
C      1  0.4473630000000  0.4839550000000  0.5910300000000 1.0
C      1  0.4481160000000  0.5140810000000  0.5928950000000 1.0
C      1  0.5921920000000  0.5621860000000  0.5238680000000 1.0
C      1  0.5848150000000  0.4380540000000  0.5079990000000 1.0
C      1  0.5274100000000  0.5382100000000  0.5498590000000 1.0
C      1  0.5247540000000  0.4613090000000  0.5481880000000 1.0
C      1  0.4796400000000  0.4738180000000  0.4522860000000 1.0
C      1  0.4780020000000  0.5245000000000  0.4462850000000 1.0
C      1  0.5460040000000  0.5479830000000  0.4999750000000 1.0
C      1  0.5424370000000  0.4557520000000  0.5010880000000 1.0
C      1  0.4421550000000  0.5834210000000  0.4823910000000 1.0
C      1  0.4364540000000  0.4113760000000  0.4841640000000 1.0
C      1  0.5551950000000  0.5448360000000  0.4718160000000 1.0
C      1  0.5542490000000  0.4544930000000  0.4723790000000 1.0
C      1  0.4328560000000  0.5132570000000  0.4640500000000 1.0
C      1  0.4258070000000  0.4893080000000  0.4490430000000 1.0
C      1  0.4483390000000  0.4177360000000  0.5428130000000 1.0
C      1  0.4491120000000  0.5836750000000  0.5421470000000 1.0
C      1  0.5075120000000  0.4844120000000  0.4473070000000 1.0
C      1  0.5027910000000  0.5116280000000  0.4456770000000 1.0
C      1  0.4440080000000  0.5566000000000  0.5632380000000 1.0
C      1  0.4426130000000  0.4395820000000  0.5624410000000 1.0
C      1  0.5745940000000  0.4893460000000  0.4989730000000 1.0
C      1  0.5812460000000  0.5162580000000  0.5030890000000 1.0
C      1  0.5587950000000  0.4875470000000  0.4229860000000 1.0
C      1  0.5556730000000  0.5136440000000  0.4301680000000 1.0
C      1  0.4970690000000  0.3975870000000  0.4612990000000 1.0
C      1  0.4970760000000  0.6032420000000  0.4602870000000 1.0
C      1  0.5805480000000  0.5559760000000  0.4588440000000 1.0
C      1  0.5787850000000  0.4459940000000  0.4592770000000 1.0
C      1  0.4685110000000  0.5729730000000  0.4892260000000 1.0
C      1  0.4665430000000  0.4150390000000  0.4927250000000 1.0
C      1  0.4813660000000  0.5612960000000  0.5879660000000 1.0
C      1  0.4785000000000  0.4393010000000  0.5861890000000 1.0
C      1  0.4732390000000  0.4896630000000  0.4806220000000 1.0
C      1  0.4609810000000  0.5182750000000  0.4717180000000 1.0
C      1  0.4196700000000  0.4486090000000  0.5469710000000 1.0
C      1  0.4208410000000  0.5474840000000  0.5488270000000 1.0
C      1  0.4824470000000  0.5548270000000  0.5358900000000 1.0
C      1  0.4785010000000  0.4443750000000  0.5336680000000 1.0
C      1  0.4905470000000  0.5189680000000  0.5595160000000 1.0
C      1  0.4874900000000  0.4790460000000  0.5540410000000 1.0
C      1  0.5986040000000  0.4874910000000  0.4812390000000 1.0
C      1  0.6011400000000  0.5159870000000  0.4843760000000 1.0
C      1  0.5022360000000  0.5160900000000  0.5888330000000 1.0
C      1  0.4981810000000  0.4819520000000  0.5828290000000 1.0
C      1  0.5006130000000  0.5106530000000  0.5337990000000 1.0
END
