TITL C-2441159-1093-1041 0.0777758891724424 125000 -26222.630789467 0 0 194 (C1) n - 1
REM
REM in /home/bkarasulu/work/CARBON/AIRSS/Generating-Clusters/ReaxFF-fromJPCA2015/Units_Real/with-SteepDescent/Higher-Symm
REM
REM
REM
REM
REM
REM ./C.cell (1df0a924f5614ab8850e4351716899ee)
REM
REM compiler GCC version 9.2.1 20190827 (Red Hat 9.2.1-1)
REM options -cpp -mtune=generic -march=x86-64 -g -O0 -fpre-include=/usr/include/finclude/math-vector-fortran.h
REM seed -1688054172 427440183 -1187067095 1519045060 -1345733541 1611773506 -1576207406 -1484921546 -136773568 -1568885116 -1921806238 -800947128 -491516402 -64366366 296211502 1609169125 268046757 113425538 101791029 1680151933 1934721133 -972783627 -1361935231 1973312852 799759980 1938496264 -1894782207 1596361179 624674588 951986637 -2014934416 -945526953 -302644928
REM
CELL 1.54180   50.00000   50.00000   50.00000   90.00000   90.00000   90.00000
LATT -1
SFAC C  
C      1  0.5219590000000  0.4587260000000  0.5373840000000 1.0
C      1  0.4818370000000  0.5377970000000  0.5338210000000 1.0
C      1  0.5176500000000  0.5387580000000  0.4654690000000 1.0
C      1  0.4776600000000  0.4611620000000  0.4645630000000 1.0
C      1  0.4598320000000  0.5213210000000  0.5371270000000 1.0
C      1  0.5403030000000  0.4775680000000  0.5387760000000 1.0
C      1  0.5379170000000  0.5163300000000  0.4656850000000 1.0
C      1  0.4532910000000  0.4768150000000  0.4632600000000 1.0
C      1  0.5237000000000  0.4546930000000  0.4089890000000 1.0
C      1  0.4771700000000  0.5442650000000  0.4059510000000 1.0
C      1  0.5238820000000  0.5443690000000  0.5943120000000 1.0
C      1  0.4777260000000  0.4562540000000  0.5940600000000 1.0
C      1  0.4559200000000  0.5232210000000  0.4061100000000 1.0
C      1  0.5447960000000  0.4758720000000  0.4071500000000 1.0
C      1  0.5451870000000  0.5231590000000  0.5928610000000 1.0
C      1  0.4552590000000  0.4769150000000  0.5917300000000 1.0
C      1  0.5583650000000  0.5743820000000  0.4533400000000 1.0
C      1  0.4418050000000  0.4232610000000  0.4472580000000 1.0
C      1  0.5553550000000  0.4193720000000  0.5444650000000 1.0
C      1  0.4428890000000  0.5769940000000  0.5482150000000 1.0
C      1  0.5803690000000  0.5554130000000  0.4551580000000 1.0
C      1  0.4206480000000  0.4425250000000  0.4481420000000 1.0
C      1  0.4228120000000  0.5568620000000  0.5477650000000 1.0
C      1  0.5741330000000  0.4414780000000  0.5462520000000 1.0
C      1  0.5320880000000  0.4474240000000  0.5851760000000 1.0
C      1  0.4685200000000  0.5525670000000  0.5857690000000 1.0
C      1  0.5312490000000  0.5523350000000  0.4150710000000 1.0
C      1  0.4688380000000  0.4479850000000  0.4116150000000 1.0
C      1  0.4482420000000  0.5315020000000  0.5859300000000 1.0
C      1  0.5527190000000  0.4686880000000  0.5855540000000 1.0
C      1  0.5527890000000  0.5327960000000  0.4149050000000 1.0
C      1  0.4480280000000  0.4684730000000  0.4117070000000 1.0
C      1  0.5252310000000  0.5461370000000  0.5443510000000 1.0
C      1  0.4731330000000  0.4553180000000  0.5477180000000 1.0
C      1  0.5262230000000  0.4545720000000  0.4531020000000 1.0
C      1  0.4721380000000  0.5442600000000  0.4495420000000 1.0
C      1  0.5448150000000  0.5246800000000  0.5475170000000 1.0
C      1  0.4544940000000  0.4765230000000  0.5473090000000 1.0
C      1  0.4531350000000  0.5255700000000  0.4603250000000 1.0
C      1  0.5491520000000  0.4725160000000  0.4488470000000 1.0
C      1  0.5848760000000  0.4517900000000  0.4825760000000 1.0
C      1  0.4134500000000  0.5514210000000  0.4827440000000 1.0
C      1  0.5805910000000  0.5464250000000  0.5157650000000 1.0
C      1  0.4209490000000  0.4464900000000  0.5186220000000 1.0
C      1  0.4501590000000  0.5853650000000  0.4813640000000 1.0
C      1  0.5543080000000  0.4157500000000  0.4819260000000 1.0
C      1  0.5492380000000  0.5803400000000  0.5195740000000 1.0
C      1  0.4490190000000  0.4191080000000  0.5232130000000 1.0
C      1  0.6182310000000  0.5357770000000  0.5076330000000 1.0
C      1  0.3838400000000  0.4705460000000  0.5293880000000 1.0
C      1  0.6227690000000  0.4695110000000  0.4859250000000 1.0
C      1  0.3810570000000  0.5225810000000  0.4824460000000 1.0
C      1  0.5349360000000  0.6203770000000  0.5174270000000 1.0
C      1  0.4714360000000  0.3776420000000  0.5225590000000 1.0
C      1  0.4666650000000  0.6251440000000  0.4836800000000 1.0
C      1  0.5317370000000  0.3831450000000  0.4901340000000 1.0
C      1  0.4743720000000  0.5952040000000  0.4701430000000 1.0
C      1  0.5322990000000  0.4031480000000  0.4680890000000 1.0
C      1  0.4752220000000  0.4092030000000  0.5331450000000 1.0
C      1  0.5263790000000  0.5921950000000  0.5310960000000 1.0
C      1  0.5937010000000  0.4765780000000  0.4700120000000 1.0
C      1  0.4044450000000  0.5296140000000  0.4649440000000 1.0
C      1  0.4124010000000  0.4743190000000  0.5305400000000 1.0
C      1  0.5940010000000  0.5240230000000  0.5266050000000 1.0
C      1  0.5935260000000  0.5063130000000  0.5663180000000 1.0
C      1  0.4092180000000  0.4989150000000  0.5720230000000 1.0
C      1  0.5962280000000  0.4983560000000  0.4315260000000 1.0
C      1  0.4185730000000  0.5031740000000  0.4282470000000 1.0
C      1  0.5009960000000  0.5900720000000  0.5683280000000 1.0
C      1  0.4969640000000  0.4047990000000  0.5723230000000 1.0
C      1  0.5007450000000  0.5912840000000  0.4355060000000 1.0
C      1  0.5016280000000  0.4077830000000  0.4338180000000 1.0
C      1  0.5623950000000  0.5188450000000  0.4836310000000 1.0
C      1  0.4325160000000  0.4746450000000  0.4849750000000 1.0
C      1  0.5615440000000  0.4773400000000  0.5169370000000 1.0
C      1  0.4388610000000  0.5239450000000  0.5169680000000 1.0
C      1  0.5217980000000  0.5616840000000  0.4851200000000 1.0
C      1  0.4748550000000  0.4347060000000  0.4858850000000 1.0
C      1  0.4763720000000  0.5634380000000  0.5154990000000 1.0
C      1  0.5208000000000  0.4375300000000  0.5170310000000 1.0
C      1  0.5936170000000  0.5718530000000  0.5065710000000 1.0
C      1  0.3953040000000  0.4373490000000  0.5078120000000 1.0
C      1  0.5992730000000  0.4259180000000  0.4876900000000 1.0
C      1  0.4023990000000  0.5789780000000  0.4877000000000 1.0
C      1  0.5710430000000  0.5943880000000  0.5082270000000 1.0
C      1  0.4377020000000  0.3972840000000  0.5080260000000 1.0
C      1  0.4246470000000  0.5980990000000  0.4883710000000 1.0
C      1  0.5807520000000  0.4032970000000  0.4880350000000 1.0
C      1  0.4263910000000  0.4467100000000  0.4764370000000 1.0
C      1  0.5687550000000  0.5464210000000  0.4815760000000 1.0
C      1  0.4280280000000  0.5517300000000  0.5192140000000 1.0
C      1  0.5709660000000  0.4495750000000  0.5179340000000 1.0
C      1  0.4478470000000  0.4285770000000  0.4755190000000 1.0
C      1  0.5500050000000  0.5688140000000  0.4816100000000 1.0
C      1  0.5496990000000  0.4294840000000  0.5157060000000 1.0
C      1  0.4483810000000  0.5730150000000  0.5193120000000 1.0
C      1  0.5408110000000  0.4954400000000  0.5863430000000 1.0
C      1  0.4599040000000  0.5049850000000  0.5864640000000 1.0
C      1  0.5418390000000  0.5045540000000  0.4142150000000 1.0
C      1  0.4594860000000  0.4952080000000  0.4149200000000 1.0
C      1  0.4958230000000  0.5414780000000  0.5849400000000 1.0
C      1  0.5054710000000  0.4589760000000  0.5866790000000 1.0
C      1  0.5047640000000  0.5395620000000  0.4136280000000 1.0
C      1  0.4953280000000  0.4607780000000  0.4137160000000 1.0
C      1  0.5397220000000  0.5630580000000  0.5786790000000 1.0
C      1  0.4646830000000  0.4395790000000  0.5733900000000 1.0
C      1  0.5335480000000  0.4367200000000  0.4303900000000 1.0
C      1  0.4619710000000  0.5609110000000  0.4269290000000 1.0
C      1  0.5604150000000  0.5381840000000  0.5704640000000 1.0
C      1  0.4366790000000  0.4691190000000  0.5692540000000 1.0
C      1  0.4374010000000  0.5406300000000  0.4206510000000 1.0
C      1  0.5647560000000  0.4636970000000  0.4251370000000 1.0
C      1  0.4697430000000  0.6213820000000  0.5105800000000 1.0
C      1  0.5384080000000  0.3913710000000  0.5179520000000 1.0
C      1  0.4632280000000  0.3864890000000  0.4963480000000 1.0
C      1  0.5458350000000  0.6124020000000  0.4923860000000 1.0
C      1  0.6196740000000  0.4711690000000  0.5126940000000 1.0
C      1  0.3891980000000  0.5261440000000  0.5111120000000 1.0
C      1  0.3828430000000  0.4641230000000  0.5019940000000 1.0
C      1  0.6087440000000  0.5451100000000  0.4828640000000 1.0
C      1  0.4096720000000  0.4736680000000  0.5606530000000 1.0
C      1  0.5885110000000  0.5320730000000  0.5590810000000 1.0
C      1  0.4141820000000  0.5303720000000  0.4355140000000 1.0
C      1  0.5901650000000  0.4735460000000  0.4378950000000 1.0
C      1  0.4722860000000  0.4122840000000  0.5649760000000 1.0
C      1  0.5269310000000  0.5848170000000  0.5634410000000 1.0
C      1  0.5277850000000  0.4099990000000  0.4406830000000 1.0
C      1  0.4748990000000  0.5876640000000  0.4407990000000 1.0
C      1  0.4010800000000  0.5212620000000  0.5647740000000 1.0
C      1  0.5983630000000  0.4788560000000  0.5652560000000 1.0
C      1  0.4012600000000  0.4805530000000  0.4297130000000 1.0
C      1  0.6016990000000  0.5248440000000  0.4340090000000 1.0
C      1  0.5233260000000  0.3988750000000  0.5687410000000 1.0
C      1  0.4775600000000  0.6006100000000  0.5609440000000 1.0
C      1  0.4760550000000  0.4012590000000  0.4303190000000 1.0
C      1  0.5251510000000  0.6002540000000  0.4430360000000 1.0
C      1  0.5254460000000  0.5444690000000  0.5146710000000 1.0
C      1  0.4736780000000  0.4536780000000  0.5152040000000 1.0
C      1  0.5282830000000  0.4521320000000  0.4832830000000 1.0
C      1  0.4730310000000  0.5498680000000  0.4894510000000 1.0
C      1  0.5449610000000  0.5206210000000  0.5138500000000 1.0
C      1  0.4533570000000  0.4763090000000  0.5121870000000 1.0
C      1  0.4514770000000  0.5312730000000  0.4874050000000 1.0
C      1  0.5472080000000  0.4737300000000  0.4890330000000 1.0
C      1  0.4484120000000  0.4986610000000  0.4430880000000 1.0
C      1  0.5414100000000  0.4992890000000  0.4419970000000 1.0
C      1  0.4700820000000  0.5009710000000  0.5553040000000 1.0
C      1  0.5290810000000  0.4992640000000  0.5569830000000 1.0
C      1  0.4976420000000  0.4715950000000  0.4420600000000 1.0
C      1  0.4979290000000  0.5299980000000  0.4420790000000 1.0
C      1  0.5002170000000  0.4675750000000  0.5557660000000 1.0
C      1  0.5008310000000  0.5360980000000  0.5566820000000 1.0
C      1  0.5760390000000  0.4604610000000  0.5689000000000 1.0
C      1  0.4223530000000  0.5381480000000  0.5704620000000 1.0
C      1  0.5774200000000  0.5406420000000  0.4292420000000 1.0
C      1  0.4219660000000  0.4607230000000  0.4250310000000 1.0
C      1  0.4616860000000  0.5779180000000  0.5709370000000 1.0
C      1  0.5399170000000  0.4229620000000  0.5692890000000 1.0
C      1  0.5391420000000  0.5769600000000  0.4311980000000 1.0
C      1  0.4600100000000  0.4232160000000  0.4247980000000 1.0
C      1  0.5205030000000  0.5045340000000  0.5111720000000 1.0
C      1  0.4748410000000  0.4935560000000  0.5018220000000 1.0
C      1  0.5250410000000  0.4930690000000  0.4847490000000 1.0
C      1  0.4840540000000  0.5053190000000  0.4767880000000 1.0
C      1  0.5025930000000  0.5274280000000  0.5116780000000 1.0
C      1  0.4945490000000  0.4741470000000  0.5099780000000 1.0
C      1  0.4944950000000  0.5309090000000  0.4845810000000 1.0
C      1  0.5050890000000  0.4696600000000  0.4839870000000 1.0
C      1  0.5248590000000  0.6060710000000  0.4729890000000 1.0
C      1  0.4868770000000  0.3955460000000  0.4553400000000 1.0
C      1  0.5184880000000  0.3933800000000  0.5385350000000 1.0
C      1  0.4816060000000  0.6082600000000  0.5308760000000 1.0
C      1  0.6051550000000  0.5223820000000  0.4646410000000 1.0
C      1  0.3880190000000  0.4820880000000  0.4575260000000 1.0
C      1  0.3907160000000  0.5161550000000  0.5387480000000 1.0
C      1  0.6082950000000  0.4809980000000  0.5358360000000 1.0
C      1  0.4814350000000  0.4060250000000  0.4816880000000 1.0
C      1  0.5035550000000  0.5894710000000  0.4851190000000 1.0
C      1  0.4988100000000  0.5883380000000  0.5159770000000 1.0
C      1  0.5036940000000  0.4138820000000  0.5236510000000 1.0
C      1  0.4009340000000  0.4798020000000  0.4829560000000 1.0
C      1  0.5862160000000  0.5037890000000  0.4763430000000 1.0
C      1  0.5880240000000  0.4953690000000  0.5207470000000 1.0
C      1  0.4120790000000  0.5079890000000  0.5190780000000 1.0
C      1  0.5909500000000  0.4324090000000  0.4603690000000 1.0
C      1  0.4092660000000  0.5716270000000  0.4603530000000 1.0
C      1  0.5892430000000  0.5646430000000  0.5352950000000 1.0
C      1  0.4065330000000  0.4256880000000  0.5326420000000 1.0
C      1  0.4315080000000  0.5900860000000  0.4614100000000 1.0
C      1  0.5727160000000  0.4103980000000  0.4616860000000 1.0
C      1  0.5707310000000  0.5871290000000  0.5374080000000 1.0
C      1  0.4274110000000  0.4068100000000  0.5331150000000 1.0
C      1  0.4921150000000  0.4999970000000  0.4508050000000 1.0
C      1  0.4996580000000  0.4956130000000  0.5541620000000 1.0
END
