TITL C-2441162-9305-143 0.152446837197857 125000 -19468.4700983509 0 0 164 (C1) n - 1
REM
REM in /home/bkarasulu/work/CARBON/AIRSS/Generating-Clusters/ReaxFF-fromJPCA2015/Units_Real/with-SteepDescent/Higher-Symm
REM
REM
REM
REM
REM
REM ./C.cell (1df0a924f5614ab8850e4351716899ee)
REM
REM compiler GCC version 9.2.1 20190827 (Red Hat 9.2.1-1)
REM options -cpp -mtune=generic -march=x86-64 -g -O0 -fpre-include=/usr/include/finclude/math-vector-fortran.h
REM seed -1492095213 -1071375843 1437208454 759111834 526349702 -1525554723 19740520 2077115620 1051905848 992290346 -1862555697 -1091673695 1680902595 1391867172 -1501887214 -718700751 -4553344 1158845548 689670460 -1961946340 1472494003 1016525681 2009577621 480341294 2083336804 1118364829 -1830781417 -2140193195 -2062150337 -1441268751 -651268513 -1068428875 843004323
REM
CELL 1.54180   50.00000   50.00000   50.00000   90.00000   90.00000   90.00000
LATT -1
SFAC C  
C      1  0.5088880000000  0.5627790000000  0.5208270000000 1.0
C      1  0.5145510000000  0.4828090000000  0.4347580000000 1.0
C      1  0.5069120000000  0.4525990000000  0.5498150000000 1.0
C      1  0.4806290000000  0.5636160000000  0.4785250000000 1.0
C      1  0.4856750000000  0.4828330000000  0.5649550000000 1.0
C      1  0.4968140000000  0.4551190000000  0.4509750000000 1.0
C      1  0.4929100000000  0.4409610000000  0.4766380000000 1.0
C      1  0.4940560000000  0.5116320000000  0.5629100000000 1.0
C      1  0.4875930000000  0.5486930000000  0.4542970000000 1.0
C      1  0.5054950000000  0.4379300000000  0.5246390000000 1.0
C      1  0.5063900000000  0.5111150000000  0.4372470000000 1.0
C      1  0.5065140000000  0.5463390000000  0.5457420000000 1.0
C      1  0.4940290000000  0.5369460000000  0.6041090000000 1.0
C      1  0.4952520000000  0.5723160000000  0.4140540000000 1.0
C      1  0.4937330000000  0.3929300000000  0.4798800000000 1.0
C      1  0.5047950000000  0.5370920000000  0.3959660000000 1.0
C      1  0.5037020000000  0.5714500000000  0.5855320000000 1.0
C      1  0.5037720000000  0.3915360000000  0.5194600000000 1.0
C      1  0.5054230000000  0.4611440000000  0.3949840000000 1.0
C      1  0.5019250000000  0.4263290000000  0.5860070000000 1.0
C      1  0.5046840000000  0.6084470000000  0.5195130000000 1.0
C      1  0.4928680000000  0.4616120000000  0.6049070000000 1.0
C      1  0.4958840000000  0.4266200000000  0.4148530000000 1.0
C      1  0.4946730000000  0.6090340000000  0.4798770000000 1.0
C      1  0.5215660000000  0.5573100000000  0.4107660000000 1.0
C      1  0.5208790000000  0.3945190000000  0.4947490000000 1.0
C      1  0.5207040000000  0.5479140000000  0.5942960000000 1.0
C      1  0.4765730000000  0.5564490000000  0.5886960000000 1.0
C      1  0.4775380000000  0.3957530000000  0.5049120000000 1.0
C      1  0.4780590000000  0.5486080000000  0.4060620000000 1.0
C      1  0.4770900000000  0.4422240000000  0.5891900000000 1.0
C      1  0.4778470000000  0.6048780000000  0.5047860000000 1.0
C      1  0.4779370000000  0.4485130000000  0.4039640000000 1.0
C      1  0.5212880000000  0.4418600000000  0.4111380000000 1.0
C      1  0.5207760000000  0.6045780000000  0.4945930000000 1.0
C      1  0.5202630000000  0.4486970000000  0.5962380000000 1.0
C      1  0.5457520000000  0.4546700000000  0.5861400000000 1.0
C      1  0.5485190000000  0.5931960000000  0.4901900000000 1.0
C      1  0.5481080000000  0.4447850000000  0.4246350000000 1.0
C      1  0.4516180000000  0.4543580000000  0.4136590000000 1.0
C      1  0.4507310000000  0.5924490000000  0.5076500000000 1.0
C      1  0.4487780000000  0.4450660000000  0.5766420000000 1.0
C      1  0.4513000000000  0.5405320000000  0.4154430000000 1.0
C      1  0.4498640000000  0.4073610000000  0.5091150000000 1.0
C      1  0.4492770000000  0.5538130000000  0.5763340000000 1.0
C      1  0.5477900000000  0.5393250000000  0.5851020000000 1.0
C      1  0.5482490000000  0.4051730000000  0.4912420000000 1.0
C      1  0.5481840000000  0.5546760000000  0.4234070000000 1.0
C      1  0.5431530000000  0.4875370000000  0.4365750000000 1.0
C      1  0.5460500000000  0.4537320000000  0.5409840000000 1.0
C      1  0.5477870000000  0.5584150000000  0.5160670000000 1.0
C      1  0.4544830000000  0.4845810000000  0.5608030000000 1.0
C      1  0.4518840000000  0.4498650000000  0.4564840000000 1.0
C      1  0.4523480000000  0.5562450000000  0.4834260000000 1.0
C      1  0.4507770000000  0.5130090000000  0.5641620000000 1.0
C      1  0.4488570000000  0.5407740000000  0.4595740000000 1.0
C      1  0.4548800000000  0.4406470000000  0.4831880000000 1.0
C      1  0.5513210000000  0.5136810000000  0.4408410000000 1.0
C      1  0.5468360000000  0.5474640000000  0.5419700000000 1.0
C      1  0.5462450000000  0.4404390000000  0.5155610000000 1.0
C      1  0.5650630000000  0.5823530000000  0.5125820000000 1.0
C      1  0.5628780000000  0.4705930000000  0.4235080000000 1.0
C      1  0.5642250000000  0.4485440000000  0.5647300000000 1.0
C      1  0.4341140000000  0.5808190000000  0.4866260000000 1.0
C      1  0.4339390000000  0.4704320000000  0.5786470000000 1.0
C      1  0.4320130000000  0.4478650000000  0.4344060000000 1.0
C      1  0.4349360000000  0.4193440000000  0.4863880000000 1.0
C      1  0.4316190000000  0.5296990000000  0.5780700000000 1.0
C      1  0.4344080000000  0.5525750000000  0.4369870000000 1.0
C      1  0.5646000000000  0.4175050000000  0.5127930000000 1.0
C      1  0.5655590000000  0.5305640000000  0.4219250000000 1.0
C      1  0.5642950000000  0.5530650000000  0.5642460000000 1.0
C      1  0.4810960000000  0.5887490000000  0.4640570000000 1.0
C      1  0.4822140000000  0.4300530000000  0.4405000000000 1.0
C      1  0.4817840000000  0.4855770000000  0.5936330000000 1.0
C      1  0.5177680000000  0.5874090000000  0.5349960000000 1.0
C      1  0.5161750000000  0.4263130000000  0.5605030000000 1.0
C      1  0.5160260000000  0.4855560000000  0.4053890000000 1.0
C      1  0.5154140000000  0.4134110000000  0.5348390000000 1.0
C      1  0.5163730000000  0.5721800000000  0.5595850000000 1.0
C      1  0.5157610000000  0.5135990000000  0.4088870000000 1.0
C      1  0.4837240000000  0.4160120000000  0.4655740000000 1.0
C      1  0.4813630000000  0.5739830000000  0.4394890000000 1.0
C      1  0.4810520000000  0.5147210000000  0.5898890000000 1.0
C      1  0.4337000000000  0.4253320000000  0.5273150000000 1.0
C      1  0.4343410000000  0.5586960000000  0.5493320000000 1.0
C      1  0.4322390000000  0.5166460000000  0.4181650000000 1.0
C      1  0.5656300000000  0.4223290000000  0.4722310000000 1.0
C      1  0.5647720000000  0.5626920000000  0.4475090000000 1.0
C      1  0.5654370000000  0.5153330000000  0.5795720000000 1.0
C      1  0.5665500000000  0.5762280000000  0.4721600000000 1.0
C      1  0.5656170000000  0.4387540000000  0.4486870000000 1.0
C      1  0.5655090000000  0.4873450000000  0.5756180000000 1.0
C      1  0.4333240000000  0.5747060000000  0.5271290000000 1.0
C      1  0.4319030000000  0.4395440000000  0.5516110000000 1.0
C      1  0.4340810000000  0.4884410000000  0.4258890000000 1.0
C      1  0.5848950000000  0.5150260000000  0.5335770000000 1.0
C      1  0.5885320000000  0.5270370000000  0.4689210000000 1.0
C      1  0.5895090000000  0.4598350000000  0.4934960000000 1.0
C      1  0.4112410000000  0.5120310000000  0.4631180000000 1.0
C      1  0.4092720000000  0.5175260000000  0.5296120000000 1.0
C      1  0.4127110000000  0.4662670000000  0.5008180000000 1.0
C      1  0.4102060000000  0.4831360000000  0.4697490000000 1.0
C      1  0.4130710000000  0.4841490000000  0.5294180000000 1.0
C      1  0.4121090000000  0.5367600000000  0.5077620000000 1.0
C      1  0.5863020000000  0.4860400000000  0.5353730000000 1.0
C      1  0.5901400000000  0.4760470000000  0.4696130000000 1.0
C      1  0.5876660000000  0.5378790000000  0.4965600000000 1.0
C      1  0.4733280000000  0.4528410000000  0.5417480000000 1.0
C      1  0.4791580000000  0.5633310000000  0.5179420000000 1.0
C      1  0.4632110000000  0.4876600000000  0.4346610000000 1.0
C      1  0.5270240000000  0.4497700000000  0.4593760000000 1.0
C      1  0.5276230000000  0.5560830000000  0.4804930000000 1.0
C      1  0.5378830000000  0.4886700000000  0.5619060000000 1.0
C      1  0.5169470000000  0.5493810000000  0.4540640000000 1.0
C      1  0.5214280000000  0.4413240000000  0.4885610000000 1.0
C      1  0.5233490000000  0.5142690000000  0.5624440000000 1.0
C      1  0.4761620000000  0.5487290000000  0.5442830000000 1.0
C      1  0.4789280000000  0.4437690000000  0.5132000000000 1.0
C      1  0.4774680000000  0.5147760000000  0.4361900000000 1.0
C      1  0.5259030000000  0.5134420000000  0.5205920000000 1.0
C      1  0.5142900000000  0.5109540000000  0.4724710000000 1.0
C      1  0.5128660000000  0.4697290000000  0.5007610000000 1.0
C      1  0.4855130000000  0.5119910000000  0.4761210000000 1.0
C      1  0.4770700000000  0.5135370000000  0.5239800000000 1.0
C      1  0.4841750000000  0.4709170000000  0.5005680000000 1.0
C      1  0.4752410000000  0.4854050000000  0.4738230000000 1.0
C      1  0.4867940000000  0.4863350000000  0.5248840000000 1.0
C      1  0.4857870000000  0.5277230000000  0.5002800000000 1.0
C      1  0.5162130000000  0.4881330000000  0.5279950000000 1.0
C      1  0.5238340000000  0.4846080000000  0.4792640000000 1.0
C      1  0.5154680000000  0.5293540000000  0.4976540000000 1.0
C      1  0.4402420000000  0.5155890000000  0.4679180000000 1.0
C      1  0.4415620000000  0.4706870000000  0.4967390000000 1.0
C      1  0.4502040000000  0.5143600000000  0.5353480000000 1.0
C      1  0.5541130000000  0.5208170000000  0.5280740000000 1.0
C      1  0.5613290000000  0.4641370000000  0.5035710000000 1.0
C      1  0.5606140000000  0.5171590000000  0.4676750000000 1.0
C      1  0.5599610000000  0.4754980000000  0.5277280000000 1.0
C      1  0.5590840000000  0.5349440000000  0.5025690000000 1.0
C      1  0.5657660000000  0.4913840000000  0.4738290000000 1.0
C      1  0.4481830000000  0.4761460000000  0.4686740000000 1.0
C      1  0.4415130000000  0.5331590000000  0.5039640000000 1.0
C      1  0.4419350000000  0.4869310000000  0.5324310000000 1.0
C      1  0.4180140000000  0.5349110000000  0.5510950000000 1.0
C      1  0.4160670000000  0.5287330000000  0.4390260000000 1.0
C      1  0.4183060000000  0.4356820000000  0.5050290000000 1.0
C      1  0.5827720000000  0.5408180000000  0.4441330000000 1.0
C      1  0.5810240000000  0.5282980000000  0.5588690000000 1.0
C      1  0.5824500000000  0.4320530000000  0.4933360000000 1.0
C      1  0.5811190000000  0.4623620000000  0.4453340000000 1.0
C      1  0.5831840000000  0.4709720000000  0.5601370000000 1.0
C      1  0.5822230000000  0.5672830000000  0.4939920000000 1.0
C      1  0.4174500000000  0.4637870000000  0.5554540000000 1.0
C      1  0.4164430000000  0.4720700000000  0.4436870000000 1.0
C      1  0.4170810000000  0.5661520000000  0.5058910000000 1.0
C      1  0.4704990000000  0.4248630000000  0.5476440000000 1.0
C      1  0.5269380000000  0.5745740000000  0.4607110000000 1.0
C      1  0.4708140000000  0.5778590000000  0.5447130000000 1.0
C      1  0.5280830000000  0.4227120000000  0.4525060000000 1.0
C      1  0.5281810000000  0.4986970000000  0.5866220000000 1.0
C      1  0.4715630000000  0.5012750000000  0.4092860000000 1.0
C      1  0.4440150000000  0.5062030000000  0.4945610000000 1.0
C      1  0.5491930000000  0.4848960000000  0.4916100000000 1.0
END
