TITL C-2441157-2117-587 -8.08234362158704e-05 125000 -3645.61849122576 0 0 26 (C3) n - 1
REM
REM in /home/bkarasulu/work/CARBON/AIRSS/Generating-Clusters/ReaxFF-fromJPCA2015/Units_Real/with-SteepDescent/Higher-Symm
REM
REM
REM
REM
REM
REM ./C.cell (1df0a924f5614ab8850e4351716899ee)
REM
REM compiler GCC version 9.2.1 20190827 (Red Hat 9.2.1-1)
REM options -cpp -mtune=generic -march=x86-64 -g -O0 -fpre-include=/usr/include/finclude/math-vector-fortran.h
REM seed 1647003672 -521388727 -919404524 608586757 -2015206089 332252454 -1410757942 -391528358 1676903710 -1549606430 1583529152 324904925 1660207294 -1978072245 2079918186 1205907800 1215303674 1211963203 -688437348 -1311077463 -617911171 -903711042 -661580173 -2015159506 1179004263 1011115426 1753782261 -747422989 -612034189 868763993 -930462724 1938612230 1200488448
REM
CELL 1.54180   50.00000   50.00000   50.00000   90.00000   90.00000   90.00000
LATT -1
SFAC C  
C      1  0.4981970000000  0.5293380000000  0.5327020000000 1.0
C      1  0.4981980000000  0.4564710000000  0.5070450000000 1.0
C      1  0.4981980000000  0.5151240000000  0.4567700000000 1.0
C      1  0.4861940000000  0.4918330000000  0.4691930000000 1.0
C      1  0.4861930000000  0.5302230000000  0.5063220000000 1.0
C      1  0.4861960000000  0.4788760000000  0.5210010000000 1.0
C      1  0.4740090000000  0.5192140000000  0.5429780000000 1.0
C      1  0.4740110000000  0.4526370000000  0.4931380000000 1.0
C      1  0.4740120000000  0.5290860000000  0.4604050000000 1.0
C      1  0.4570280000000  0.4801600000000  0.5192140000000 1.0
C      1  0.4570240000000  0.4927440000000  0.4712000000000 1.0
C      1  0.4570250000000  0.5280330000000  0.5061070000000 1.0
C      1  0.4521330000000  0.5215370000000  0.4771740000000 1.0
C      1  0.4521340000000  0.5084620000000  0.5280540000000 1.0
C      1  0.4521350000000  0.4709370000000  0.4912940000000 1.0
C      1  0.5276920000000  0.4688030000000  0.5014030000000 1.0
C      1  0.5276910000000  0.5138420000000  0.4702710000000 1.0
C      1  0.5276900000000  0.5182840000000  0.5248450000000 1.0
C      1  0.5453190000000  0.4714020000000  0.5272810000000 1.0
C      1  0.5453200000000  0.4901330000000  0.4595800000000 1.0
C      1  0.5453190000000  0.5393940000000  0.5096550000000 1.0
C      1  0.5422800000000  0.4960380000000  0.5417440000000 1.0
C      1  0.5422850000000  0.4652910000000  0.4736890000000 1.0
C      1  0.5422820000000  0.5395990000000  0.4810870000000 1.0
C      1  0.4944800000000  0.5003080000000  0.4988420000000 1.0
C      1  0.5229560000000  0.5003090000000  0.4988390000000 1.0
END
