TITL C-2441157-2117-791 0.00257101319929584 125000 -9515.3214236642 0 0 64 (C1) n - 1
REM
REM in /home/bkarasulu/work/CARBON/AIRSS/Generating-Clusters/ReaxFF-fromJPCA2015/Units_Real/with-SteepDescent/Higher-Symm
REM
REM
REM
REM
REM
REM ./C.cell (1df0a924f5614ab8850e4351716899ee)
REM
REM compiler GCC version 9.2.1 20190827 (Red Hat 9.2.1-1)
REM options -cpp -mtune=generic -march=x86-64 -g -O0 -fpre-include=/usr/include/finclude/math-vector-fortran.h
REM seed -2131344009 124241303 2094339490 -192096145 1889657637 -798508463 -198837863 -1590504237 341945231 -1573822818 -103816515 1981376165 -2052326023 -262877945 -239805166 354338562 -1637711068 -828024226 -916231342 1877062953 -622389669 -491381960 -166708328 -472061404 894541194 -1626273648 -776464101 948621946 -1434262194 -47695249 436631297 -234494117 -567269476
REM
CELL 1.54180   50.00000   50.00000   50.00000   90.00000   90.00000   90.00000
LATT -1
SFAC C  
C      1  0.4448980000000  0.5662050000000  0.4967510000000 1.0
C      1  0.5249910000000  0.5585260000000  0.4532610000000 1.0
C      1  0.5248880000000  0.5631910000000  0.5472350000000 1.0
C      1  0.5531000000000  0.4534040000000  0.5284230000000 1.0
C      1  0.4481590000000  0.4545800000000  0.5311870000000 1.0
C      1  0.4990730000000  0.4559840000000  0.4395180000000 1.0
C      1  0.5585800000000  0.4721020000000  0.5062850000000 1.0
C      1  0.4638570000000  0.4723220000000  0.5481640000000 1.0
C      1  0.4787710000000  0.4754040000000  0.4470360000000 1.0
C      1  0.4704730000000  0.5071760000000  0.5098910000000 1.0
C      1  0.5050490000000  0.5137090000000  0.4736910000000 1.0
C      1  0.5215270000000  0.5049620000000  0.5208940000000 1.0
C      1  0.5143550000000  0.4532460000000  0.5589520000000 1.0
C      1  0.4421390000000  0.4552130000000  0.4825590000000 1.0
C      1  0.5445880000000  0.4539520000000  0.4573210000000 1.0
C      1  0.4614680000000  0.5796090000000  0.5146460000000 1.0
C      1  0.5045290000000  0.5754750000000  0.4567630000000 1.0
C      1  0.5308720000000  0.5786790000000  0.5231000000000 1.0
C      1  0.4903190000000  0.4621280000000  0.4876100000000 1.0
C      1  0.5178990000000  0.4641560000000  0.4972570000000 1.0
C      1  0.4952330000000  0.4634760000000  0.5159860000000 1.0
C      1  0.5355080000000  0.4920620000000  0.4344380000000 1.0
C      1  0.5458820000000  0.4929890000000  0.5622290000000 1.0
C      1  0.4236350000000  0.4952810000000  0.5076150000000 1.0
C      1  0.4819990000000  0.5435380000000  0.5479540000000 1.0
C      1  0.4617370000000  0.5453810000000  0.4605700000000 1.0
C      1  0.5465400000000  0.5406490000000  0.4889590000000 1.0
C      1  0.5282460000000  0.5789720000000  0.4725040000000 1.0
C      1  0.5051160000000  0.5828140000000  0.5371430000000 1.0
C      1  0.4649020000000  0.5828110000000  0.4862710000000 1.0
C      1  0.4605420000000  0.4311800000000  0.5198310000000 1.0
C      1  0.5015860000000  0.4316410000000  0.4552920000000 1.0
C      1  0.5370970000000  0.4299080000000  0.5230580000000 1.0
C      1  0.5419560000000  0.4658870000000  0.5544220000000 1.0
C      1  0.4320600000000  0.4680180000000  0.5081180000000 1.0
C      1  0.5274200000000  0.4656690000000  0.4352710000000 1.0
C      1  0.4891980000000  0.5035460000000  0.4515060000000 1.0
C      1  0.5492160000000  0.4996330000000  0.5133170000000 1.0
C      1  0.4612370000000  0.5002830000000  0.5368280000000 1.0
C      1  0.4458180000000  0.5125890000000  0.4917940000000 1.0
C      1  0.5485810000000  0.5116670000000  0.4479350000000 1.0
C      1  0.5192100000000  0.5082780000000  0.5511070000000 1.0
C      1  0.5138460000000  0.4300610000000  0.5416120000000 1.0
C      1  0.4564240000000  0.4313200000000  0.4903230000000 1.0
C      1  0.5292900000000  0.4308610000000  0.4662380000000 1.0
C      1  0.5100940000000  0.5383310000000  0.5489770000000 1.0
C      1  0.4450390000000  0.5418990000000  0.4831430000000 1.0
C      1  0.5295890000000  0.5318830000000  0.4645300000000 1.0
C      1  0.4898660000000  0.4701300000000  0.5627000000000 1.0
C      1  0.4520540000000  0.4719860000000  0.4601820000000 1.0
C      1  0.5593470000000  0.4713920000000  0.4763040000000 1.0
C      1  0.4878780000000  0.4377310000000  0.5294420000000 1.0
C      1  0.4823920000000  0.4354830000000  0.4770890000000 1.0
C      1  0.5321640000000  0.4374580000000  0.4949120000000 1.0
C      1  0.4643230000000  0.5189420000000  0.4481050000000 1.0
C      1  0.5622720000000  0.5171020000000  0.4937220000000 1.0
C      1  0.4718750000000  0.5174530000000  0.5580760000000 1.0
C      1  0.4777660000000  0.5693630000000  0.4643650000000 1.0
C      1  0.5392770000000  0.5673150000000  0.4972320000000 1.0
C      1  0.4786260000000  0.5706670000000  0.5363340000000 1.0
C      1  0.5637810000000  0.4993790000000  0.4698440000000 1.0
C      1  0.4927740000000  0.4985310000000  0.5662550000000 1.0
C      1  0.4471630000000  0.5001740000000  0.4619660000000 1.0
C      1  0.4986940000000  0.5098020000000  0.5019570000000 1.0
END
