TITL C-2441158-471-43 0.0867703637414445 125000 -25722.9604348171 0 0 186 (C1) n - 1
REM
REM in /home/bkarasulu/work/CARBON/AIRSS/Generating-Clusters/ReaxFF-fromJPCA2015/Units_Real/with-SteepDescent/Higher-Symm
REM
REM
REM
REM
REM
REM ./C.cell (1df0a924f5614ab8850e4351716899ee)
REM
REM compiler GCC version 9.2.1 20190827 (Red Hat 9.2.1-1)
REM options -cpp -mtune=generic -march=x86-64 -g -O0 -fpre-include=/usr/include/finclude/math-vector-fortran.h
REM seed -1095039429 636093061 -936726706 1924571532 472075613 -298095835 -995773063 1259643389 -1961470013 -502476046 679916236 1114746147 -1343620613 -700506880 -1924620997 -1483115446 895488049 -1342153815 2094069535 -90352595 758987218 1492163172 -1155808743 157190921 1360167573 -1782622140 -1812417134 372171680 882202382 779331987 1271251841 254330430 398083045
REM
CELL 1.54180   50.00000   50.00000   50.00000   90.00000   90.00000   90.00000
LATT -1
SFAC C  
C      1  0.5285910000000  0.5629910000000  0.4897990000000 1.0
C      1  0.5276000000000  0.5460340000000  0.5408120000000 1.0
C      1  0.5276440000000  0.4991050000000  0.5653340000000 1.0
C      1  0.5288500000000  0.4467910000000  0.5387410000000 1.0
C      1  0.5307210000000  0.4373030000000  0.4846990000000 1.0
C      1  0.5257970000000  0.4732970000000  0.4409420000000 1.0
C      1  0.5255900000000  0.5302090000000  0.4431930000000 1.0
C      1  0.4167790000000  0.5655340000000  0.5409950000000 1.0
C      1  0.4214410000000  0.5267300000000  0.5759290000000 1.0
C      1  0.4206970000000  0.4458810000000  0.5516310000000 1.0
C      1  0.4232060000000  0.4263740000000  0.4887220000000 1.0
C      1  0.4174730000000  0.4609580000000  0.4435850000000 1.0
C      1  0.4249180000000  0.5066660000000  0.4212940000000 1.0
C      1  0.4252330000000  0.5727290000000  0.4755780000000 1.0
C      1  0.4647170000000  0.4345490000000  0.5109800000000 1.0
C      1  0.4615260000000  0.4430940000000  0.4426330000000 1.0
C      1  0.4706300000000  0.5113400000000  0.4395820000000 1.0
C      1  0.4596730000000  0.5457760000000  0.4571720000000 1.0
C      1  0.4625820000000  0.5630640000000  0.5211910000000 1.0
C      1  0.4651290000000  0.5275520000000  0.5635630000000 1.0
C      1  0.4636800000000  0.4650440000000  0.5648240000000 1.0
C      1  0.5695540000000  0.5329600000000  0.5784940000000 1.0
C      1  0.5702130000000  0.4583460000000  0.5708790000000 1.0
C      1  0.5668480000000  0.4127290000000  0.5137130000000 1.0
C      1  0.5746100000000  0.4394770000000  0.4482410000000 1.0
C      1  0.5686820000000  0.5052260000000  0.4153530000000 1.0
C      1  0.5683250000000  0.5714370000000  0.4468210000000 1.0
C      1  0.5716570000000  0.5767350000000  0.5204840000000 1.0
C      1  0.5325460000000  0.5095300000000  0.5927020000000 1.0
C      1  0.5198740000000  0.4400910000000  0.5660730000000 1.0
C      1  0.5159130000000  0.4064310000000  0.4953620000000 1.0
C      1  0.5343160000000  0.4506730000000  0.4243690000000 1.0
C      1  0.5253700000000  0.5311880000000  0.4130880000000 1.0
C      1  0.5259620000000  0.5875720000000  0.4706360000000 1.0
C      1  0.5260890000000  0.5766970000000  0.5470470000000 1.0
C      1  0.4083110000000  0.5373380000000  0.5526120000000 1.0
C      1  0.4172290000000  0.4732120000000  0.5592170000000 1.0
C      1  0.4129920000000  0.4436040000000  0.5212790000000 1.0
C      1  0.4136680000000  0.4485220000000  0.4709240000000 1.0
C      1  0.4097810000000  0.4901100000000  0.4407770000000 1.0
C      1  0.4088960000000  0.5498630000000  0.4652180000000 1.0
C      1  0.4107950000000  0.5599280000000  0.5133410000000 1.0
C      1  0.4407010000000  0.5237380000000  0.5274100000000 1.0
C      1  0.4355600000000  0.4951000000000  0.5260790000000 1.0
C      1  0.4516850000000  0.4721360000000  0.5282900000000 1.0
C      1  0.4491540000000  0.4727010000000  0.4779980000000 1.0
C      1  0.4438870000000  0.4912880000000  0.4583060000000 1.0
C      1  0.4347520000000  0.5142080000000  0.4661660000000 1.0
C      1  0.4416570000000  0.5314650000000  0.5006720000000 1.0
C      1  0.6094730000000  0.5052870000000  0.5313760000000 1.0
C      1  0.6039460000000  0.4774400000000  0.5225170000000 1.0
C      1  0.6048130000000  0.4692960000000  0.4943540000000 1.0
C      1  0.6078310000000  0.4804670000000  0.4684590000000 1.0
C      1  0.6093400000000  0.5091370000000  0.4720230000000 1.0
C      1  0.6026290000000  0.5288820000000  0.4927160000000 1.0
C      1  0.6046110000000  0.5329870000000  0.5212360000000 1.0
C      1  0.5820440000000  0.4264110000000  0.4947340000000 1.0
C      1  0.5855240000000  0.4674720000000  0.4474790000000 1.0
C      1  0.5796840000000  0.5253700000000  0.4312550000000 1.0
C      1  0.5800050000000  0.5670150000000  0.4718190000000 1.0
C      1  0.5856750000000  0.5547350000000  0.5337350000000 1.0
C      1  0.5791860000000  0.5076000000000  0.5718710000000 1.0
C      1  0.5838950000000  0.4499920000000  0.5461290000000 1.0
C      1  0.4682640000000  0.5915730000000  0.5171480000000 1.0
C      1  0.4682390000000  0.5351790000000  0.5919970000000 1.0
C      1  0.4671530000000  0.4389700000000  0.5779320000000 1.0
C      1  0.4641680000000  0.4063840000000  0.5195430000000 1.0
C      1  0.4829840000000  0.4363340000000  0.4229920000000 1.0
C      1  0.4701660000000  0.5136590000000  0.3985640000000 1.0
C      1  0.4654670000000  0.5718950000000  0.4443720000000 1.0
C      1  0.5771550000000  0.5404000000000  0.4795590000000 1.0
C      1  0.5676850000000  0.5133400000000  0.5211760000000 1.0
C      1  0.5840010000000  0.5070530000000  0.5447270000000 1.0
C      1  0.5767770000000  0.4656710000000  0.5245260000000 1.0
C      1  0.5779060000000  0.4534980000000  0.4971660000000 1.0
C      1  0.5682910000000  0.4914960000000  0.4677850000000 1.0
C      1  0.5834820000000  0.5192930000000  0.4585570000000 1.0
C      1  0.5405120000000  0.4832220000000  0.4654100000000 1.0
C      1  0.5345730000000  0.5138020000000  0.4663120000000 1.0
C      1  0.5441060000000  0.5380570000000  0.4899920000000 1.0
C      1  0.5436250000000  0.5315560000000  0.5200950000000 1.0
C      1  0.5343680000000  0.4964070000000  0.5372410000000 1.0
C      1  0.5420430000000  0.4703980000000  0.5253930000000 1.0
C      1  0.5448620000000  0.4609810000000  0.4923210000000 1.0
C      1  0.3978040000000  0.5336160000000  0.5070890000000 1.0
C      1  0.3979930000000  0.5188240000000  0.5321280000000 1.0
C      1  0.4036540000000  0.4885750000000  0.5348030000000 1.0
C      1  0.3997660000000  0.4684670000000  0.5123720000000 1.0
C      1  0.4008300000000  0.4723090000000  0.4837120000000 1.0
C      1  0.3984180000000  0.4976280000000  0.4674900000000 1.0
C      1  0.3973330000000  0.5256060000000  0.4784060000000 1.0
C      1  0.5456050000000  0.4002370000000  0.4973860000000 1.0
C      1  0.5502450000000  0.4289540000000  0.4357950000000 1.0
C      1  0.5432460000000  0.5108070000000  0.4020020000000 1.0
C      1  0.5430600000000  0.5854510000000  0.4451310000000 1.0
C      1  0.5472200000000  0.5911970000000  0.5296950000000 1.0
C      1  0.5455120000000  0.5354110000000  0.5946600000000 1.0
C      1  0.5465090000000  0.4431120000000  0.5815550000000 1.0
C      1  0.4849990000000  0.4580060000000  0.4041490000000 1.0
C      1  0.4922310000000  0.5469310000000  0.4079690000000 1.0
C      1  0.4973330000000  0.6029940000000  0.4799860000000 1.0
C      1  0.4954130000000  0.5821740000000  0.5649900000000 1.0
C      1  0.4858610000000  0.4913480000000  0.6036880000000 1.0
C      1  0.4856760000000  0.4178560000000  0.5636630000000 1.0
C      1  0.4959350000000  0.3979660000000  0.4747930000000 1.0
C      1  0.4651340000000  0.5486220000000  0.4164760000000 1.0
C      1  0.4699290000000  0.5958190000000  0.4867080000000 1.0
C      1  0.4686480000000  0.5842910000000  0.5578850000000 1.0
C      1  0.4571290000000  0.4938470000000  0.5970240000000 1.0
C      1  0.4607040000000  0.4093290000000  0.5498950000000 1.0
C      1  0.4654930000000  0.4041920000000  0.4753440000000 1.0
C      1  0.4578270000000  0.4666010000000  0.4095430000000 1.0
C      1  0.5553790000000  0.4155900000000  0.5627240000000 1.0
C      1  0.5557050000000  0.3998370000000  0.4699900000000 1.0
C      1  0.5524810000000  0.4651930000000  0.4066330000000 1.0
C      1  0.5459040000000  0.5517580000000  0.4093020000000 1.0
C      1  0.5500620000000  0.6013050000000  0.4837640000000 1.0
C      1  0.5493960000000  0.5726880000000  0.5671340000000 1.0
C      1  0.5479270000000  0.4865490000000  0.6027600000000 1.0
C      1  0.4937150000000  0.4997060000000  0.4075330000000 1.0
C      1  0.4952760000000  0.5711680000000  0.4443200000000 1.0
C      1  0.4971250000000  0.5948140000000  0.5232100000000 1.0
C      1  0.4958070000000  0.5415100000000  0.5852020000000 1.0
C      1  0.5015260000000  0.4591630000000  0.5773350000000 1.0
C      1  0.4986640000000  0.4061700000000  0.5213050000000 1.0
C      1  0.5037320000000  0.4258140000000  0.4394800000000 1.0
C      1  0.5000780000000  0.5320100000000  0.4793110000000 1.0
C      1  0.5018840000000  0.5298980000000  0.5089170000000 1.0
C      1  0.5111780000000  0.5046870000000  0.5208650000000 1.0
C      1  0.4913030000000  0.4924750000000  0.5412410000000 1.0
C      1  0.4989650000000  0.4654350000000  0.4988670000000 1.0
C      1  0.4923480000000  0.4534650000000  0.4762200000000 1.0
C      1  0.5089410000000  0.5053050000000  0.4743350000000 1.0
C      1  0.4419470000000  0.4821160000000  0.5728120000000 1.0
C      1  0.4420190000000  0.4489150000000  0.5168730000000 1.0
C      1  0.4516440000000  0.4227190000000  0.4619340000000 1.0
C      1  0.4498960000000  0.4919660000000  0.4299610000000 1.0
C      1  0.4317470000000  0.5385440000000  0.4512440000000 1.0
C      1  0.4389040000000  0.5607480000000  0.5004280000000 1.0
C      1  0.4513090000000  0.5437880000000  0.5439730000000 1.0
C      1  0.4872660000000  0.4512970000000  0.5197070000000 1.0
C      1  0.4726950000000  0.4664840000000  0.4632720000000 1.0
C      1  0.4877810000000  0.4941490000000  0.4550650000000 1.0
C      1  0.4736220000000  0.5305870000000  0.4737140000000 1.0
C      1  0.4891160000000  0.5521200000000  0.5176100000000 1.0
C      1  0.4859670000000  0.5177510000000  0.5499940000000 1.0
C      1  0.4749650000000  0.4706530000000  0.5387840000000 1.0
C      1  0.5779570000000  0.4189920000000  0.4684110000000 1.0
C      1  0.5744220000000  0.4776430000000  0.4216150000000 1.0
C      1  0.5696800000000  0.5509240000000  0.4263230000000 1.0
C      1  0.5726200000000  0.5846750000000  0.4921500000000 1.0
C      1  0.5722190000000  0.5552390000000  0.5596140000000 1.0
C      1  0.5708280000000  0.4835940000000  0.5839710000000 1.0
C      1  0.5715480000000  0.4232910000000  0.5404630000000 1.0
C      1  0.5332920000000  0.5761860000000  0.4193320000000 1.0
C      1  0.5384070000000  0.6096740000000  0.5089400000000 1.0
C      1  0.5351950000000  0.5625250000000  0.5898980000000 1.0
C      1  0.5339390000000  0.4618140000000  0.6034840000000 1.0
C      1  0.5330450000000  0.4017940000000  0.5563130000000 1.0
C      1  0.5385310000000  0.4044680000000  0.4472810000000 1.0
C      1  0.5337910000000  0.4840710000000  0.3946210000000 1.0
C      1  0.4423880000000  0.5197850000000  0.5957180000000 1.0
C      1  0.4426720000000  0.4289200000000  0.5625810000000 1.0
C      1  0.4415690000000  0.4044560000000  0.4960770000000 1.0
C      1  0.4386870000000  0.4529990000000  0.4255000000000 1.0
C      1  0.4465320000000  0.5255970000000  0.4093260000000 1.0
C      1  0.4500030000000  0.5855190000000  0.4673570000000 1.0
C      1  0.4411810000000  0.5835480000000  0.5479940000000 1.0
C      1  0.5084200000000  0.5707040000000  0.5094350000000 1.0
C      1  0.5069930000000  0.5346600000000  0.5583300000000 1.0
C      1  0.5060480000000  0.4820910000000  0.5620600000000 1.0
C      1  0.5072890000000  0.4336760000000  0.5252670000000 1.0
C      1  0.5121110000000  0.4408870000000  0.4625060000000 1.0
C      1  0.5039000000000  0.4893090000000  0.4323260000000 1.0
C      1  0.5090620000000  0.5489490000000  0.4553700000000 1.0
C      1  0.5091220000000  0.6136980000000  0.5039220000000 1.0
C      1  0.5062680000000  0.5685750000000  0.5880660000000 1.0
C      1  0.5055250000000  0.4691660000000  0.6056520000000 1.0
C      1  0.5058970000000  0.4002590000000  0.5506250000000 1.0
C      1  0.5093860000000  0.3987590000000  0.4492880000000 1.0
C      1  0.5055780000000  0.4771390000000  0.3938660000000 1.0
C      1  0.5044780000000  0.5720300000000  0.4165910000000 1.0
C      1  0.4437140000000  0.4923200000000  0.4972280000000 1.0
C      1  0.5093820000000  0.4887840000000  0.4973860000000 1.0
C      1  0.5706050000000  0.4993930000000  0.4962760000000 1.0
C      1  0.4632840000000  0.5139470000000  0.4935140000000 1.0
END
