TITL C-2441159-1093-285 0.0746626768807147 125000 -13808.402581671 0 0 111 (C1) n - 1
REM
REM in /home/bkarasulu/work/CARBON/AIRSS/Generating-Clusters/ReaxFF-fromJPCA2015/Units_Real/with-SteepDescent/Higher-Symm
REM
REM
REM
REM
REM
REM ./C.cell (1df0a924f5614ab8850e4351716899ee)
REM
REM compiler GCC version 9.2.1 20190827 (Red Hat 9.2.1-1)
REM options -cpp -mtune=generic -march=x86-64 -g -O0 -fpre-include=/usr/include/finclude/math-vector-fortran.h
REM seed 1928860350 449574796 -699819952 -446822116 -1561210612 211523643 1339924213 1907452876 1402937422 1466261313 1811712185 616010325 -626748163 632604537 2072765200 523729292 926440452 1703490695 -2019862573 1673092373 1267679555 1736438011 -809445931 -771932352 2112306452 -1864633989 737114155 -882636781 -1387067946 432541164 1146084661 -1636433906 -102255886
REM
CELL 1.54180   50.00000   50.00000   50.00000   90.00000   90.00000   90.00000
LATT -1
SFAC C  
C      1  0.5465260000000  0.5520030000000  0.5197270000000 1.0
C      1  0.4857370000000  0.5765470000000  0.5255440000000 1.0
C      1  0.4365020000000  0.5352360000000  0.5237690000000 1.0
C      1  0.4300910000000  0.4751160000000  0.5240420000000 1.0
C      1  0.4759850000000  0.4312800000000  0.5249790000000 1.0
C      1  0.5394510000000  0.4388900000000  0.5243490000000 1.0
C      1  0.5771270000000  0.4947020000000  0.5240230000000 1.0
C      1  0.5338970000000  0.5065670000000  0.4587840000000 1.0
C      1  0.5151790000000  0.5300680000000  0.4593170000000 1.0
C      1  0.4877930000000  0.5304810000000  0.4572580000000 1.0
C      1  0.4701830000000  0.5094680000000  0.4576630000000 1.0
C      1  0.4761170000000  0.4821400000000  0.4576360000000 1.0
C      1  0.5007780000000  0.4678650000000  0.4624100000000 1.0
C      1  0.5264910000000  0.4799410000000  0.4579700000000 1.0
C      1  0.4784520000000  0.5434120000000  0.5656210000000 1.0
C      1  0.4531700000000  0.4979710000000  0.5649510000000 1.0
C      1  0.4630930000000  0.4700790000000  0.5632910000000 1.0
C      1  0.5127440000000  0.4553340000000  0.5671760000000 1.0
C      1  0.5365350000000  0.4709980000000  0.5728830000000 1.0
C      1  0.5347720000000  0.4999970000000  0.5749240000000 1.0
C      1  0.5082030000000  0.5462790000000  0.5655000000000 1.0
C      1  0.5379050000000  0.4231950000000  0.4780030000000 1.0
C      1  0.5864240000000  0.4786060000000  0.4775010000000 1.0
C      1  0.5645200000000  0.5605480000000  0.4775660000000 1.0
C      1  0.4964950000000  0.5851430000000  0.4777630000000 1.0
C      1  0.4289230000000  0.5516550000000  0.4768120000000 1.0
C      1  0.4137960000000  0.4774000000000  0.4785490000000 1.0
C      1  0.4635160000000  0.4220590000000  0.4772760000000 1.0
C      1  0.4311350000000  0.5405130000000  0.5506670000000 1.0
C      1  0.4188940000000  0.4728010000000  0.5475300000000 1.0
C      1  0.4717590000000  0.4226760000000  0.5499570000000 1.0
C      1  0.5452040000000  0.4287090000000  0.5497280000000 1.0
C      1  0.5737280000000  0.4904810000000  0.5501380000000 1.0
C      1  0.5556020000000  0.5570190000000  0.5465360000000 1.0
C      1  0.4902180000000  0.5802780000000  0.5535400000000 1.0
C      1  0.4191500000000  0.4915850000000  0.5041530000000 1.0
C      1  0.4555300000000  0.4296790000000  0.5054240000000 1.0
C      1  0.5267680000000  0.4214830000000  0.5061780000000 1.0
C      1  0.5777310000000  0.4724940000000  0.5058290000000 1.0
C      1  0.5694090000000  0.5420530000000  0.5047680000000 1.0
C      1  0.5070090000000  0.5823930000000  0.5057390000000 1.0
C      1  0.4396830000000  0.5582530000000  0.5087590000000 1.0
C      1  0.5466030000000  0.4681670000000  0.4404810000000 1.0
C      1  0.5558950000000  0.5172350000000  0.4418380000000 1.0
C      1  0.5197610000000  0.5531790000000  0.4404770000000 1.0
C      1  0.4708070000000  0.5489590000000  0.4416180000000 1.0
C      1  0.4446620000000  0.5096310000000  0.4425570000000 1.0
C      1  0.4594340000000  0.4626510000000  0.4426180000000 1.0
C      1  0.5031190000000  0.4430440000000  0.4431210000000 1.0
C      1  0.5703230000000  0.4619680000000  0.4575940000000 1.0
C      1  0.5668090000000  0.5395520000000  0.4579350000000 1.0
C      1  0.5168730000000  0.5776900000000  0.4582220000000 1.0
C      1  0.4492990000000  0.5623670000000  0.4577060000000 1.0
C      1  0.4230580000000  0.5027570000000  0.4637150000000 1.0
C      1  0.4492440000000  0.4391900000000  0.4583250000000 1.0
C      1  0.5162080000000  0.4217910000000  0.4583930000000 1.0
C      1  0.5792990000000  0.5229730000000  0.5258700000000 1.0
C      1  0.5352780000000  0.5744440000000  0.5346360000000 1.0
C      1  0.4573320000000  0.5730340000000  0.5300940000000 1.0
C      1  0.4185940000000  0.5185620000000  0.5347580000000 1.0
C      1  0.4339380000000  0.4492700000000  0.5349240000000 1.0
C      1  0.4984890000000  0.4184520000000  0.5364300000000 1.0
C      1  0.5632390000000  0.4475060000000  0.5349530000000 1.0
C      1  0.5623960000000  0.5286190000000  0.5486240000000 1.0
C      1  0.5175600000000  0.5733040000000  0.5585160000000 1.0
C      1  0.4546120000000  0.5586430000000  0.5550630000000 1.0
C      1  0.4244570000000  0.5000350000000  0.5571090000000 1.0
C      1  0.4528390000000  0.4438230000000  0.5566640000000 1.0
C      1  0.5164570000000  0.4287890000000  0.5572040000000 1.0
C      1  0.5623220000000  0.4658790000000  0.5583160000000 1.0
C      1  0.4799760000000  0.5317240000000  0.4990040000000 1.0
C      1  0.4658300000000  0.5055110000000  0.4965830000000 1.0
C      1  0.4717040000000  0.4752850000000  0.5026220000000 1.0
C      1  0.5025510000000  0.4618020000000  0.4935690000000 1.0
C      1  0.5277860000000  0.4737890000000  0.5032080000000 1.0
C      1  0.5290910000000  0.5168740000000  0.4949630000000 1.0
C      1  0.5103850000000  0.5366880000000  0.5049890000000 1.0
C      1  0.4092680000000  0.5312560000000  0.4732150000000 1.0
C      1  0.4290870000000  0.4530290000000  0.4752450000000 1.0
C      1  0.4919160000000  0.4152370000000  0.4748060000000 1.0
C      1  0.5592990000000  0.4426970000000  0.4763330000000 1.0
C      1  0.5817460000000  0.5056090000000  0.4726850000000 1.0
C      1  0.5393150000000  0.5737950000000  0.4763780000000 1.0
C      1  0.4682430000000  0.5776220000000  0.4745060000000 1.0
C      1  0.5345770000000  0.5122940000000  0.4196430000000 1.0
C      1  0.5116690000000  0.5346350000000  0.4191580000000 1.0
C      1  0.4770900000000  0.5305770000000  0.4189970000000 1.0
C      1  0.4613320000000  0.5051140000000  0.4195710000000 1.0
C      1  0.4742640000000  0.4714330000000  0.4188660000000 1.0
C      1  0.5025080000000  0.4617550000000  0.4208080000000 1.0
C      1  0.5312370000000  0.4817920000000  0.4179180000000 1.0
C      1  0.5029050000000  0.4332780000000  0.4952260000000 1.0
C      1  0.5520900000000  0.4646250000000  0.4957960000000 1.0
C      1  0.5607960000000  0.5211890000000  0.4848060000000 1.0
C      1  0.5224330000000  0.5608690000000  0.4978690000000 1.0
C      1  0.4649020000000  0.5557970000000  0.4942660000000 1.0
C      1  0.4387140000000  0.5079550000000  0.4899280000000 1.0
C      1  0.4505020000000  0.4560920000000  0.4951820000000 1.0
C      1  0.5114660000000  0.5310390000000  0.5391750000000 1.0
C      1  0.4824870000000  0.5262030000000  0.5422020000000 1.0
C      1  0.4659970000000  0.5045670000000  0.5391760000000 1.0
C      1  0.4752170000000  0.4773380000000  0.5364220000000 1.0
C      1  0.5021000000000  0.4724200000000  0.5448380000000 1.0
C      1  0.5242140000000  0.4860100000000  0.5288900000000 1.0
C      1  0.5359550000000  0.5122040000000  0.5476010000000 1.0
C      1  0.4988100000000  0.4998670000000  0.4344040000000 1.0
C      1  0.4944550000000  0.4953970000000  0.5656870000000 1.0
C      1  0.4981800000000  0.4990550000000  0.4056130000000 1.0
C      1  0.5077210000000  0.5054500000000  0.5895570000000 1.0
C      1  0.5004330000000  0.4993590000000  0.5157270000000 1.0
C      1  0.5050170000000  0.5021830000000  0.4862750000000 1.0
END
