TITL C-2441169-1362-709 0.0339265491307664 125000 -18933.4350741578 0 0 133 (C1) n - 1
REM
REM in /home/bkarasulu/work/CARBON/AIRSS/Generating-Clusters/ReaxFF-fromJPCA2015/Units_Real/with-SteepDescent/Higher-Symm
REM
REM
REM
REM
REM
REM ./C.cell (1df0a924f5614ab8850e4351716899ee)
REM
REM compiler GCC version 9.2.1 20190827 (Red Hat 9.2.1-1)
REM options -cpp -mtune=generic -march=x86-64 -g -O0 -fpre-include=/usr/include/finclude/math-vector-fortran.h
REM seed 1408501072 1548587822 306601734 -1944086477 564944148 146492821 -1274170768 -347555691 1889834248 2007406633 1336531880 -446415932 1979233934 718985579 579289348 46403114 833420827 -1671574287 -269985254 -788704799 -2042376013 914282259 2056904703 2023446829 294823147 1250708089 1563624422 -1264356446 1708483134 -885120068 -195130599 -2049337180 2121478137
REM
CELL 1.54180   50.00000   50.00000   50.00000   90.00000   90.00000   90.00000
LATT -1
SFAC C  
C      1  0.4976660000000  0.4697440000000  0.5322270000000 1.0
C      1  0.4823110000000  0.4916160000000  0.5443280000000 1.0
C      1  0.4792900000000  0.5199350000000  0.5337340000000 1.0
C      1  0.5083900000000  0.5337280000000  0.5310580000000 1.0
C      1  0.5346740000000  0.5155010000000  0.5361700000000 1.0
C      1  0.5273700000000  0.4818900000000  0.5314000000000 1.0
C      1  0.4108570000000  0.4908590000000  0.4979320000000 1.0
C      1  0.4469580000000  0.5747770000000  0.4975590000000 1.0
C      1  0.5365920000000  0.5813120000000  0.4980350000000 1.0
C      1  0.5882090000000  0.5092100000000  0.5006030000000 1.0
C      1  0.5535100000000  0.4213260000000  0.4945100000000 1.0
C      1  0.4639440000000  0.4181880000000  0.4991120000000 1.0
C      1  0.5312550000000  0.4221280000000  0.5422920000000 1.0
C      1  0.4512970000000  0.4413510000000  0.5453780000000 1.0
C      1  0.4182540000000  0.5114060000000  0.5464690000000 1.0
C      1  0.4703860000000  0.5745330000000  0.5454570000000 1.0
C      1  0.5510840000000  0.5646080000000  0.5435800000000 1.0
C      1  0.5823840000000  0.4858830000000  0.5490480000000 1.0
C      1  0.4645300000000  0.4248540000000  0.4503270000000 1.0
C      1  0.4192980000000  0.4888920000000  0.4480590000000 1.0
C      1  0.4505030000000  0.5683850000000  0.4492760000000 1.0
C      1  0.5348790000000  0.5758520000000  0.4489500000000 1.0
C      1  0.5829550000000  0.5071320000000  0.4509600000000 1.0
C      1  0.5485620000000  0.4364290000000  0.4471540000000 1.0
C      1  0.5197610000000  0.4281400000000  0.4442660000000 1.0
C      1  0.4409860000000  0.4403880000000  0.4512400000000 1.0
C      1  0.4258600000000  0.5182420000000  0.4444690000000 1.0
C      1  0.4794340000000  0.5753110000000  0.4449550000000 1.0
C      1  0.5544700000000  0.5534160000000  0.4447430000000 1.0
C      1  0.5806210000000  0.4789240000000  0.4515290000000 1.0
C      1  0.5893160000000  0.5083110000000  0.5318070000000 1.0
C      1  0.5536820000000  0.4225930000000  0.5259520000000 1.0
C      1  0.4637820000000  0.4188360000000  0.5311450000000 1.0
C      1  0.4065090000000  0.4916900000000  0.5304640000000 1.0
C      1  0.4469850000000  0.5735400000000  0.5280930000000 1.0
C      1  0.5389470000000  0.5853110000000  0.5295190000000 1.0
C      1  0.5358570000000  0.4873580000000  0.5770470000000 1.0
C      1  0.5102090000000  0.4750230000000  0.5848240000000 1.0
C      1  0.4788390000000  0.4834190000000  0.5723470000000 1.0
C      1  0.4656600000000  0.5102400000000  0.5812460000000 1.0
C      1  0.4843870000000  0.5329540000000  0.5817140000000 1.0
C      1  0.5132210000000  0.5276750000000  0.5881180000000 1.0
C      1  0.4128410000000  0.5200570000000  0.4897360000000 1.0
C      1  0.4732570000000  0.5860060000000  0.4902930000000 1.0
C      1  0.5611730000000  0.5668990000000  0.4896610000000 1.0
C      1  0.5895090000000  0.4802210000000  0.4926250000000 1.0
C      1  0.5265050000000  0.4121700000000  0.4885960000000 1.0
C      1  0.4382690000000  0.4307340000000  0.4917700000000 1.0
C      1  0.5079650000000  0.4117790000000  0.4658020000000 1.0
C      1  0.4212850000000  0.4460590000000  0.4704700000000 1.0
C      1  0.4194460000000  0.5366860000000  0.4668180000000 1.0
C      1  0.4921190000000  0.5890600000000  0.4676980000000 1.0
C      1  0.5731850000000  0.5509570000000  0.4676840000000 1.0
C      1  0.5846420000000  0.4593700000000  0.4712910000000 1.0
C      1  0.5494540000000  0.5261780000000  0.5599200000000 1.0
C      1  0.5508610000000  0.4493360000000  0.5674930000000 1.0
C      1  0.4998550000000  0.4291550000000  0.5686400000000 1.0
C      1  0.4335900000000  0.4718390000000  0.5676800000000 1.0
C      1  0.4444620000000  0.5435540000000  0.5682590000000 1.0
C      1  0.5118260000000  0.5659930000000  0.5692700000000 1.0
C      1  0.5766140000000  0.4621580000000  0.5330030000000 1.0
C      1  0.5060080000000  0.4136840000000  0.5308430000000 1.0
C      1  0.4310290000000  0.4561450000000  0.5298520000000 1.0
C      1  0.4240430000000  0.5367620000000  0.5324900000000 1.0
C      1  0.4949750000000  0.5836040000000  0.5326860000000 1.0
C      1  0.5707220000000  0.5476910000000  0.5313780000000 1.0
C      1  0.4953400000000  0.5299820000000  0.4133460000000 1.0
C      1  0.5226800000000  0.5196070000000  0.4132840000000 1.0
C      1  0.5261990000000  0.4905700000000  0.4099840000000 1.0
C      1  0.5049620000000  0.4709110000000  0.4125080000000 1.0
C      1  0.4788690000000  0.4834330000000  0.4096130000000 1.0
C      1  0.4729940000000  0.5118230000000  0.4122270000000 1.0
C      1  0.4886810000000  0.4758630000000  0.5030320000000 1.0
C      1  0.4686250000000  0.4939220000000  0.5018410000000 1.0
C      1  0.4818830000000  0.5178870000000  0.5038570000000 1.0
C      1  0.5111260000000  0.5220630000000  0.5011290000000 1.0
C      1  0.5244830000000  0.5015940000000  0.4950050000000 1.0
C      1  0.5173160000000  0.4795190000000  0.5013810000000 1.0
C      1  0.4720500000000  0.5005190000000  0.4555580000000 1.0
C      1  0.4862040000000  0.5261320000000  0.4578060000000 1.0
C      1  0.5155850000000  0.5252900000000  0.4563140000000 1.0
C      1  0.5294170000000  0.4993460000000  0.4544940000000 1.0
C      1  0.5152770000000  0.4740050000000  0.4572970000000 1.0
C      1  0.4860360000000  0.4745730000000  0.4571160000000 1.0
C      1  0.5644300000000  0.4366990000000  0.4729170000000 1.0
C      1  0.4795420000000  0.4141320000000  0.4742050000000 1.0
C      1  0.4120290000000  0.4741350000000  0.4729850000000 1.0
C      1  0.4354180000000  0.5612690000000  0.4740050000000 1.0
C      1  0.5209630000000  0.5864280000000  0.4737780000000 1.0
C      1  0.5849110000000  0.5249670000000  0.4751260000000 1.0
C      1  0.5227390000000  0.5397250000000  0.4803420000000 1.0
C      1  0.5467020000000  0.5000530000000  0.4782560000000 1.0
C      1  0.5236910000000  0.4603430000000  0.4816130000000 1.0
C      1  0.4780730000000  0.4596210000000  0.4805780000000 1.0
C      1  0.4542770000000  0.5008740000000  0.4782560000000 1.0
C      1  0.4776770000000  0.5381270000000  0.4827890000000 1.0
C      1  0.4395830000000  0.4760730000000  0.5096710000000 1.0
C      1  0.4505200000000  0.5305650000000  0.5213140000000 1.0
C      1  0.5067700000000  0.5611650000000  0.5176350000000 1.0
C      1  0.5559250000000  0.5265970000000  0.5168790000000 1.0
C      1  0.5514690000000  0.4700170000000  0.5194920000000 1.0
C      1  0.4952770000000  0.4387640000000  0.5180080000000 1.0
C      1  0.4366830000000  0.4749310000000  0.4305950000000 1.0
C      1  0.4508020000000  0.5487010000000  0.4295910000000 1.0
C      1  0.5179360000000  0.5662400000000  0.4295940000000 1.0
C      1  0.5661010000000  0.5097230000000  0.4266310000000 1.0
C      1  0.5552120000000  0.4576710000000  0.4298200000000 1.0
C      1  0.4751770000000  0.4387800000000  0.4266290000000 1.0
C      1  0.4415690000000  0.5208570000000  0.4959840000000 1.0
C      1  0.4869820000000  0.5606690000000  0.4966490000000 1.0
C      1  0.5461810000000  0.5423810000000  0.4959410000000 1.0
C      1  0.5603020000000  0.4806130000000  0.4952080000000 1.0
C      1  0.5142460000000  0.4382330000000  0.4962490000000 1.0
C      1  0.4527370000000  0.4563620000000  0.4932600000000 1.0
C      1  0.4924710000000  0.5597190000000  0.4219920000000 1.0
C      1  0.5477330000000  0.5318710000000  0.4250190000000 1.0
C      1  0.5541930000000  0.4829600000000  0.4169580000000 1.0
C      1  0.5036730000000  0.4432510000000  0.4249540000000 1.0
C      1  0.4584470000000  0.4628500000000  0.4173370000000 1.0
C      1  0.4455750000000  0.5229270000000  0.4220760000000 1.0
C      1  0.5209620000000  0.4469380000000  0.5748060000000 1.0
C      1  0.4581380000000  0.4596270000000  0.5690170000000 1.0
C      1  0.4391420000000  0.5166150000000  0.5713590000000 1.0
C      1  0.4830550000000  0.5598830000000  0.5697700000000 1.0
C      1  0.5329660000000  0.5457170000000  0.5755140000000 1.0
C      1  0.5611290000000  0.4763380000000  0.5696290000000 1.0
C      1  0.5785880000000  0.5272170000000  0.5509550000000 1.0
C      1  0.5688190000000  0.4373810000000  0.5469300000000 1.0
C      1  0.4845200000000  0.4117840000000  0.5513390000000 1.0
C      1  0.4117330000000  0.4695970000000  0.5487360000000 1.0
C      1  0.4306080000000  0.5608050000000  0.5492670000000 1.0
C      1  0.5179310000000  0.5883070000000  0.5501860000000 1.0
C      1  0.5205760000000  0.5002900000000  0.5943300000000 1.0
END
