TITL C-2441164-471-1187 0.0275664186982957 125000 -19989.9113187579 0 0 139 (C1) n - 1
REM
REM in /home/bkarasulu/work/CARBON/AIRSS/Generating-Clusters/ReaxFF-fromJPCA2015/Units_Real/with-SteepDescent/Higher-Symm
REM
REM
REM
REM
REM
REM ./C.cell (1df0a924f5614ab8850e4351716899ee)
REM
REM compiler GCC version 9.2.1 20190827 (Red Hat 9.2.1-1)
REM options -cpp -mtune=generic -march=x86-64 -g -O0 -fpre-include=/usr/include/finclude/math-vector-fortran.h
REM seed -403638466 -933961661 -125847322 -326115935 1196649727 1397439935 2044712387 -338801299 481244563 -625803797 -904936777 -1706334697 -1719931199 -42206608 888033336 1814549621 645826171 -262816691 767606237 1852401931 1794738013 -1060656252 -623754964 -939344386 -636522252 2134127465 455051908 1885654656 900675473 -1366976021 1549016925 -866841699 136521540
REM
CELL 1.54180   50.00000   50.00000   50.00000   90.00000   90.00000   90.00000
LATT -1
SFAC C  
C      1  0.4516350000000  0.4659450000000  0.5171360000000 1.0
C      1  0.4796710000000  0.4844110000000  0.4246010000000 1.0
C      1  0.4700030000000  0.5356290000000  0.5920540000000 1.0
C      1  0.5046180000000  0.5854590000000  0.4744720000000 1.0
C      1  0.4345210000000  0.4833190000000  0.4992500000000 1.0
C      1  0.5857200000000  0.4827460000000  0.5561150000000 1.0
C      1  0.5161410000000  0.4255600000000  0.4504050000000 1.0
C      1  0.4798120000000  0.5813370000000  0.4907030000000 1.0
C      1  0.5497130000000  0.5625340000000  0.5367360000000 1.0
C      1  0.4125790000000  0.4705840000000  0.5348850000000 1.0
C      1  0.4113740000000  0.5199460000000  0.5272810000000 1.0
C      1  0.5583780000000  0.5239640000000  0.4772080000000 1.0
C      1  0.4157780000000  0.4702380000000  0.4509390000000 1.0
C      1  0.4664960000000  0.5263860000000  0.4102910000000 1.0
C      1  0.4493810000000  0.4233310000000  0.4880780000000 1.0
C      1  0.4911050000000  0.4109520000000  0.4588790000000 1.0
C      1  0.4380570000000  0.5735500000000  0.5381400000000 1.0
C      1  0.5701410000000  0.5475180000000  0.5225340000000 1.0
C      1  0.4142830000000  0.5419320000000  0.5112830000000 1.0
C      1  0.5356710000000  0.4759640000000  0.5550070000000 1.0
C      1  0.4048800000000  0.5088540000000  0.4834130000000 1.0
C      1  0.4529280000000  0.5720850000000  0.4470180000000 1.0
C      1  0.5781510000000  0.5007460000000  0.5137220000000 1.0
C      1  0.5165760000000  0.4379680000000  0.5818120000000 1.0
C      1  0.5521330000000  0.5209110000000  0.5708800000000 1.0
C      1  0.5201240000000  0.4114430000000  0.5147640000000 1.0
C      1  0.5213590000000  0.5456970000000  0.4175630000000 1.0
C      1  0.5494230000000  0.4992230000000  0.4071080000000 1.0
C      1  0.5736990000000  0.5618080000000  0.4689400000000 1.0
C      1  0.4519470000000  0.4346250000000  0.4301970000000 1.0
C      1  0.4622990000000  0.5899470000000  0.5378480000000 1.0
C      1  0.4772450000000  0.5633290000000  0.4375070000000 1.0
C      1  0.4820780000000  0.4487470000000  0.4821380000000 1.0
C      1  0.5551350000000  0.4701390000000  0.5914270000000 1.0
C      1  0.5468420000000  0.4181900000000  0.5082290000000 1.0
C      1  0.4900510000000  0.4695960000000  0.5012130000000 1.0
C      1  0.5235200000000  0.4879440000000  0.5300620000000 1.0
C      1  0.4934040000000  0.5396160000000  0.4713430000000 1.0
C      1  0.5589680000000  0.5388040000000  0.4333880000000 1.0
C      1  0.4847990000000  0.4969710000000  0.4962710000000 1.0
C      1  0.5473550000000  0.5724290000000  0.4614580000000 1.0
C      1  0.4644270000000  0.5123770000000  0.5092560000000 1.0
C      1  0.4272160000000  0.5585780000000  0.4723440000000 1.0
C      1  0.5244690000000  0.5063960000000  0.5065430000000 1.0
C      1  0.5326520000000  0.4469380000000  0.5573150000000 1.0
C      1  0.4751170000000  0.5330870000000  0.4498200000000 1.0
C      1  0.4806990000000  0.4955340000000  0.5746090000000 1.0
C      1  0.4780430000000  0.4197020000000  0.4832130000000 1.0
C      1  0.5001000000000  0.5399460000000  0.5955870000000 1.0
C      1  0.4834890000000  0.4267880000000  0.5448870000000 1.0
C      1  0.4342240000000  0.5531480000000  0.5599640000000 1.0
C      1  0.5248250000000  0.4681460000000  0.4704980000000 1.0
C      1  0.5541500000000  0.4334180000000  0.4620360000000 1.0
C      1  0.5417290000000  0.5214290000000  0.4531330000000 1.0
C      1  0.4341190000000  0.5046640000000  0.5683520000000 1.0
C      1  0.4086180000000  0.4953650000000  0.5114820000000 1.0
C      1  0.4212830000000  0.4627970000000  0.4780520000000 1.0
C      1  0.4486200000000  0.5214310000000  0.4620770000000 1.0
C      1  0.4976210000000  0.5059480000000  0.3945040000000 1.0
C      1  0.5837130000000  0.5445660000000  0.4473320000000 1.0
C      1  0.5201540000000  0.5369860000000  0.4677620000000 1.0
C      1  0.4585040000000  0.4202200000000  0.5385700000000 1.0
C      1  0.5840930000000  0.5184370000000  0.4610010000000 1.0
C      1  0.5712650000000  0.4865940000000  0.4188590000000 1.0
C      1  0.4492150000000  0.5757120000000  0.4737600000000 1.0
C      1  0.4288160000000  0.5164780000000  0.4424000000000 1.0
C      1  0.4383220000000  0.4318670000000  0.5575140000000 1.0
C      1  0.5082180000000  0.4636500000000  0.5218520000000 1.0
C      1  0.5339600000000  0.4522630000000  0.5979380000000 1.0
C      1  0.4240050000000  0.5263260000000  0.5526550000000 1.0
C      1  0.5863740000000  0.4546420000000  0.5122190000000 1.0
C      1  0.4096810000000  0.4991110000000  0.4567630000000 1.0
C      1  0.4907640000000  0.4543610000000  0.5420370000000 1.0
C      1  0.5337320000000  0.5792720000000  0.5199830000000 1.0
C      1  0.4939600000000  0.4783610000000  0.3989590000000 1.0
C      1  0.4410820000000  0.4549240000000  0.5745930000000 1.0
C      1  0.4471070000000  0.5085270000000  0.4871860000000 1.0
C      1  0.4442400000000  0.5096910000000  0.4177950000000 1.0
C      1  0.4937010000000  0.5325750000000  0.4041920000000 1.0
C      1  0.5994480000000  0.5013150000000  0.4789610000000 1.0
C      1  0.4355600000000  0.4403890000000  0.4709170000000 1.0
C      1  0.5060240000000  0.5776900000000  0.5614500000000 1.0
C      1  0.5061070000000  0.4351760000000  0.4225510000000 1.0
C      1  0.5729850000000  0.4606600000000  0.5694670000000 1.0
C      1  0.5804490000000  0.4734770000000  0.4416040000000 1.0
C      1  0.5980220000000  0.5218870000000  0.4993450000000 1.0
C      1  0.5391260000000  0.4726500000000  0.4474370000000 1.0
C      1  0.5016370000000  0.5776460000000  0.4466060000000 1.0
C      1  0.5646330000000  0.4828700000000  0.4886980000000 1.0
C      1  0.4377570000000  0.5561970000000  0.5156150000000 1.0
C      1  0.4822060000000  0.5490220000000  0.5409460000000 1.0
C      1  0.4649150000000  0.5417750000000  0.5164620000000 1.0
C      1  0.4759380000000  0.5730370000000  0.5603240000000 1.0
C      1  0.5317110000000  0.4778610000000  0.4197530000000 1.0
C      1  0.5062680000000  0.4483430000000  0.4671510000000 1.0
C      1  0.4863120000000  0.5512740000000  0.4965060000000 1.0
C      1  0.5413780000000  0.4200550000000  0.4807550000000 1.0
C      1  0.4885660000000  0.5060480000000  0.4425450000000 1.0
C      1  0.4558240000000  0.5565320000000  0.5782460000000 1.0
C      1  0.5217220000000  0.4941360000000  0.4808250000000 1.0
C      1  0.5418040000000  0.5468370000000  0.5627870000000 1.0
C      1  0.5270930000000  0.5664990000000  0.4380630000000 1.0
C      1  0.4963830000000  0.4116560000000  0.5263050000000 1.0
C      1  0.5075330000000  0.5364220000000  0.5380030000000 1.0
C      1  0.5056540000000  0.4873810000000  0.5907690000000 1.0
C      1  0.5314860000000  0.5788970000000  0.4864990000000 1.0
C      1  0.5057500000000  0.5085300000000  0.5428560000000 1.0
C      1  0.4454440000000  0.4363290000000  0.5171700000000 1.0
C      1  0.5842580000000  0.5482790000000  0.4967010000000 1.0
C      1  0.4836240000000  0.5920330000000  0.5191320000000 1.0
C      1  0.5666510000000  0.4363540000000  0.5232210000000 1.0
C      1  0.5766940000000  0.4501340000000  0.4594120000000 1.0
C      1  0.4956180000000  0.4986840000000  0.4695830000000 1.0
C      1  0.4201250000000  0.4429520000000  0.5357880000000 1.0
C      1  0.5156030000000  0.5344650000000  0.5094970000000 1.0
C      1  0.5099220000000  0.5870570000000  0.5333790000000 1.0
C      1  0.5046140000000  0.5133080000000  0.6025200000000 1.0
C      1  0.4399570000000  0.4612510000000  0.4353710000000 1.0
C      1  0.4092650000000  0.5381030000000  0.4836230000000 1.0
C      1  0.5350390000000  0.5457570000000  0.4901710000000 1.0
C      1  0.4577630000000  0.5093840000000  0.5855010000000 1.0
C      1  0.5681610000000  0.5198950000000  0.5326670000000 1.0
C      1  0.5141790000000  0.4578900000000  0.4070060000000 1.0
C      1  0.4689970000000  0.4124720000000  0.4398890000000 1.0
C      1  0.4524590000000  0.4824630000000  0.4219790000000 1.0
C      1  0.5885550000000  0.4672830000000  0.4837230000000 1.0
C      1  0.4781590000000  0.4288000000000  0.4173580000000 1.0
C      1  0.4673110000000  0.4505890000000  0.5809750000000 1.0
C      1  0.4271530000000  0.4779510000000  0.5583570000000 1.0
C      1  0.4697060000000  0.4736510000000  0.5372530000000 1.0
C      1  0.5442800000000  0.5294360000000  0.4104090000000 1.0
C      1  0.5760850000000  0.5107690000000  0.5589010000000 1.0
C      1  0.4933170000000  0.4544260000000  0.5895260000000 1.0
C      1  0.5610100000000  0.4405400000000  0.5514930000000 1.0
C      1  0.5181100000000  0.5559740000000  0.5761680000000 1.0
C      1  0.5595540000000  0.4874260000000  0.4598200000000 1.0
C      1  0.5377060000000  0.4928980000000  0.5786470000000 1.0
C      1  0.5898110000000  0.4783530000000  0.5281440000000 1.0
C      1  0.4782800000000  0.5002040000000  0.5458300000000 1.0
END
