TITL C-2441169-1362-1473 0.00385631587475961 125000 -17059.2885829834 0 0 111 (C1) n - 1
REM
REM in /home/bkarasulu/work/CARBON/AIRSS/Generating-Clusters/ReaxFF-fromJPCA2015/Units_Real/with-SteepDescent/Higher-Symm
REM
REM
REM
REM
REM
REM ./C.cell (1df0a924f5614ab8850e4351716899ee)
REM
REM compiler GCC version 9.2.1 20190827 (Red Hat 9.2.1-1)
REM options -cpp -mtune=generic -march=x86-64 -g -O0 -fpre-include=/usr/include/finclude/math-vector-fortran.h
REM seed 852559123 1105328712 -200769643 92879471 1077535447 -1957867982 560494337 1059937241 -1476561752 -1280622786 -863101446 1107685017 1618575348 -757250380 461590018 -1783797324 -1293717361 -446822719 -412491830 -614702658 1737755223 -1403321531 -1084482738 900481013 -304758735 -335379030 487991304 1840204261 1297904161 705115281 212689203 -1820790678 2066152457
REM
CELL 1.54180   50.00000   50.00000   50.00000   90.00000   90.00000   90.00000
LATT -1
SFAC C  
C      1  0.5115480000000  0.5149010000000  0.5795540000000 1.0
C      1  0.5146740000000  0.4857930000000  0.4200070000000 1.0
C      1  0.4826280000000  0.5149390000000  0.5790650000000 1.0
C      1  0.4849560000000  0.4860740000000  0.4199670000000 1.0
C      1  0.5127050000000  0.4853210000000  0.5798880000000 1.0
C      1  0.5150180000000  0.5156690000000  0.4209620000000 1.0
C      1  0.4827050000000  0.4846260000000  0.5797490000000 1.0
C      1  0.4852780000000  0.5161110000000  0.4207740000000 1.0
C      1  0.4780120000000  0.4080980000000  0.5287430000000 1.0
C      1  0.4784870000000  0.5918240000000  0.4716590000000 1.0
C      1  0.5217910000000  0.4079220000000  0.5294450000000 1.0
C      1  0.5216450000000  0.5872610000000  0.4749160000000 1.0
C      1  0.4792470000000  0.5900310000000  0.5273830000000 1.0
C      1  0.4781770000000  0.4084290000000  0.4710660000000 1.0
C      1  0.5241160000000  0.5964160000000  0.5297490000000 1.0
C      1  0.5218720000000  0.4085590000000  0.4712490000000 1.0
C      1  0.4540920000000  0.4136220000000  0.5147750000000 1.0
C      1  0.4541960000000  0.5857320000000  0.4856990000000 1.0
C      1  0.5459960000000  0.4146740000000  0.5152890000000 1.0
C      1  0.5476720000000  0.5864100000000  0.4854320000000 1.0
C      1  0.4552360000000  0.5847290000000  0.5149610000000 1.0
C      1  0.4540360000000  0.4144210000000  0.4852040000000 1.0
C      1  0.5482520000000  0.5890060000000  0.5151540000000 1.0
C      1  0.5460040000000  0.4149640000000  0.4854100000000 1.0
C      1  0.4778870000000  0.5278680000000  0.5135270000000 1.0
C      1  0.4612740000000  0.4845280000000  0.4891540000000 1.0
C      1  0.5418430000000  0.5163580000000  0.5163270000000 1.0
C      1  0.5389530000000  0.4861490000000  0.4840720000000 1.0
C      1  0.4614180000000  0.4760860000000  0.5164190000000 1.0
C      1  0.4640570000000  0.5186440000000  0.4882330000000 1.0
C      1  0.5404100000000  0.4833600000000  0.5151590000000 1.0
C      1  0.5385760000000  0.5194530000000  0.4827150000000 1.0
C      1  0.4380610000000  0.5158630000000  0.4332240000000 1.0
C      1  0.4366030000000  0.4856160000000  0.5695370000000 1.0
C      1  0.5627910000000  0.5146980000000  0.4258210000000 1.0
C      1  0.5595880000000  0.4858190000000  0.5722910000000 1.0
C      1  0.4380650000000  0.4862140000000  0.4305840000000 1.0
C      1  0.4357530000000  0.5150630000000  0.5662450000000 1.0
C      1  0.5618200000000  0.4848710000000  0.4265860000000 1.0
C      1  0.5590130000000  0.5152050000000  0.5698010000000 1.0
C      1  0.4599380000000  0.5315570000000  0.5675600000000 1.0
C      1  0.4623660000000  0.4696880000000  0.4302980000000 1.0
C      1  0.5338280000000  0.5314750000000  0.5634400000000 1.0
C      1  0.5373400000000  0.4686800000000  0.4289550000000 1.0
C      1  0.4604840000000  0.4680990000000  0.5699250000000 1.0
C      1  0.4625360000000  0.5318100000000  0.4313790000000 1.0
C      1  0.5357520000000  0.4685230000000  0.5707520000000 1.0
C      1  0.5389310000000  0.5318860000000  0.4290100000000 1.0
C      1  0.5589890000000  0.5684960000000  0.5324970000000 1.0
C      1  0.5566210000000  0.4354840000000  0.4677980000000 1.0
C      1  0.4427700000000  0.5652010000000  0.5322900000000 1.0
C      1  0.4432160000000  0.4348590000000  0.4676480000000 1.0
C      1  0.5565130000000  0.4350420000000  0.5330280000000 1.0
C      1  0.5595440000000  0.5666330000000  0.4668430000000 1.0
C      1  0.4429150000000  0.4321230000000  0.5333840000000 1.0
C      1  0.4425840000000  0.5661170000000  0.4685060000000 1.0
C      1  0.5803360000000  0.5148630000000  0.4496370000000 1.0
C      1  0.5800120000000  0.4847660000000  0.5505690000000 1.0
C      1  0.4214840000000  0.5135690000000  0.4578620000000 1.0
C      1  0.4180290000000  0.4828120000000  0.5467590000000 1.0
C      1  0.5798630000000  0.4851010000000  0.4501710000000 1.0
C      1  0.5804650000000  0.5146870000000  0.5497470000000 1.0
C      1  0.4200240000000  0.4843720000000  0.4544230000000 1.0
C      1  0.4168280000000  0.5123420000000  0.5426400000000 1.0
C      1  0.5136440000000  0.4747890000000  0.4736130000000 1.0
C      1  0.5213790000000  0.5282540000000  0.5346820000000 1.0
C      1  0.4849180000000  0.4728880000000  0.4766560000000 1.0
C      1  0.4980260000000  0.5438240000000  0.5274560000000 1.0
C      1  0.5143440000000  0.5337540000000  0.4737980000000 1.0
C      1  0.5156720000000  0.4690540000000  0.5246740000000 1.0
C      1  0.4895400000000  0.5193220000000  0.4712730000000 1.0
C      1  0.4862530000000  0.4686360000000  0.5283390000000 1.0
C      1  0.5371080000000  0.4448580000000  0.4461270000000 1.0
C      1  0.5405600000000  0.5616280000000  0.5548900000000 1.0
C      1  0.4627320000000  0.4451210000000  0.4465990000000 1.0
C      1  0.4609530000000  0.5561030000000  0.5529800000000 1.0
C      1  0.5405230000000  0.5549700000000  0.4466180000000 1.0
C      1  0.5365560000000  0.4441620000000  0.5545830000000 1.0
C      1  0.4617840000000  0.5565330000000  0.4472830000000 1.0
C      1  0.4614710000000  0.4427400000000  0.5545960000000 1.0
C      1  0.5756590000000  0.5511230000000  0.5151680000000 1.0
C      1  0.5746170000000  0.4504240000000  0.4854050000000 1.0
C      1  0.4220480000000  0.5523700000000  0.5153060000000 1.0
C      1  0.4246290000000  0.4480250000000  0.4862310000000 1.0
C      1  0.5754370000000  0.4490160000000  0.5154520000000 1.0
C      1  0.5763910000000  0.5510570000000  0.4852810000000 1.0
C      1  0.4242490000000  0.4458840000000  0.5159510000000 1.0
C      1  0.4240450000000  0.5512900000000  0.4851850000000 1.0
C      1  0.5136870000000  0.5626700000000  0.4590510000000 1.0
C      1  0.5142370000000  0.4260920000000  0.5512300000000 1.0
C      1  0.4849100000000  0.5721940000000  0.4517380000000 1.0
C      1  0.4845780000000  0.4258260000000  0.5509420000000 1.0
C      1  0.5146870000000  0.4271280000000  0.4496720000000 1.0
C      1  0.5182900000000  0.5784080000000  0.5517240000000 1.0
C      1  0.4850930000000  0.4271920000000  0.4496200000000 1.0
C      1  0.4880330000000  0.5690240000000  0.5452750000000 1.0
C      1  0.4305740000000  0.5225100000000  0.4849320000000 1.0
C      1  0.4334090000000  0.4722250000000  0.5242050000000 1.0
C      1  0.5677520000000  0.5257860000000  0.4739060000000 1.0
C      1  0.5687960000000  0.4752150000000  0.5253600000000 1.0
C      1  0.4329150000000  0.4744030000000  0.4784440000000 1.0
C      1  0.4162510000000  0.5247380000000  0.5166760000000 1.0
C      1  0.5669130000000  0.4761890000000  0.4748290000000 1.0
C      1  0.5702440000000  0.5242200000000  0.5240480000000 1.0
C      1  0.5004890000000  0.6004940000000  0.4863320000000 1.0
C      1  0.5000090000000  0.6028160000000  0.5143810000000 1.0
C      1  0.4997950000000  0.3984620000000  0.5139980000000 1.0
C      1  0.4999360000000  0.3987340000000  0.4858600000000 1.0
C      1  0.5011610000000  0.4909640000000  0.5311690000000 1.0
C      1  0.4959030000000  0.4925970000000  0.4622150000000 1.0
C      1  0.4966560000000  0.5069160000000  0.5105300000000 1.0
END
