TITL C-2441164-471-1315 0.103743810312654 125000 -23725.5032049773 0 0 177 (C1) n - 1
REM
REM in /home/bkarasulu/work/CARBON/AIRSS/Generating-Clusters/ReaxFF-fromJPCA2015/Units_Real/with-SteepDescent/Higher-Symm
REM
REM
REM
REM
REM
REM ./C.cell (1df0a924f5614ab8850e4351716899ee)
REM
REM compiler GCC version 9.2.1 20190827 (Red Hat 9.2.1-1)
REM options -cpp -mtune=generic -march=x86-64 -g -O0 -fpre-include=/usr/include/finclude/math-vector-fortran.h
REM seed 745052778 -424799518 -1127238676 1929081987 -1797887286 52830593 -36681331 468146724 2084864950 -1245237717 1806088267 -1730939679 1401518410 -879291187 -213846473 -1890212369 1665072818 154429437 319912628 1813586076 -1929934992 1623113133 -1623578151 1716410591 -1390809849 -1001912970 803844700 -1609189031 -99815173 -364984401 1932598519 -1523781276 -1493627536
REM
CELL 1.54180   50.00000   50.00000   50.00000   90.00000   90.00000   90.00000
LATT -1
SFAC C  
C      1  0.6001990000000  0.4725690000000  0.4930790000000 1.0
C      1  0.6005540000000  0.5070350000000  0.5276980000000 1.0
C      1  0.5997480000000  0.5194900000000  0.4803680000000 1.0
C      1  0.3994930000000  0.4722180000000  0.4929300000000 1.0
C      1  0.3995440000000  0.5073490000000  0.5267420000000 1.0
C      1  0.3999300000000  0.5191830000000  0.4797190000000 1.0
C      1  0.5536840000000  0.4240910000000  0.5528750000000 1.0
C      1  0.5538150000000  0.5832110000000  0.5402470000000 1.0
C      1  0.5544260000000  0.4926300000000  0.4071230000000 1.0
C      1  0.4465320000000  0.4246170000000  0.5526160000000 1.0
C      1  0.4459790000000  0.5836880000000  0.5400300000000 1.0
C      1  0.4460780000000  0.4928930000000  0.4066610000000 1.0
C      1  0.3992230000000  0.4799130000000  0.5199210000000 1.0
C      1  0.3986480000000  0.5270880000000  0.5067960000000 1.0
C      1  0.3983340000000  0.4920480000000  0.4727810000000 1.0
C      1  0.6002690000000  0.4799340000000  0.5201770000000 1.0
C      1  0.6002560000000  0.5265960000000  0.5076250000000 1.0
C      1  0.6010860000000  0.4925360000000  0.4730160000000 1.0
C      1  0.4341920000000  0.5313610000000  0.4176610000000 1.0
C      1  0.4367080000000  0.4130840000000  0.5131010000000 1.0
C      1  0.4346200000000  0.5544050000000  0.5675780000000 1.0
C      1  0.5650070000000  0.5318790000000  0.4185160000000 1.0
C      1  0.5658380000000  0.4133900000000  0.5140030000000 1.0
C      1  0.5650790000000  0.5548610000000  0.5696460000000 1.0
C      1  0.5552570000000  0.4884300000000  0.5533670000000 1.0
C      1  0.5516580000000  0.5550280000000  0.4811860000000 1.0
C      1  0.5553300000000  0.4591190000000  0.4645760000000 1.0
C      1  0.4483160000000  0.4902190000000  0.5575200000000 1.0
C      1  0.4449690000000  0.5524550000000  0.4827750000000 1.0
C      1  0.4440160000000  0.4606610000000  0.4633960000000 1.0
C      1  0.5148660000000  0.4787260000000  0.4115330000000 1.0
C      1  0.5144340000000  0.4325870000000  0.5633630000000 1.0
C      1  0.5147010000000  0.5852370000000  0.5250670000000 1.0
C      1  0.4863050000000  0.4782180000000  0.4102690000000 1.0
C      1  0.4856530000000  0.4343410000000  0.5612590000000 1.0
C      1  0.4859600000000  0.5864230000000  0.5259460000000 1.0
C      1  0.4780890000000  0.5605980000000  0.5356130000000 1.0
C      1  0.4787900000000  0.4988920000000  0.4277650000000 1.0
C      1  0.4783560000000  0.4405770000000  0.5345090000000 1.0
C      1  0.5224440000000  0.5594350000000  0.5344420000000 1.0
C      1  0.5218920000000  0.4988900000000  0.4305220000000 1.0
C      1  0.5210620000000  0.4400050000000  0.5367110000000 1.0
C      1  0.4088550000000  0.4465660000000  0.4827160000000 1.0
C      1  0.4097520000000  0.5127480000000  0.5533790000000 1.0
C      1  0.4083480000000  0.5404050000000  0.4619930000000 1.0
C      1  0.5914060000000  0.4467290000000  0.4835230000000 1.0
C      1  0.5929930000000  0.5110040000000  0.5555300000000 1.0
C      1  0.5898710000000  0.5403760000000  0.4625960000000 1.0
C      1  0.5148960000000  0.4291190000000  0.5112970000000 1.0
C      1  0.5149990000000  0.5451270000000  0.5574140000000 1.0
C      1  0.5148060000000  0.5263010000000  0.4342950000000 1.0
C      1  0.4860310000000  0.4304520000000  0.5102640000000 1.0
C      1  0.4861400000000  0.5442880000000  0.5572090000000 1.0
C      1  0.4854570000000  0.5259180000000  0.4329380000000 1.0
C      1  0.4702750000000  0.4499340000000  0.5806250000000 1.0
C      1  0.4711490000000  0.5950780000000  0.5022790000000 1.0
C      1  0.4715220000000  0.4533200000000  0.4161750000000 1.0
C      1  0.5291270000000  0.4498920000000  0.5826040000000 1.0
C      1  0.5293340000000  0.5945640000000  0.5013280000000 1.0
C      1  0.5290720000000  0.4536770000000  0.4168760000000 1.0
C      1  0.4790310000000  0.5399170000000  0.4075350000000 1.0
C      1  0.4825170000000  0.4011520000000  0.5122470000000 1.0
C      1  0.4794620000000  0.5595330000000  0.5797910000000 1.0
C      1  0.5185040000000  0.5393180000000  0.4073910000000 1.0
C      1  0.5189420000000  0.3989810000000  0.5124880000000 1.0
C      1  0.5179050000000  0.5619100000000  0.5820370000000 1.0
C      1  0.4407800000000  0.4697160000000  0.5400610000000 1.0
C      1  0.4383200000000  0.5451720000000  0.5104270000000 1.0
C      1  0.4389610000000  0.4872510000000  0.4528830000000 1.0
C      1  0.5576660000000  0.4663430000000  0.5345410000000 1.0
C      1  0.5571010000000  0.5476210000000  0.5073480000000 1.0
C      1  0.5593570000000  0.4866650000000  0.4569110000000 1.0
C      1  0.5148140000000  0.4727720000000  0.5931830000000 1.0
C      1  0.5150820000000  0.5937960000000  0.4754280000000 1.0
C      1  0.5135870000000  0.4321300000000  0.4315460000000 1.0
C      1  0.4869710000000  0.4736000000000  0.5917500000000 1.0
C      1  0.4865730000000  0.5934810000000  0.4762970000000 1.0
C      1  0.4856850000000  0.4322430000000  0.4311970000000 1.0
C      1  0.5341850000000  0.5146640000000  0.4867550000000 1.0
C      1  0.5378260000000  0.4784150000000  0.5015910000000 1.0
C      1  0.5488800000000  0.5042040000000  0.5086440000000 1.0
C      1  0.4604090000000  0.5094370000000  0.4796520000000 1.0
C      1  0.4475710000000  0.4913990000000  0.4977420000000 1.0
C      1  0.4658760000000  0.5024170000000  0.5179330000000 1.0
C      1  0.5293790000000  0.4862990000000  0.4537680000000 1.0
C      1  0.5257240000000  0.4669710000000  0.5375660000000 1.0
C      1  0.5315390000000  0.5400220000000  0.5193040000000 1.0
C      1  0.4691240000000  0.4867710000000  0.4487650000000 1.0
C      1  0.4657230000000  0.4623760000000  0.5283800000000 1.0
C      1  0.4665370000000  0.5460320000000  0.5160500000000 1.0
C      1  0.4504960000000  0.4603540000000  0.4910280000000 1.0
C      1  0.4564510000000  0.5121560000000  0.5447730000000 1.0
C      1  0.4521060000000  0.5323830000000  0.4661770000000 1.0
C      1  0.5483630000000  0.4549600000000  0.4893050000000 1.0
C      1  0.5521050000000  0.5131430000000  0.5406850000000 1.0
C      1  0.5442990000000  0.5337540000000  0.4675120000000 1.0
C      1  0.4426580000000  0.4332290000000  0.4475880000000 1.0
C      1  0.4423740000000  0.4918330000000  0.5848250000000 1.0
C      1  0.4427820000000  0.5754280000000  0.4663070000000 1.0
C      1  0.5569110000000  0.4338890000000  0.4502690000000 1.0
C      1  0.5574620000000  0.4884520000000  0.5834960000000 1.0
C      1  0.5575830000000  0.5794480000000  0.4673040000000 1.0
C      1  0.5186680000000  0.5446340000000  0.4605220000000 1.0
C      1  0.5215890000000  0.4410520000000  0.4813570000000 1.0
C      1  0.5253570000000  0.5150360000000  0.5611540000000 1.0
C      1  0.4779890000000  0.5454840000000  0.4578170000000 1.0
C      1  0.4804110000000  0.4467960000000  0.4806410000000 1.0
C      1  0.4817190000000  0.5138910000000  0.5594330000000 1.0
C      1  0.5725550000000  0.5317270000000  0.5527440000000 1.0
C      1  0.5689760000000  0.5274750000000  0.4470060000000 1.0
C      1  0.5713700000000  0.4403030000000  0.5039550000000 1.0
C      1  0.4314220000000  0.5316530000000  0.5489150000000 1.0
C      1  0.4285880000000  0.5263260000000  0.4463030000000 1.0
C      1  0.4302210000000  0.4392790000000  0.5010720000000 1.0
C      1  0.4836150000000  0.4993450000000  0.4695600000000 1.0
C      1  0.4836200000000  0.4792240000000  0.5134350000000 1.0
C      1  0.4874010000000  0.5278750000000  0.5047290000000 1.0
C      1  0.5119260000000  0.4969140000000  0.4754440000000 1.0
C      1  0.5124750000000  0.4740780000000  0.5135630000000 1.0
C      1  0.5109900000000  0.5190840000000  0.5202020000000 1.0
C      1  0.5868830000000  0.4650110000000  0.5412360000000 1.0
C      1  0.5863290000000  0.5518290000000  0.5100960000000 1.0
C      1  0.5881100000000  0.4818690000000  0.4494240000000 1.0
C      1  0.4117980000000  0.4653040000000  0.5416680000000 1.0
C      1  0.4097070000000  0.5536690000000  0.5094500000000 1.0
C      1  0.4102510000000  0.4813320000000  0.4486780000000 1.0
C      1  0.5570210000000  0.3966940000000  0.4887620000000 1.0
C      1  0.5556940000000  0.5416100000000  0.5960940000000 1.0
C      1  0.5557390000000  0.5621380000000  0.4160490000000 1.0
C      1  0.4454520000000  0.3971190000000  0.4878590000000 1.0
C      1  0.4409460000000  0.5430730000000  0.5934170000000 1.0
C      1  0.4406540000000  0.5593390000000  0.4160580000000 1.0
C      1  0.4571500000000  0.4070720000000  0.5323990000000 1.0
C      1  0.4559700000000  0.5744760000000  0.5657610000000 1.0
C      1  0.4562380000000  0.5199040000000  0.4019450000000 1.0
C      1  0.5451250000000  0.4065780000000  0.5326180000000 1.0
C      1  0.5441240000000  0.5743160000000  0.5658410000000 1.0
C      1  0.5444150000000  0.5192520000000  0.4026260000000 1.0
C      1  0.5766550000000  0.5862350000000  0.4893760000000 1.0
C      1  0.5761440000000  0.4468730000000  0.4312390000000 1.0
C      1  0.5765110000000  0.4658270000000  0.5810860000000 1.0
C      1  0.4245320000000  0.5854890000000  0.4872880000000 1.0
C      1  0.4236090000000  0.4471390000000  0.4299200000000 1.0
C      1  0.4240340000000  0.4687410000000  0.5811430000000 1.0
C      1  0.4074870000000  0.4843020000000  0.5631930000000 1.0
C      1  0.4068950000000  0.5626190000000  0.4821730000000 1.0
C      1  0.4059250000000  0.4525480000000  0.4529150000000 1.0
C      1  0.5932730000000  0.4822190000000  0.5636590000000 1.0
C      1  0.5914560000000  0.5621580000000  0.4836300000000 1.0
C      1  0.5927720000000  0.4537660000000  0.4542910000000 1.0
C      1  0.5264300000000  0.5647750000000  0.4186210000000 1.0
C      1  0.5281080000000  0.3956780000000  0.4852450000000 1.0
C      1  0.5262510000000  0.5388580000000  0.5976770000000 1.0
C      1  0.4676220000000  0.5656960000000  0.4182010000000 1.0
C      1  0.4745170000000  0.3985740000000  0.4843000000000 1.0
C      1  0.4682470000000  0.5382650000000  0.5975910000000 1.0
C      1  0.4427710000000  0.4448120000000  0.5739010000000 1.0
C      1  0.4438180000000  0.5911120000000  0.5113550000000 1.0
C      1  0.4440630000000  0.4642960000000  0.4143100000000 1.0
C      1  0.5568450000000  0.4436760000000  0.5740590000000 1.0
C      1  0.5566580000000  0.5912200000000  0.5115240000000 1.0
C      1  0.5562690000000  0.4637360000000  0.4155550000000 1.0
C      1  0.4459540000000  0.5758330000000  0.4370770000000 1.0
C      1  0.4410850000000  0.4111880000000  0.4645230000000 1.0
C      1  0.4466210000000  0.5171450000000  0.5987600000000 1.0
C      1  0.5589110000000  0.5764890000000  0.4394660000000 1.0
C      1  0.5574670000000  0.4089430000000  0.4636030000000 1.0
C      1  0.5590080000000  0.5140600000000  0.5945370000000 1.0
C      1  0.4843270000000  0.4201250000000  0.4633190000000 1.0
C      1  0.4872740000000  0.5033870000000  0.5879360000000 1.0
C      1  0.4856960000000  0.5756650000000  0.4521600000000 1.0
C      1  0.5139690000000  0.4188440000000  0.4597100000000 1.0
C      1  0.5166450000000  0.5089420000000  0.5900760000000 1.0
C      1  0.5151770000000  0.5738160000000  0.4498160000000 1.0
C      1  0.5065010000000  0.5012290000000  0.5433080000000 1.0
C      1  0.4965460000000  0.5412090000000  0.4797790000000 1.0
C      1  0.5033850000000  0.4627060000000  0.4735900000000 1.0
END
