TITL C-2441169-1362-34 0.00240751013373449 125000 -10680.5154845777 0 0 71 (C1) n - 1
REM
REM in /home/bkarasulu/work/CARBON/AIRSS/Generating-Clusters/ReaxFF-fromJPCA2015/Units_Real/with-SteepDescent/Higher-Symm
REM
REM
REM
REM
REM
REM ./C.cell (1df0a924f5614ab8850e4351716899ee)
REM
REM compiler GCC version 9.2.1 20190827 (Red Hat 9.2.1-1)
REM options -cpp -mtune=generic -march=x86-64 -g -O0 -fpre-include=/usr/include/finclude/math-vector-fortran.h
REM seed -416168660 1801230350 -1058969268 408665165 -1941960813 -928490534 2122840342 -773804670 1851094148 -862314832 -612784905 619198654 -631568893 643500068 -297713579 1364966192 1762872541 -915118137 42882448 220198740 -1531323130 1183313832 -62407152 1186080466 1953503276 562602908 621316824 1764958871 -1126926047 -1925374046 1445971046 2013667719 -2034735753
REM
CELL 1.54180   50.00000   50.00000   50.00000   90.00000   90.00000   90.00000
LATT -1
SFAC C  
C      1  0.5466530000000  0.5270870000000  0.4878750000000 1.0
C      1  0.5002420000000  0.4458270000000  0.4881720000000 1.0
C      1  0.4529810000000  0.5265610000000  0.4878410000000 1.0
C      1  0.5468130000000  0.4723870000000  0.5142500000000 1.0
C      1  0.5002780000000  0.5541810000000  0.5141930000000 1.0
C      1  0.4529610000000  0.4733910000000  0.5146970000000 1.0
C      1  0.4813690000000  0.5199680000000  0.4873350000000 1.0
C      1  0.5266450000000  0.5058240000000  0.4872020000000 1.0
C      1  0.4922770000000  0.4738760000000  0.4885080000000 1.0
C      1  0.4814080000000  0.4799380000000  0.5151750000000 1.0
C      1  0.5264530000000  0.4933350000000  0.5139300000000 1.0
C      1  0.4922550000000  0.5260880000000  0.5139670000000 1.0
C      1  0.4451760000000  0.5448240000000  0.5111500000000 1.0
C      1  0.5659380000000  0.5245090000000  0.5115890000000 1.0
C      1  0.4883240000000  0.4301400000000  0.5115720000000 1.0
C      1  0.4452700000000  0.4550730000000  0.4913750000000 1.0
C      1  0.5662460000000  0.4751370000000  0.4907580000000 1.0
C      1  0.4881690000000  0.5699300000000  0.4909500000000 1.0
C      1  0.4172440000000  0.5022900000000  0.5140650000000 1.0
C      1  0.5428890000000  0.5700360000000  0.5143040000000 1.0
C      1  0.5389260000000  0.4275300000000  0.5139320000000 1.0
C      1  0.4173030000000  0.4975610000000  0.4884780000000 1.0
C      1  0.5429320000000  0.4297830000000  0.4882490000000 1.0
C      1  0.5389100000000  0.5723450000000  0.4886540000000 1.0
C      1  0.5359440000000  0.5194880000000  0.4444490000000 1.0
C      1  0.4986460000000  0.4594970000000  0.4446300000000 1.0
C      1  0.4649210000000  0.5214200000000  0.4444570000000 1.0
C      1  0.5358410000000  0.4804660000000  0.5580190000000 1.0
C      1  0.4984270000000  0.5404430000000  0.5578190000000 1.0
C      1  0.4649370000000  0.4785990000000  0.5580860000000 1.0
C      1  0.5100400000000  0.4877970000000  0.4071110000000 1.0
C      1  0.4838290000000  0.4966370000000  0.4064620000000 1.0
C      1  0.5056560000000  0.5151050000000  0.4064400000000 1.0
C      1  0.5098590000000  0.5122890000000  0.5954440000000 1.0
C      1  0.4836610000000  0.5034140000000  0.5961500000000 1.0
C      1  0.5055320000000  0.4849680000000  0.5961700000000 1.0
C      1  0.4680150000000  0.4954460000000  0.4310210000000 1.0
C      1  0.5118340000000  0.5296900000000  0.4310020000000 1.0
C      1  0.5189480000000  0.4755250000000  0.4311600000000 1.0
C      1  0.4678530000000  0.5045620000000  0.5715860000000 1.0
C      1  0.5118010000000  0.4703300000000  0.5716610000000 1.0
C      1  0.5187220000000  0.5244350000000  0.5713170000000 1.0
C      1  0.4707620000000  0.4704550000000  0.4467240000000 1.0
C      1  0.4887800000000  0.5398330000000  0.4465320000000 1.0
C      1  0.5395770000000  0.4896870000000  0.4464440000000 1.0
C      1  0.4705210000000  0.5295290000000  0.5558340000000 1.0
C      1  0.4888240000000  0.4602130000000  0.5560370000000 1.0
C      1  0.5392970000000  0.5102330000000  0.5559710000000 1.0
C      1  0.5275850000000  0.4345690000000  0.5384270000000 1.0
C      1  0.4289760000000  0.5088750000000  0.5384710000000 1.0
C      1  0.5424300000000  0.5563700000000  0.5386220000000 1.0
C      1  0.5275140000000  0.5654460000000  0.4641600000000 1.0
C      1  0.4291190000000  0.4909980000000  0.4641070000000 1.0
C      1  0.5426070000000  0.4435200000000  0.4639310000000 1.0
C      1  0.5127640000000  0.4405000000000  0.4618180000000 1.0
C      1  0.4414540000000  0.5183670000000  0.4617880000000 1.0
C      1  0.5452250000000  0.5412190000000  0.4618570000000 1.0
C      1  0.5125750000000  0.5594520000000  0.5406460000000 1.0
C      1  0.4414330000000  0.4815460000000  0.5407690000000 1.0
C      1  0.5452330000000  0.4588180000000  0.5405740000000 1.0
C      1  0.5530030000000  0.5287550000000  0.5382050000000 1.0
C      1  0.4983670000000  0.4391900000000  0.5382410000000 1.0
C      1  0.4475790000000  0.5318430000000  0.5379940000000 1.0
C      1  0.5532940000000  0.4711130000000  0.4641110000000 1.0
C      1  0.4982870000000  0.5608890000000  0.4642910000000 1.0
C      1  0.4478030000000  0.4680810000000  0.4645530000000 1.0
C      1  0.4623570000000  0.5648050000000  0.5011070000000 1.0
C      1  0.4624460000000  0.4351410000000  0.5015090000000 1.0
C      1  0.5749670000000  0.4998560000000  0.5012590000000 1.0
C      1  0.5001190000000  0.5000660000000  0.5253570000000 1.0
C      1  0.4998420000000  0.4998280000000  0.4766930000000 1.0
END
