TITL C-2441167-4473-598 0.130922811031472 125000 -20527.3439954205 0 0 159 (C1) n - 1
REM
REM in /home/bkarasulu/work/CARBON/AIRSS/Generating-Clusters/ReaxFF-fromJPCA2015/Units_Real/with-SteepDescent/Higher-Symm
REM
REM
REM
REM
REM
REM ./C.cell (1df0a924f5614ab8850e4351716899ee)
REM
REM compiler GCC version 9.2.1 20190827 (Red Hat 9.2.1-1)
REM options -cpp -mtune=generic -march=x86-64 -g -O0 -fpre-include=/usr/include/finclude/math-vector-fortran.h
REM seed -1465029921 -1766137040 -530354916 1891166099 -859395290 1259332017 1428336439 -1076323969 -442750377 -1254845339 424265011 -1549969435 -194033913 -201399786 400020006 -1303693392 1097376610 -1214979521 -1697698789 846019477 500102050 1892807380 -1393918124 -1284129073 -1509023359 1645512575 -1192333505 -1556850092 -1385132527 -740502775 -1157649979 1590469278 -1895698845
REM
CELL 1.54180   50.00000   50.00000   50.00000   90.00000   90.00000   90.00000
LATT -1
SFAC C  
C      1  0.4186260000000  0.5195450000000  0.5710610000000 1.0
C      1  0.5830960000000  0.4837680000000  0.4315920000000 1.0
C      1  0.4427900000000  0.5286540000000  0.5825140000000 1.0
C      1  0.5625060000000  0.4725790000000  0.4141700000000 1.0
C      1  0.5612220000000  0.5525720000000  0.4884990000000 1.0
C      1  0.4365420000000  0.4479440000000  0.5148480000000 1.0
C      1  0.5405890000000  0.4641700000000  0.5690480000000 1.0
C      1  0.4594210000000  0.5343310000000  0.4290090000000 1.0
C      1  0.4483100000000  0.4553250000000  0.5651920000000 1.0
C      1  0.5520460000000  0.5466090000000  0.4376600000000 1.0
C      1  0.4259910000000  0.5413620000000  0.5279500000000 1.0
C      1  0.5716130000000  0.4517930000000  0.4667140000000 1.0
C      1  0.4676090000000  0.5029250000000  0.4940310000000 1.0
C      1  0.5321230000000  0.4945080000000  0.5038470000000 1.0
C      1  0.4776220000000  0.4697430000000  0.5273600000000 1.0
C      1  0.5225640000000  0.5317230000000  0.4740240000000 1.0
C      1  0.5597740000000  0.4250260000000  0.5282060000000 1.0
C      1  0.4390880000000  0.5761150000000  0.4717890000000 1.0
C      1  0.4407040000000  0.4639270000000  0.4215260000000 1.0
C      1  0.5648200000000  0.5324750000000  0.5784100000000 1.0
C      1  0.4882440000000  0.5430710000000  0.5745890000000 1.0
C      1  0.5121870000000  0.4595170000000  0.4222940000000 1.0
C      1  0.4349850000000  0.4929650000000  0.5222370000000 1.0
C      1  0.5649340000000  0.5060880000000  0.4788320000000 1.0
C      1  0.4493170000000  0.5048270000000  0.5427220000000 1.0
C      1  0.5496310000000  0.4961100000000  0.4570960000000 1.0
C      1  0.4313130000000  0.5792330000000  0.5013460000000 1.0
C      1  0.5669700000000  0.4199840000000  0.4987230000000 1.0
C      1  0.5018210000000  0.4426350000000  0.5865230000000 1.0
C      1  0.4986390000000  0.5568570000000  0.4132470000000 1.0
C      1  0.5243580000000  0.5877160000000  0.4762950000000 1.0
C      1  0.4740670000000  0.4138820000000  0.5242400000000 1.0
C      1  0.5119710000000  0.4766310000000  0.4904280000000 1.0
C      1  0.4920280000000  0.5328880000000  0.5011960000000 1.0
C      1  0.4886530000000  0.4372640000000  0.4214070000000 1.0
C      1  0.5073540000000  0.5689600000000  0.5736820000000 1.0
C      1  0.5849840000000  0.5449490000000  0.5062080000000 1.0
C      1  0.4124350000000  0.4559840000000  0.4934270000000 1.0
C      1  0.4329490000000  0.5218050000000  0.4194310000000 1.0
C      1  0.5678450000000  0.4755390000000  0.5799900000000 1.0
C      1  0.6017320000000  0.4894580000000  0.4761660000000 1.0
C      1  0.3986450000000  0.5112080000000  0.5254360000000 1.0
C      1  0.5056810000000  0.4626760000000  0.5273290000000 1.0
C      1  0.4936070000000  0.5382010000000  0.4733090000000 1.0
C      1  0.5222060000000  0.5678480000000  0.5147280000000 1.0
C      1  0.4761450000000  0.4286910000000  0.4833660000000 1.0
C      1  0.4297520000000  0.4490640000000  0.4715420000000 1.0
C      1  0.5696800000000  0.5507340000000  0.5300490000000 1.0
C      1  0.5248540000000  0.3948570000000  0.4851560000000 1.0
C      1  0.4737710000000  0.6016200000000  0.5185770000000 1.0
C      1  0.5947150000000  0.5166100000000  0.4768770000000 1.0
C      1  0.4051220000000  0.4839240000000  0.5234830000000 1.0
C      1  0.5204620000000  0.4341010000000  0.5027340000000 1.0
C      1  0.4776840000000  0.5687700000000  0.4972840000000 1.0
C      1  0.5816470000000  0.4643050000000  0.5591970000000 1.0
C      1  0.4186120000000  0.5366430000000  0.4381750000000 1.0
C      1  0.5507890000000  0.4996890000000  0.4093560000000 1.0
C      1  0.4508440000000  0.4892560000000  0.5863670000000 1.0
C      1  0.4536600000000  0.5307980000000  0.4612520000000 1.0
C      1  0.5434060000000  0.4692870000000  0.5393320000000 1.0
C      1  0.5444110000000  0.4553880000000  0.4317140000000 1.0
C      1  0.4570370000000  0.5470850000000  0.5646400000000 1.0
C      1  0.4549330000000  0.5336600000000  0.5366250000000 1.0
C      1  0.5432170000000  0.4677840000000  0.4610910000000 1.0
C      1  0.4820440000000  0.5189440000000  0.4248160000000 1.0
C      1  0.5174440000000  0.4786800000000  0.5778430000000 1.0
C      1  0.4969390000000  0.6006300000000  0.5367810000000 1.0
C      1  0.5029460000000  0.3980160000000  0.4631370000000 1.0
C      1  0.5069670000000  0.5714020000000  0.4921280000000 1.0
C      1  0.4905570000000  0.4302900000000  0.5073570000000 1.0
C      1  0.4743390000000  0.5605180000000  0.4275920000000 1.0
C      1  0.5259980000000  0.4380070000000  0.5708580000000 1.0
C      1  0.5118950000000  0.4144440000000  0.4422910000000 1.0
C      1  0.4911010000000  0.5933800000000  0.5658840000000 1.0
C      1  0.5607400000000  0.4925140000000  0.5025530000000 1.0
C      1  0.4399400000000  0.5027670000000  0.4964220000000 1.0
C      1  0.5653560000000  0.5078940000000  0.4350770000000 1.0
C      1  0.4325220000000  0.4938240000000  0.5643660000000 1.0
C      1  0.4186160000000  0.4855410000000  0.4503190000000 1.0
C      1  0.5845360000000  0.5123930000000  0.5475920000000 1.0
C      1  0.5278340000000  0.5771100000000  0.5553090000000 1.0
C      1  0.4731350000000  0.4253660000000  0.4430570000000 1.0
C      1  0.5980320000000  0.5182890000000  0.5055450000000 1.0
C      1  0.4009620000000  0.4826640000000  0.4943880000000 1.0
C      1  0.5188870000000  0.4516020000000  0.4774520000000 1.0
C      1  0.4813380000000  0.5500680000000  0.5217830000000 1.0
C      1  0.4882130000000  0.4452340000000  0.4628690000000 1.0
C      1  0.5116320000000  0.5532640000000  0.5365750000000 1.0
C      1  0.5209860000000  0.4037250000000  0.5124000000000 1.0
C      1  0.4775350000000  0.5983740000000  0.4895670000000 1.0
C      1  0.4760260000000  0.5136250000000  0.4698760000000 1.0
C      1  0.5226550000000  0.4863270000000  0.5307000000000 1.0
C      1  0.4837660000000  0.5648360000000  0.4544140000000 1.0
C      1  0.5137640000000  0.4371560000000  0.5447680000000 1.0
C      1  0.4051500000000  0.5299940000000  0.5452430000000 1.0
C      1  0.5935950000000  0.4710340000000  0.4564210000000 1.0
C      1  0.4912330000000  0.4681840000000  0.5776480000000 1.0
C      1  0.5093180000000  0.5282910000000  0.4209160000000 1.0
C      1  0.4107280000000  0.5362740000000  0.4789260000000 1.0
C      1  0.5895050000000  0.4615200000000  0.5183420000000 1.0
C      1  0.4801640000000  0.4784820000000  0.4004720000000 1.0
C      1  0.5191340000000  0.5247020000000  0.5982480000000 1.0
C      1  0.5288260000000  0.5315670000000  0.4462570000000 1.0
C      1  0.4720800000000  0.4691940000000  0.5560110000000 1.0
C      1  0.4503240000000  0.4077460000000  0.5593650000000 1.0
C      1  0.5484260000000  0.5939800000000  0.4418770000000 1.0
C      1  0.5056110000000  0.4830110000000  0.4391180000000 1.0
C      1  0.4947790000000  0.5167270000000  0.5608470000000 1.0
C      1  0.5487500000000  0.4082200000000  0.4776200000000 1.0
C      1  0.4487180000000  0.5867390000000  0.5240800000000 1.0
C      1  0.4314740000000  0.4179270000000  0.5406120000000 1.0
C      1  0.5671250000000  0.5851870000000  0.4630060000000 1.0
C      1  0.4806040000000  0.4914650000000  0.4274640000000 1.0
C      1  0.5150710000000  0.5057070000000  0.5765460000000 1.0
C      1  0.4336760000000  0.4932640000000  0.4273000000000 1.0
C      1  0.5708230000000  0.5031580000000  0.5708950000000 1.0
C      1  0.5451700000000  0.4493040000000  0.5187520000000 1.0
C      1  0.4537500000000  0.5516740000000  0.4805600000000 1.0
C      1  0.5092940000000  0.4796900000000  0.3985890000000 1.0
C      1  0.4898130000000  0.5260600000000  0.6004240000000 1.0
C      1  0.4633020000000  0.5891850000000  0.5670570000000 1.0
C      1  0.5399390000000  0.4136050000000  0.4490220000000 1.0
C      1  0.4747860000000  0.4061510000000  0.4652400000000 1.0
C      1  0.5243160000000  0.5925320000000  0.5306380000000 1.0
C      1  0.4972330000000  0.4869090000000  0.4665990000000 1.0
C      1  0.5021050000000  0.5073900000000  0.5362350000000 1.0
C      1  0.5818220000000  0.4446810000000  0.4956010000000 1.0
C      1  0.4176290000000  0.5530260000000  0.5023290000000 1.0
C      1  0.5363320000000  0.5392780000000  0.5784880000000 1.0
C      1  0.4666170000000  0.4547240000000  0.4105520000000 1.0
C      1  0.5435050000000  0.5719380000000  0.4229680000000 1.0
C      1  0.4567250000000  0.4292730000000  0.5783550000000 1.0
C      1  0.5695630000000  0.5556700000000  0.4602450000000 1.0
C      1  0.4306940000000  0.4465320000000  0.5434250000000 1.0
C      1  0.4163170000000  0.5551430000000  0.4586920000000 1.0
C      1  0.5841880000000  0.4444660000000  0.5403630000000 1.0
C      1  0.5513510000000  0.5814150000000  0.4871730000000 1.0
C      1  0.4465560000000  0.4192810000000  0.5165940000000 1.0
C      1  0.4713290000000  0.5041830000000  0.5962310000000 1.0
C      1  0.5231120000000  0.5046500000000  0.4037860000000 1.0
C      1  0.5839960000000  0.4953520000000  0.5207890000000 1.0
C      1  0.4162160000000  0.5030090000000  0.4767730000000 1.0
C      1  0.5301670000000  0.4142160000000  0.5378960000000 1.0
C      1  0.4685020000000  0.5870800000000  0.4639480000000 1.0
C      1  0.5603660000000  0.4334090000000  0.4447410000000 1.0
C      1  0.4457680000000  0.5756020000000  0.5514290000000 1.0
C      1  0.5811760000000  0.5407730000000  0.5550550000000 1.0
C      1  0.4224170000000  0.4566950000000  0.4440000000000 1.0
C      1  0.4537260000000  0.4650800000000  0.4791650000000 1.0
C      1  0.5462300000000  0.5332120000000  0.5251740000000 1.0
C      1  0.5198410000000  0.5947060000000  0.4481780000000 1.0
C      1  0.4787200000000  0.4058160000000  0.5522330000000 1.0
C      1  0.5148870000000  0.5786020000000  0.4221670000000 1.0
C      1  0.4847260000000  0.4207890000000  0.5779390000000 1.0
C      1  0.5347400000000  0.5243350000000  0.4998390000000 1.0
C      1  0.4588910000000  0.4636550000000  0.5062820000000 1.0
C      1  0.5297440000000  0.5337800000000  0.5487250000000 1.0
C      1  0.4740630000000  0.4701190000000  0.4606330000000 1.0
C      1  0.4879420000000  0.5088710000000  0.5116710000000 1.0
END
