TITL C-2441157-2117-994 0.0543747566368412 125000 -13987.603690418 0 0 105 (C1) n - 1
REM
REM in /home/bkarasulu/work/CARBON/AIRSS/Generating-Clusters/ReaxFF-fromJPCA2015/Units_Real/with-SteepDescent/Higher-Symm
REM
REM
REM
REM
REM
REM ./C.cell (1df0a924f5614ab8850e4351716899ee)
REM
REM compiler GCC version 9.2.1 20190827 (Red Hat 9.2.1-1)
REM options -cpp -mtune=generic -march=x86-64 -g -O0 -fpre-include=/usr/include/finclude/math-vector-fortran.h
REM seed -1547453483 -1622797599 74970759 1317442535 2003032787 1007964532 1102181545 -134550736 -182105055 -1350209210 1300967143 238785564 -174738858 -1895063981 -2000337838 -895993320 62988142 1172376429 -2102990924 -2022188208 -572560861 1705337690 -227519952 568800011 -675928876 1173100522 -1281819353 196137445 53660224 -1123117538 -2089450024 -1307117577 -1636844872
REM
CELL 1.54180   50.00000   50.00000   50.00000   90.00000   90.00000   90.00000
LATT -1
SFAC C  
C      1  0.5802530000000  0.5059420000000  0.5169010000000 1.0
C      1  0.4709330000000  0.5687200000000  0.5475910000000 1.0
C      1  0.5221680000000  0.5217750000000  0.4094780000000 1.0
C      1  0.5659320000000  0.4500810000000  0.4787720000000 1.0
C      1  0.5141160000000  0.5393350000000  0.5116470000000 1.0
C      1  0.5658730000000  0.5576600000000  0.4729630000000 1.0
C      1  0.4454900000000  0.4510460000000  0.4943640000000 1.0
C      1  0.4124660000000  0.5181360000000  0.5068000000000 1.0
C      1  0.4604210000000  0.5401950000000  0.5510320000000 1.0
C      1  0.4390160000000  0.4928480000000  0.4873590000000 1.0
C      1  0.5326350000000  0.5816190000000  0.5251130000000 1.0
C      1  0.4379400000000  0.5605480000000  0.4812110000000 1.0
C      1  0.4293560000000  0.4555770000000  0.4691460000000 1.0
C      1  0.5002710000000  0.4612940000000  0.4138230000000 1.0
C      1  0.5145550000000  0.4228740000000  0.4555080000000 1.0
C      1  0.4586150000000  0.5250980000000  0.5789410000000 1.0
C      1  0.4478490000000  0.5248740000000  0.5276780000000 1.0
C      1  0.5639170000000  0.5354890000000  0.4629560000000 1.0
C      1  0.4815570000000  0.4435770000000  0.4241770000000 1.0
C      1  0.5098000000000  0.4120570000000  0.5279180000000 1.0
C      1  0.4294530000000  0.5279360000000  0.4555520000000 1.0
C      1  0.4702340000000  0.4968900000000  0.4507190000000 1.0
C      1  0.5340520000000  0.5859330000000  0.4972470000000 1.0
C      1  0.5140440000000  0.4725030000000  0.4620990000000 1.0
C      1  0.5316630000000  0.4977310000000  0.5746530000000 1.0
C      1  0.5212280000000  0.5023950000000  0.5310030000000 1.0
C      1  0.5299600000000  0.4262720000000  0.5395370000000 1.0
C      1  0.4820370000000  0.5853400000000  0.5258800000000 1.0
C      1  0.4508660000000  0.4521090000000  0.5359730000000 1.0
C      1  0.5083340000000  0.5860520000000  0.5397890000000 1.0
C      1  0.5101680000000  0.5214170000000  0.4704320000000 1.0
C      1  0.5725960000000  0.5348940000000  0.5271890000000 1.0
C      1  0.4316870000000  0.4775240000000  0.5330510000000 1.0
C      1  0.5542100000000  0.4513880000000  0.4502070000000 1.0
C      1  0.4282540000000  0.4976570000000  0.5547130000000 1.0
C      1  0.4213700000000  0.4843020000000  0.4651280000000 1.0
C      1  0.5649300000000  0.4576450000000  0.5391440000000 1.0
C      1  0.4797800000000  0.4482100000000  0.4682810000000 1.0
C      1  0.5718060000000  0.4681080000000  0.5000810000000 1.0
C      1  0.5474890000000  0.5493550000000  0.4440820000000 1.0
C      1  0.4206760000000  0.5198050000000  0.5359570000000 1.0
C      1  0.4813810000000  0.5221620000000  0.4810750000000 1.0
C      1  0.5748250000000  0.4859190000000  0.5371350000000 1.0
C      1  0.5174180000000  0.5477800000000  0.4828600000000 1.0
C      1  0.5109950000000  0.4780190000000  0.5738290000000 1.0
C      1  0.4869090000000  0.5197660000000  0.5813570000000 1.0
C      1  0.4968780000000  0.5319310000000  0.4223180000000 1.0
C      1  0.4635100000000  0.4301610000000  0.4832720000000 1.0
C      1  0.5789400000000  0.4938350000000  0.4909830000000 1.0
C      1  0.4521520000000  0.4903730000000  0.4281940000000 1.0
C      1  0.4929010000000  0.5539760000000  0.4401630000000 1.0
C      1  0.5581170000000  0.5580820000000  0.5219280000000 1.0
C      1  0.5483150000000  0.4397630000000  0.5225440000000 1.0
C      1  0.4894700000000  0.5230560000000  0.5080990000000 1.0
C      1  0.4482680000000  0.5510440000000  0.4543380000000 1.0
C      1  0.4887000000000  0.4422700000000  0.5523140000000 1.0
C      1  0.4176380000000  0.4893330000000  0.5066810000000 1.0
C      1  0.4944200000000  0.5114880000000  0.4433800000000 1.0
C      1  0.4773140000000  0.4216680000000  0.5067800000000 1.0
C      1  0.5508160000000  0.4999010000000  0.4434560000000 1.0
C      1  0.5363660000000  0.5422900000000  0.5614110000000 1.0
C      1  0.4760550000000  0.4806340000000  0.5692800000000 1.0
C      1  0.5448810000000  0.4570960000000  0.5607830000000 1.0
C      1  0.5039500000000  0.4182270000000  0.5015550000000 1.0
C      1  0.5124250000000  0.5766520000000  0.4783750000000 1.0
C      1  0.4607070000000  0.5711810000000  0.4934620000000 1.0
C      1  0.5370490000000  0.4742710000000  0.4427270000000 1.0
C      1  0.5270330000000  0.5270870000000  0.5847320000000 1.0
C      1  0.4767080000000  0.4426810000000  0.5259170000000 1.0
C      1  0.4974580000000  0.4972040000000  0.5226750000000 1.0
C      1  0.5178640000000  0.4503140000000  0.5678780000000 1.0
C      1  0.5613350000000  0.5292370000000  0.5527950000000 1.0
C      1  0.5188590000000  0.4769650000000  0.4890800000000 1.0
C      1  0.5586290000000  0.5697950000000  0.4959260000000 1.0
C      1  0.4754450000000  0.5451000000000  0.4622370000000 1.0
C      1  0.4842940000000  0.5798390000000  0.4968340000000 1.0
C      1  0.5106320000000  0.5429930000000  0.5452550000000 1.0
C      1  0.4603070000000  0.4765150000000  0.4994050000000 1.0
C      1  0.5575130000000  0.4993830000000  0.5581760000000 1.0
C      1  0.5181650000000  0.4943580000000  0.4028500000000 1.0
C      1  0.4292370000000  0.5015340000000  0.4424200000000 1.0
C      1  0.5340680000000  0.4341610000000  0.4444600000000 1.0
C      1  0.5199230000000  0.5681720000000  0.4472000000000 1.0
C      1  0.5487590000000  0.4332170000000  0.4943330000000 1.0
C      1  0.4879180000000  0.5232210000000  0.5516430000000 1.0
C      1  0.4794150000000  0.4967010000000  0.5437590000000 1.0
C      1  0.5314000000000  0.5035880000000  0.4868110000000 1.0
C      1  0.4505360000000  0.4985760000000  0.5737870000000 1.0
C      1  0.4412310000000  0.4534260000000  0.4438670000000 1.0
C      1  0.4854320000000  0.4751190000000  0.4617130000000 1.0
C      1  0.4568470000000  0.4963050000000  0.5254850000000 1.0
C      1  0.5243670000000  0.4204490000000  0.4810510000000 1.0
C      1  0.4968030000000  0.5657100000000  0.5613320000000 1.0
C      1  0.5031010000000  0.5431460000000  0.5859960000000 1.0
C      1  0.5425670000000  0.5237300000000  0.4307990000000 1.0
C      1  0.4873870000000  0.4278050000000  0.4499060000000 1.0
C      1  0.5153820000000  0.4642410000000  0.5282860000000 1.0
C      1  0.5339510000000  0.5169980000000  0.5125380000000 1.0
C      1  0.4557730000000  0.4607860000000  0.4218340000000 1.0
C      1  0.4641320000000  0.4539000000000  0.5626050000000 1.0
C      1  0.4963880000000  0.4722460000000  0.5059250000000 1.0
C      1  0.5355330000000  0.4834370000000  0.5328350000000 1.0
C      1  0.5035380000000  0.4871490000000  0.4210890000000 1.0
C      1  0.5595500000000  0.5079690000000  0.4701710000000 1.0
C      1  0.4241220000000  0.5338560000000  0.4840060000000 1.0
END
