TITL C-2441165-58-1283 0.0896114852110118 125000 -18091.0241264152 0 0 137 (C1) n - 1
REM
REM in /home/bkarasulu/work/CARBON/AIRSS/Generating-Clusters/ReaxFF-fromJPCA2015/Units_Real/with-SteepDescent/Higher-Symm
REM
REM
REM
REM
REM
REM ./C.cell (1df0a924f5614ab8850e4351716899ee)
REM
REM compiler GCC version 9.2.1 20190827 (Red Hat 9.2.1-1)
REM options -cpp -mtune=generic -march=x86-64 -g -O0 -fpre-include=/usr/include/finclude/math-vector-fortran.h
REM seed -1255024716 747383048 -553664312 513177099 -2047196157 -384255960 -532691400 896199612 2087087409 -664517601 -1992508488 1013671922 -622159930 -190580978 1286690949 1982168835 482338448 -1816799353 -1417793510 -1685738975 123725970 283233025 2142650471 -1651236215 3960172 -1693391940 -1968401193 1867752217 894856310 1060299297 2104927523 64663392 1009046848
REM
CELL 1.54180   50.00000   50.00000   50.00000   90.00000   90.00000   90.00000
LATT -1
SFAC C  
C      1  0.4987240000000  0.4892450000000  0.5254810000000 1.0
C      1  0.5223860000000  0.4836820000000  0.5110660000000 1.0
C      1  0.5257650000000  0.4810030000000  0.4691610000000 1.0
C      1  0.4790480000000  0.4892950000000  0.4805300000000 1.0
C      1  0.4750830000000  0.4917630000000  0.5092500000000 1.0
C      1  0.4965130000000  0.5159290000000  0.5359080000000 1.0
C      1  0.5350430000000  0.5075660000000  0.5009340000000 1.0
C      1  0.5224910000000  0.5092850000000  0.4726910000000 1.0
C      1  0.4920320000000  0.5140120000000  0.4736890000000 1.0
C      1  0.4734300000000  0.5186540000000  0.5177290000000 1.0
C      1  0.5020150000000  0.5564230000000  0.4733930000000 1.0
C      1  0.4837020000000  0.5609990000000  0.4935350000000 1.0
C      1  0.4918290000000  0.5578080000000  0.5212930000000 1.0
C      1  0.5175910000000  0.5481310000000  0.5168770000000 1.0
C      1  0.5241690000000  0.5507430000000  0.4896660000000 1.0
C      1  0.4987180000000  0.4456260000000  0.4782800000000 1.0
C      1  0.4743940000000  0.4462990000000  0.4942530000000 1.0
C      1  0.4867640000000  0.4489720000000  0.5198470000000 1.0
C      1  0.5133880000000  0.4409120000000  0.5196720000000 1.0
C      1  0.5180990000000  0.4315530000000  0.4943010000000 1.0
C      1  0.4485690000000  0.4606730000000  0.4943840000000 1.0
C      1  0.4768580000000  0.4585730000000  0.5455510000000 1.0
C      1  0.5352030000000  0.4541240000000  0.5347170000000 1.0
C      1  0.5476700000000  0.4629590000000  0.4709720000000 1.0
C      1  0.4904090000000  0.4600480000000  0.4453400000000 1.0
C      1  0.4459120000000  0.5366170000000  0.4924120000000 1.0
C      1  0.4778200000000  0.5509920000000  0.5466390000000 1.0
C      1  0.5386920000000  0.5397350000000  0.5362920000000 1.0
C      1  0.5486700000000  0.5491160000000  0.4750350000000 1.0
C      1  0.4916460000000  0.5453800000000  0.4478570000000 1.0
C      1  0.5417350000000  0.5312700000000  0.4526880000000 1.0
C      1  0.4629990000000  0.5305750000000  0.4462640000000 1.0
C      1  0.4357100000000  0.5249540000000  0.5191970000000 1.0
C      1  0.4945780000000  0.5327720000000  0.5647790000000 1.0
C      1  0.5660170000000  0.5300710000000  0.5261000000000 1.0
C      1  0.5495590000000  0.4688710000000  0.4390630000000 1.0
C      1  0.4630830000000  0.4710670000000  0.4416640000000 1.0
C      1  0.4357640000000  0.4689710000000  0.5213900000000 1.0
C      1  0.5009660000000  0.4752530000000  0.5622860000000 1.0
C      1  0.5604210000000  0.4673200000000  0.5208110000000 1.0
C      1  0.4775820000000  0.4006490000000  0.4881090000000 1.0
C      1  0.4823010000000  0.4004130000000  0.5178380000000 1.0
C      1  0.5103320000000  0.4011030000000  0.5251570000000 1.0
C      1  0.5242520000000  0.4018170000000  0.4961130000000 1.0
C      1  0.5027530000000  0.3988240000000  0.4742930000000 1.0
C      1  0.4769960000000  0.5989470000000  0.4873790000000 1.0
C      1  0.4810610000000  0.6004490000000  0.5171690000000 1.0
C      1  0.5099200000000  0.6003730000000  0.5219510000000 1.0
C      1  0.5238460000000  0.6008830000000  0.4961250000000 1.0
C      1  0.5039280000000  0.6010970000000  0.4745500000000 1.0
C      1  0.5034550000000  0.4289670000000  0.5665830000000 1.0
C      1  0.5651920000000  0.4255750000000  0.5164420000000 1.0
C      1  0.5332640000000  0.4270880000000  0.4445290000000 1.0
C      1  0.4582960000000  0.4266900000000  0.4503550000000 1.0
C      1  0.4382110000000  0.4258800000000  0.5231300000000 1.0
C      1  0.5056710000000  0.5761920000000  0.5659630000000 1.0
C      1  0.5620030000000  0.5731350000000  0.5146610000000 1.0
C      1  0.5337080000000  0.5755890000000  0.4430660000000 1.0
C      1  0.4562560000000  0.5741480000000  0.4482720000000 1.0
C      1  0.4406280000000  0.5712040000000  0.5239950000000 1.0
C      1  0.4406910000000  0.5670420000000  0.4949470000000 1.0
C      1  0.4761660000000  0.5770350000000  0.5587820000000 1.0
C      1  0.5455680000000  0.5694750000000  0.5384340000000 1.0
C      1  0.5530620000000  0.5760910000000  0.4661720000000 1.0
C      1  0.4845940000000  0.5729020000000  0.4396580000000 1.0
C      1  0.4355040000000  0.4329270000000  0.4941580000000 1.0
C      1  0.4765640000000  0.4299640000000  0.5557520000000 1.0
C      1  0.5471580000000  0.4278690000000  0.5401090000000 1.0
C      1  0.5495600000000  0.4321610000000  0.4681770000000 1.0
C      1  0.4857830000000  0.4308780000000  0.4408750000000 1.0
C      1  0.5533350000000  0.4147280000000  0.4912420000000 1.0
C      1  0.5072540000000  0.4130360000000  0.4491500000000 1.0
C      1  0.4536670000000  0.4156430000000  0.4776520000000 1.0
C      1  0.4628040000000  0.4141950000000  0.5350680000000 1.0
C      1  0.5222750000000  0.4139340000000  0.5485940000000 1.0
C      1  0.5503380000000  0.5888080000000  0.4923540000000 1.0
C      1  0.5077720000000  0.5890630000000  0.4482290000000 1.0
C      1  0.4528930000000  0.5845370000000  0.4754280000000 1.0
C      1  0.4620610000000  0.5887280000000  0.5358120000000 1.0
C      1  0.5232070000000  0.5867650000000  0.5448350000000 1.0
C      1  0.5850280000000  0.5266840000000  0.4612710000000 1.0
C      1  0.4855670000000  0.5303210000000  0.4069150000000 1.0
C      1  0.4040720000000  0.5325180000000  0.4787110000000 1.0
C      1  0.4533040000000  0.5328450000000  0.5862540000000 1.0
C      1  0.5650940000000  0.5316140000000  0.5734980000000 1.0
C      1  0.5903890000000  0.4700790000000  0.4616980000000 1.0
C      1  0.4899540000000  0.4678300000000  0.3994580000000 1.0
C      1  0.4092350000000  0.4620910000000  0.4849870000000 1.0
C      1  0.4540290000000  0.4623650000000  0.5831100000000 1.0
C      1  0.5627780000000  0.4708770000000  0.5661940000000 1.0
C      1  0.5084390000000  0.5106770000000  0.4320060000000 1.0
C      1  0.4428620000000  0.5163190000000  0.4688900000000 1.0
C      1  0.4577770000000  0.5052280000000  0.5573040000000 1.0
C      1  0.5314420000000  0.5146640000000  0.5580350000000 1.0
C      1  0.5623770000000  0.5069740000000  0.4933470000000 1.0
C      1  0.5088220000000  0.4822640000000  0.4333260000000 1.0
C      1  0.4408380000000  0.4860480000000  0.4743200000000 1.0
C      1  0.4507730000000  0.4794370000000  0.5451210000000 1.0
C      1  0.5261720000000  0.4857310000000  0.5575160000000 1.0
C      1  0.5657320000000  0.4782300000000  0.4921220000000 1.0
C      1  0.4426690000000  0.4503870000000  0.4446170000000 1.0
C      1  0.4276090000000  0.4467980000000  0.5395400000000 1.0
C      1  0.5082460000000  0.4546650000000  0.5810200000000 1.0
C      1  0.5829360000000  0.4487740000000  0.5130680000000 1.0
C      1  0.5345180000000  0.4481640000000  0.4247380000000 1.0
C      1  0.4417820000000  0.5494050000000  0.4426020000000 1.0
C      1  0.4322820000000  0.5468400000000  0.5379980000000 1.0
C      1  0.5147580000000  0.5512440000000  0.5772050000000 1.0
C      1  0.5778610000000  0.5494530000000  0.5096660000000 1.0
C      1  0.5316800000000  0.5493600000000  0.4310790000000 1.0
C      1  0.5377380000000  0.5321220000000  0.5807110000000 1.0
C      1  0.5824790000000  0.5285590000000  0.4893010000000 1.0
C      1  0.5132130000000  0.5325210000000  0.4127430000000 1.0
C      1  0.4210570000000  0.5331680000000  0.4566560000000 1.0
C      1  0.4402590000000  0.5289830000000  0.5619090000000 1.0
C      1  0.5382200000000  0.4687300000000  0.5785300000000 1.0
C      1  0.5930360000000  0.4639780000000  0.4884560000000 1.0
C      1  0.5156640000000  0.4647880000000  0.4101690000000 1.0
C      1  0.4230740000000  0.4668410000000  0.4603560000000 1.0
C      1  0.4338280000000  0.4613290000000  0.5640480000000 1.0
C      1  0.5845090000000  0.5260620000000  0.5563020000000 1.0
C      1  0.5687420000000  0.5198700000000  0.4396660000000 1.0
C      1  0.4609350000000  0.5215180000000  0.4188870000000 1.0
C      1  0.3968170000000  0.5246330000000  0.5011360000000 1.0
C      1  0.4788130000000  0.5217150000000  0.5898980000000 1.0
C      1  0.5784380000000  0.4782000000000  0.5429620000000 1.0
C      1  0.5809870000000  0.4771570000000  0.4370580000000 1.0
C      1  0.4667730000000  0.4769230000000  0.4016140000000 1.0
C      1  0.4093990000000  0.4781110000000  0.5086330000000 1.0
C      1  0.4785220000000  0.4677940000000  0.5934950000000 1.0
C      1  0.4550000000000  0.4919290000000  0.4218780000000 1.0
C      1  0.4115730000000  0.5066740000000  0.5168410000000 1.0
C      1  0.5591540000000  0.4945360000000  0.4292670000000 1.0
C      1  0.4804180000000  0.4940850000000  0.5783090000000 1.0
C      1  0.5821420000000  0.5066600000000  0.5357480000000 1.0
C      1  0.5072410000000  0.4729520000000  0.4859080000000 1.0
C      1  0.4759860000000  0.5332290000000  0.4918880000000 1.0
END
