TITL C-2441163-1170-569 0.104688426923236 125000 -21243.6754697807 0 0 162 (C1) n - 1
REM
REM in /home/bkarasulu/work/CARBON/AIRSS/Generating-Clusters/ReaxFF-fromJPCA2015/Units_Real/with-SteepDescent/Higher-Symm
REM
REM
REM
REM
REM
REM ./C.cell (1df0a924f5614ab8850e4351716899ee)
REM
REM compiler GCC version 9.2.1 20190827 (Red Hat 9.2.1-1)
REM options -cpp -mtune=generic -march=x86-64 -g -O0 -fpre-include=/usr/include/finclude/math-vector-fortran.h
REM seed -555185336 -892470944 -1105862837 -782602663 -1928370541 787290370 -1921673006 243582700 -1916674829 1105315338 -1932159535 322051128 -1417368632 1170675434 816592244 -2051037818 -1163324584 -437604085 559193601 -1163846908 1635755462 1150047154 364000224 1779076482 881958302 -343136415 512401884 370436837 -1011856517 -811576868 1368444346 443624211 1131335234
REM
CELL 1.54180   50.00000   50.00000   50.00000   90.00000   90.00000   90.00000
LATT -1
SFAC C  
C      1  0.5716990000000  0.5483820000000  0.5521180000000 1.0
C      1  0.4740700000000  0.5898460000000  0.4422370000000 1.0
C      1  0.5462600000000  0.4873940000000  0.5986740000000 1.0
C      1  0.5836390000000  0.4995630000000  0.4477450000000 1.0
C      1  0.5941080000000  0.4617520000000  0.4824190000000 1.0
C      1  0.5887660000000  0.5265640000000  0.4530240000000 1.0
C      1  0.5763640000000  0.4440310000000  0.4691030000000 1.0
C      1  0.4183610000000  0.5300500000000  0.5547740000000 1.0
C      1  0.4500200000000  0.5698320000000  0.4771750000000 1.0
C      1  0.5511040000000  0.5376670000000  0.4417100000000 1.0
C      1  0.5301310000000  0.4350080000000  0.5713330000000 1.0
C      1  0.4755610000000  0.5254450000000  0.4321340000000 1.0
C      1  0.4841170000000  0.4570010000000  0.5392710000000 1.0
C      1  0.5165600000000  0.4647890000000  0.4499010000000 1.0
C      1  0.5036790000000  0.4912860000000  0.4963210000000 1.0
C      1  0.5578420000000  0.4912270000000  0.4338390000000 1.0
C      1  0.5388420000000  0.4590790000000  0.5890050000000 1.0
C      1  0.3963150000000  0.4940250000000  0.4848270000000 1.0
C      1  0.5717880000000  0.5716480000000  0.4929840000000 1.0
C      1  0.5408390000000  0.5769060000000  0.4548240000000 1.0
C      1  0.4297400000000  0.5755090000000  0.4594590000000 1.0
C      1  0.4813400000000  0.5522590000000  0.5889980000000 1.0
C      1  0.5367980000000  0.5488110000000  0.4645750000000 1.0
C      1  0.4601300000000  0.4020300000000  0.5036420000000 1.0
C      1  0.4755230000000  0.5289950000000  0.5542510000000 1.0
C      1  0.4385560000000  0.4396240000000  0.5101930000000 1.0
C      1  0.4256510000000  0.5512470000000  0.5113570000000 1.0
C      1  0.5697360000000  0.4980520000000  0.5196520000000 1.0
C      1  0.4107250000000  0.5083250000000  0.5359520000000 1.0
C      1  0.4949380000000  0.6017910000000  0.5157070000000 1.0
C      1  0.4529660000000  0.5574510000000  0.5801350000000 1.0
C      1  0.5910070000000  0.4948650000000  0.5428760000000 1.0
C      1  0.5781470000000  0.4330160000000  0.5115080000000 1.0
C      1  0.5377980000000  0.4035230000000  0.4919930000000 1.0
C      1  0.4378570000000  0.4343670000000  0.5386090000000 1.0
C      1  0.4946630000000  0.5589020000000  0.4559290000000 1.0
C      1  0.5849770000000  0.5528850000000  0.4586990000000 1.0
C      1  0.4304290000000  0.4726480000000  0.4743110000000 1.0
C      1  0.4442980000000  0.5686050000000  0.5553180000000 1.0
C      1  0.5042520000000  0.4372320000000  0.4916470000000 1.0
C      1  0.4418690000000  0.4371580000000  0.4419110000000 1.0
C      1  0.5318180000000  0.5124830000000  0.6008970000000 1.0
C      1  0.4488000000000  0.5969480000000  0.4885290000000 1.0
C      1  0.5252980000000  0.5111250000000  0.4958310000000 1.0
C      1  0.4993710000000  0.4180680000000  0.5334810000000 1.0
C      1  0.5435200000000  0.5165960000000  0.5319160000000 1.0
C      1  0.5419920000000  0.4654590000000  0.4615170000000 1.0
C      1  0.4774860000000  0.4462950000000  0.5118840000000 1.0
C      1  0.4677220000000  0.5201780000000  0.4835310000000 1.0
C      1  0.5927990000000  0.5593150000000  0.5066500000000 1.0
C      1  0.4137350000000  0.4538470000000  0.5110850000000 1.0
C      1  0.4964860000000  0.4872570000000  0.5883030000000 1.0
C      1  0.4519550000000  0.5588200000000  0.5036560000000 1.0
C      1  0.4371320000000  0.5334430000000  0.5775410000000 1.0
C      1  0.4992750000000  0.5551970000000  0.4047440000000 1.0
C      1  0.4410940000000  0.4589850000000  0.4237510000000 1.0
C      1  0.4732660000000  0.5436180000000  0.4996390000000 1.0
C      1  0.4720360000000  0.5483860000000  0.4135230000000 1.0
C      1  0.5232840000000  0.5372410000000  0.4297730000000 1.0
C      1  0.4096440000000  0.4839480000000  0.4581960000000 1.0
C      1  0.5775080000000  0.4565210000000  0.5513660000000 1.0
C      1  0.4928890000000  0.4419730000000  0.4168650000000 1.0
C      1  0.5910090000000  0.5454370000000  0.5310020000000 1.0
C      1  0.4283500000000  0.5616880000000  0.4352860000000 1.0
C      1  0.4218360000000  0.5282050000000  0.4938740000000 1.0
C      1  0.4998940000000  0.5484040000000  0.5658100000000 1.0
C      1  0.5182200000000  0.4961040000000  0.4090730000000 1.0
C      1  0.4893590000000  0.5010810000000  0.4730090000000 1.0
C      1  0.4781010000000  0.4821760000000  0.4532620000000 1.0
C      1  0.4405150000000  0.4593700000000  0.5773930000000 1.0
C      1  0.4308580000000  0.5256670000000  0.4609280000000 1.0
C      1  0.5586370000000  0.4295640000000  0.4890970000000 1.0
C      1  0.5138640000000  0.4933600000000  0.5656260000000 1.0
C      1  0.5036250000000  0.5089820000000  0.6076500000000 1.0
C      1  0.5098670000000  0.5092080000000  0.4339120000000 1.0
C      1  0.5346880000000  0.5019120000000  0.4483550000000 1.0
C      1  0.4255220000000  0.4570310000000  0.5522660000000 1.0
C      1  0.5195640000000  0.5348800000000  0.4007400000000 1.0
C      1  0.5495780000000  0.4786770000000  0.4856360000000 1.0
C      1  0.4247840000000  0.5537230000000  0.5399120000000 1.0
C      1  0.5432340000000  0.5052600000000  0.4751650000000 1.0
C      1  0.4570480000000  0.5902960000000  0.5417800000000 1.0
C      1  0.4945270000000  0.5069050000000  0.5219290000000 1.0
C      1  0.4455620000000  0.5117480000000  0.5029610000000 1.0
C      1  0.4298520000000  0.4254880000000  0.4858650000000 1.0
C      1  0.5083900000000  0.4051160000000  0.4860560000000 1.0
C      1  0.5217670000000  0.4419040000000  0.5273010000000 1.0
C      1  0.5331640000000  0.4737270000000  0.5643390000000 1.0
C      1  0.5994630000000  0.4678490000000  0.5365740000000 1.0
C      1  0.4917550000000  0.5983420000000  0.4643700000000 1.0
C      1  0.5407280000000  0.5436600000000  0.5222570000000 1.0
C      1  0.4692260000000  0.4790530000000  0.5505500000000 1.0
C      1  0.5940210000000  0.4902900000000  0.4741630000000 1.0
C      1  0.4733090000000  0.4587480000000  0.4673810000000 1.0
C      1  0.4999810000000  0.4175090000000  0.4330850000000 1.0
C      1  0.5217120000000  0.5920810000000  0.4703610000000 1.0
C      1  0.5555510000000  0.4727720000000  0.5126290000000 1.0
C      1  0.4789680000000  0.6009100000000  0.4911400000000 1.0
C      1  0.5696770000000  0.5761280000000  0.4643080000000 1.0
C      1  0.5404530000000  0.4259990000000  0.5429670000000 1.0
C      1  0.5146090000000  0.4637480000000  0.4182530000000 1.0
C      1  0.5053750000000  0.3956190000000  0.5160780000000 1.0
C      1  0.4526760000000  0.4086050000000  0.4784690000000 1.0
C      1  0.5344230000000  0.4013180000000  0.5204790000000 1.0
C      1  0.5877510000000  0.5078550000000  0.4967010000000 1.0
C      1  0.4889460000000  0.4079240000000  0.4582120000000 1.0
C      1  0.5627490000000  0.4546930000000  0.4475000000000 1.0
C      1  0.4854930000000  0.5905180000000  0.5400550000000 1.0
C      1  0.4246910000000  0.4860570000000  0.5469940000000 1.0
C      1  0.4854660000000  0.4168180000000  0.5599370000000 1.0
C      1  0.4671740000000  0.4664150000000  0.4945170000000 1.0
C      1  0.5229710000000  0.5969020000000  0.5203940000000 1.0
C      1  0.4570520000000  0.5245410000000  0.4564110000000 1.0
C      1  0.5489730000000  0.4333010000000  0.4317470000000 1.0
C      1  0.5157090000000  0.4972680000000  0.5379090000000 1.0
C      1  0.5995750000000  0.5319680000000  0.5061600000000 1.0
C      1  0.5385120000000  0.4459900000000  0.4078830000000 1.0
C      1  0.4563570000000  0.4150030000000  0.5502100000000 1.0
C      1  0.5435200000000  0.5621080000000  0.5780260000000 1.0
C      1  0.5074520000000  0.5371490000000  0.4686250000000 1.0
C      1  0.5500850000000  0.5637310000000  0.5424340000000 1.0
C      1  0.4744690000000  0.4843150000000  0.4232400000000 1.0
C      1  0.5462880000000  0.5042100000000  0.4081230000000 1.0
C      1  0.5090600000000  0.4693420000000  0.5294490000000 1.0
C      1  0.4320430000000  0.5086060000000  0.4198430000000 1.0
C      1  0.5073630000000  0.5668350000000  0.4315840000000 1.0
C      1  0.5305920000000  0.5362050000000  0.5788070000000 1.0
C      1  0.5744920000000  0.5011430000000  0.5655440000000 1.0
C      1  0.5121700000000  0.5343640000000  0.4968630000000 1.0
C      1  0.4615930000000  0.5166480000000  0.5798100000000 1.0
C      1  0.5566450000000  0.5245860000000  0.5592170000000 1.0
C      1  0.4247490000000  0.4443340000000  0.4642270000000 1.0
C      1  0.4249240000000  0.4836290000000  0.4325800000000 1.0
C      1  0.4649280000000  0.3979480000000  0.5284810000000 1.0
C      1  0.5455770000000  0.5576510000000  0.4967830000000 1.0
C      1  0.5021300000000  0.4386220000000  0.5709210000000 1.0
C      1  0.4435110000000  0.4835520000000  0.4970220000000 1.0
C      1  0.5617290000000  0.4436350000000  0.5319610000000 1.0
C      1  0.4937830000000  0.5380980000000  0.5182990000000 1.0
C      1  0.4791890000000  0.4645450000000  0.5914290000000 1.0
C      1  0.4012580000000  0.5130040000000  0.5065310000000 1.0
C      1  0.4678710000000  0.4296140000000  0.4584910000000 1.0
C      1  0.5278080000000  0.5824000000000  0.4965140000000 1.0
C      1  0.4576520000000  0.5699850000000  0.4284090000000 1.0
C      1  0.4702850000000  0.4973840000000  0.5306300000000 1.0
C      1  0.5979390000000  0.4534240000000  0.5102710000000 1.0
C      1  0.5098800000000  0.4411780000000  0.4632380000000 1.0
C      1  0.5258750000000  0.4216020000000  0.4468970000000 1.0
C      1  0.3979920000000  0.4740340000000  0.5041480000000 1.0
C      1  0.4609810000000  0.5081740000000  0.4127500000000 1.0
C      1  0.4812300000000  0.5262270000000  0.6017130000000 1.0
C      1  0.5312680000000  0.4439920000000  0.4997420000000 1.0
C      1  0.4642920000000  0.4435930000000  0.5810500000000 1.0
C      1  0.4479020000000  0.4870630000000  0.5685530000000 1.0
C      1  0.5600290000000  0.4768070000000  0.5598390000000 1.0
C      1  0.4568100000000  0.5225530000000  0.5332560000000 1.0
C      1  0.4215260000000  0.5321760000000  0.4346740000000 1.0
C      1  0.5579810000000  0.5329530000000  0.4122780000000 1.0
C      1  0.5045980000000  0.5752180000000  0.5543930000000 1.0
C      1  0.4473410000000  0.5965890000000  0.5165500000000 1.0
C      1  0.4691500000000  0.4578120000000  0.4120080000000 1.0
C      1  0.5303020000000  0.5846710000000  0.5460600000000 1.0
END
