TITL C-2441163-1170-49 0.117980074749989 125000 -16902.3602326258 0 0 134 (C1) n - 1
REM
REM in /home/bkarasulu/work/CARBON/AIRSS/Generating-Clusters/ReaxFF-fromJPCA2015/Units_Real/with-SteepDescent/Higher-Symm
REM
REM
REM
REM
REM
REM ./C.cell (1df0a924f5614ab8850e4351716899ee)
REM
REM compiler GCC version 9.2.1 20190827 (Red Hat 9.2.1-1)
REM options -cpp -mtune=generic -march=x86-64 -g -O0 -fpre-include=/usr/include/finclude/math-vector-fortran.h
REM seed 1822619870 -623950495 1789390387 -1406842196 -326685667 783351233 704835580 -1912928614 -214060718 1017776586 1581477847 2144763207 1097991428 76733231 -238350964 226203330 -1740667093 790896884 322275134 1429596686 -871219213 1854699576 -1102191400 1602578421 1766548710 -107587365 819740269 1895478983 1779545823 -678047576 -1014485410 -812193059 796128691
REM
CELL 1.54180   50.00000   50.00000   50.00000   90.00000   90.00000   90.00000
LATT -1
SFAC C  
C      1  0.4593800000000  0.5814600000000  0.4846150000000 1.0
C      1  0.5035940000000  0.5787680000000  0.4555840000000 1.0
C      1  0.5470820000000  0.5775860000000  0.4879350000000 1.0
C      1  0.5265560000000  0.5817020000000  0.5355520000000 1.0
C      1  0.4714970000000  0.5742320000000  0.5346080000000 1.0
C      1  0.4205090000000  0.5157030000000  0.5461770000000 1.0
C      1  0.4310850000000  0.5125050000000  0.4328000000000 1.0
C      1  0.5381790000000  0.5153950000000  0.4158280000000 1.0
C      1  0.5922780000000  0.5135580000000  0.5125170000000 1.0
C      1  0.5185720000000  0.5126250000000  0.5923950000000 1.0
C      1  0.4328130000000  0.4598360000000  0.4851860000000 1.0
C      1  0.4951840000000  0.4564230000000  0.4217080000000 1.0
C      1  0.5722760000000  0.4571570000000  0.4715890000000 1.0
C      1  0.5468010000000  0.4596850000000  0.5569840000000 1.0
C      1  0.4591940000000  0.4573800000000  0.5647150000000 1.0
C      1  0.5719900000000  0.5569450000000  0.5312890000000 1.0
C      1  0.4890060000000  0.5576320000000  0.5780280000000 1.0
C      1  0.4258230000000  0.5583540000000  0.5151160000000 1.0
C      1  0.4641980000000  0.5574080000000  0.4323340000000 1.0
C      1  0.5519890000000  0.5571170000000  0.4439600000000 1.0
C      1  0.4977640000000  0.4999890000000  0.5762700000000 1.0
C      1  0.4250790000000  0.5015030000000  0.5214600000000 1.0
C      1  0.4535000000000  0.4951020000000  0.4388450000000 1.0
C      1  0.5457550000000  0.4998020000000  0.4390710000000 1.0
C      1  0.5683940000000  0.4994380000000  0.5237240000000 1.0
C      1  0.4405410000000  0.4337130000000  0.5169840000000 1.0
C      1  0.4661470000000  0.4329440000000  0.4479500000000 1.0
C      1  0.5380140000000  0.4347460000000  0.4518460000000 1.0
C      1  0.5580610000000  0.4345330000000  0.5215370000000 1.0
C      1  0.4986680000000  0.4353800000000  0.5617550000000 1.0
C      1  0.5345070000000  0.5763970000000  0.4601900000000 1.0
C      1  0.5494090000000  0.5771070000000  0.5183940000000 1.0
C      1  0.4945790000000  0.5797640000000  0.5557200000000 1.0
C      1  0.4492700000000  0.5780320000000  0.5128320000000 1.0
C      1  0.4741880000000  0.5763240000000  0.4544260000000 1.0
C      1  0.5742310000000  0.4951930000000  0.4401000000000 1.0
C      1  0.5821610000000  0.4960190000000  0.5494180000000 1.0
C      1  0.4748540000000  0.4941260000000  0.5932770000000 1.0
C      1  0.4036340000000  0.4935380000000  0.5034110000000 1.0
C      1  0.4606380000000  0.4940650000000  0.4108100000000 1.0
C      1  0.5184950000000  0.5360480000000  0.5607680000000 1.0
C      1  0.4624670000000  0.5203000000000  0.5438740000000 1.0
C      1  0.4492050000000  0.5340470000000  0.4604790000000 1.0
C      1  0.5141260000000  0.5304070000000  0.4493080000000 1.0
C      1  0.5569440000000  0.5223170000000  0.4931530000000 1.0
C      1  0.5155680000000  0.4978630000000  0.4102490000000 1.0
C      1  0.5911850000000  0.4992940000000  0.4863750000000 1.0
C      1  0.5420710000000  0.4987280000000  0.5817980000000 1.0
C      1  0.4352480000000  0.4990820000000  0.5650650000000 1.0
C      1  0.4192370000000  0.4992810000000  0.4570060000000 1.0
C      1  0.5451550000000  0.5058330000000  0.4734520000000 1.0
C      1  0.5425170000000  0.5044210000000  0.5341710000000 1.0
C      1  0.4840600000000  0.5036780000000  0.5493360000000 1.0
C      1  0.4455090000000  0.5087800000000  0.5016370000000 1.0
C      1  0.4821380000000  0.5026010000000  0.4428880000000 1.0
C      1  0.5417030000000  0.4341370000000  0.5445070000000 1.0
C      1  0.4722100000000  0.4355140000000  0.5515910000000 1.0
C      1  0.4411710000000  0.4328530000000  0.4887680000000 1.0
C      1  0.4927960000000  0.4333250000000  0.4387800000000 1.0
C      1  0.5544500000000  0.4349310000000  0.4746360000000 1.0
C      1  0.5119570000000  0.4239350000000  0.4592870000000 1.0
C      1  0.5457570000000  0.4227050000000  0.4987120000000 1.0
C      1  0.5166990000000  0.4218220000000  0.5444430000000 1.0
C      1  0.4652070000000  0.4233070000000  0.5270430000000 1.0
C      1  0.4654020000000  0.4230380000000  0.4764720000000 1.0
C      1  0.4095080000000  0.5126520000000  0.4817610000000 1.0
C      1  0.4863910000000  0.5114000000000  0.4121720000000 1.0
C      1  0.5849680000000  0.5139180000000  0.4602180000000 1.0
C      1  0.5658960000000  0.5131140000000  0.5680780000000 1.0
C      1  0.4548520000000  0.5127330000000  0.5831860000000 1.0
C      1  0.5767270000000  0.4572330000000  0.5195320000000 1.0
C      1  0.5055440000000  0.4575530000000  0.5793980000000 1.0
C      1  0.4268760000000  0.4566970000000  0.5295510000000 1.0
C      1  0.4507950000000  0.4555420000000  0.4387280000000 1.0
C      1  0.5427080000000  0.4561470000000  0.4335300000000 1.0
C      1  0.4308800000000  0.4710270000000  0.4559420000000 1.0
C      1  0.5207880000000  0.4699900000000  0.4178590000000 1.0
C      1  0.5839180000000  0.4714600000000  0.4934430000000 1.0
C      1  0.5319280000000  0.4712100000000  0.5802780000000 1.0
C      1  0.4365790000000  0.4711550000000  0.5539870000000 1.0
C      1  0.4639410000000  0.5415130000000  0.5798760000000 1.0
C      1  0.4122630000000  0.5422530000000  0.4932840000000 1.0
C      1  0.4836670000000  0.5423990000000  0.4169090000000 1.0
C      1  0.5748190000000  0.5420710000000  0.4566880000000 1.0
C      1  0.5682540000000  0.5411300000000  0.5597130000000 1.0
C      1  0.4641070000000  0.5178180000000  0.5196570000000 1.0
C      1  0.4883300000000  0.5054060000000  0.4867940000000 1.0
C      1  0.4943810000000  0.5295300000000  0.4698090000000 1.0
C      1  0.5366990000000  0.5321150000000  0.5066420000000 1.0
C      1  0.5145650000000  0.5162020000000  0.5165090000000 1.0
C      1  0.5687200000000  0.4660760000000  0.4434630000000 1.0
C      1  0.5757870000000  0.4673050000000  0.5465240000000 1.0
C      1  0.4778100000000  0.4654130000000  0.5864180000000 1.0
C      1  0.4125550000000  0.4657440000000  0.5060440000000 1.0
C      1  0.4673760000000  0.4661610000000  0.4165840000000 1.0
C      1  0.5236560000000  0.4710580000000  0.4714210000000 1.0
C      1  0.5305220000000  0.4666340000000  0.5121740000000 1.0
C      1  0.4953520000000  0.4657370000000  0.5312880000000 1.0
C      1  0.4588790000000  0.4717620000000  0.5036680000000 1.0
C      1  0.4844540000000  0.4638390000000  0.4686380000000 1.0
C      1  0.5070100000000  0.4002230000000  0.4767400000000 1.0
C      1  0.5245400000000  0.4029330000000  0.4993830000000 1.0
C      1  0.5089160000000  0.4032820000000  0.5235880000000 1.0
C      1  0.4813720000000  0.4024100000000  0.5150700000000 1.0
C      1  0.4802060000000  0.3992480000000  0.4864720000000 1.0
C      1  0.4873130000000  0.5503150000000  0.5301700000000 1.0
C      1  0.4701460000000  0.5552990000000  0.4868650000000 1.0
C      1  0.4941860000000  0.5553610000000  0.4790280000000 1.0
C      1  0.5318770000000  0.5510160000000  0.4876060000000 1.0
C      1  0.5091350000000  0.5650430000000  0.5210610000000 1.0
C      1  0.4579470000000  0.5354770000000  0.5012910000000 1.0
C      1  0.4742640000000  0.5247360000000  0.4564260000000 1.0
C      1  0.5324620000000  0.5308050000000  0.4656420000000 1.0
C      1  0.5452010000000  0.5343080000000  0.5303870000000 1.0
C      1  0.5007660000000  0.5270740000000  0.5406930000000 1.0
C      1  0.5043700000000  0.4804300000000  0.4558030000000 1.0
C      1  0.5416530000000  0.4788990000000  0.4895700000000 1.0
C      1  0.5253010000000  0.4793470000000  0.5384100000000 1.0
C      1  0.4711490000000  0.4784250000000  0.5285010000000 1.0
C      1  0.4696480000000  0.4851180000000  0.4806370000000 1.0
C      1  0.5746550000000  0.5448740000000  0.4858470000000 1.0
C      1  0.5407020000000  0.5480840000000  0.5541730000000 1.0
C      1  0.4505290000000  0.5441660000000  0.5541400000000 1.0
C      1  0.4292910000000  0.5498100000000  0.4738220000000 1.0
C      1  0.5106080000000  0.5479640000000  0.4258750000000 1.0
C      1  0.5889880000000  0.5433420000000  0.5118100000000 1.0
C      1  0.5113470000000  0.5415410000000  0.5882760000000 1.0
C      1  0.4241930000000  0.5444550000000  0.5409990000000 1.0
C      1  0.4381000000000  0.5419960000000  0.4346350000000 1.0
C      1  0.5391760000000  0.5449580000000  0.4207580000000 1.0
C      1  0.5103760000000  0.5626610000000  0.4957850000000 1.0
C      1  0.5030310000000  0.4951120000000  0.5032500000000 1.0
C      1  0.4941460000000  0.4410450000000  0.4845560000000 1.0
C      1  0.5056260000000  0.4527730000000  0.5083680000000 1.0
END
