TITL C-2441157-2117-643 0.0555368856552128 125000 -11626.9641891415 0 0 88 (C1) n - 1
REM
REM in /home/bkarasulu/work/CARBON/AIRSS/Generating-Clusters/ReaxFF-fromJPCA2015/Units_Real/with-SteepDescent/Higher-Symm
REM
REM
REM
REM
REM
REM ./C.cell (1df0a924f5614ab8850e4351716899ee)
REM
REM compiler GCC version 9.2.1 20190827 (Red Hat 9.2.1-1)
REM options -cpp -mtune=generic -march=x86-64 -g -O0 -fpre-include=/usr/include/finclude/math-vector-fortran.h
REM seed 91549527 908693188 -1066907417 -913517983 1154326165 -1615574247 31059819 666068697 -797112187 739249465 931181621 -1519394362 -933515575 1242425684 155507491 -906279797 2039967816 53439424 1510994711 -80023948 1088356189 -1430712647 183938218 318197287 12319620 -1258981692 -1867090701 -648941865 -994039008 288827215 1685801282 -958530352 1239440972
REM
CELL 1.54180   50.00000   50.00000   50.00000   90.00000   90.00000   90.00000
LATT -1
SFAC C  
C      1  0.4904550000000  0.5238980000000  0.5804560000000 1.0
C      1  0.5810960000000  0.5242810000000  0.5106190000000 1.0
C      1  0.5100680000000  0.5242800000000  0.4186220000000 1.0
C      1  0.4189580000000  0.5241270000000  0.4908480000000 1.0
C      1  0.4844400000000  0.5216610000000  0.4314030000000 1.0
C      1  0.4337530000000  0.5208760000000  0.5159040000000 1.0
C      1  0.5153460000000  0.5204790000000  0.5662260000000 1.0
C      1  0.5699040000000  0.5226090000000  0.4840540000000 1.0
C      1  0.4455320000000  0.5064070000000  0.5535040000000 1.0
C      1  0.5551060000000  0.5063140000000  0.5563530000000 1.0
C      1  0.5550450000000  0.5056510000000  0.4422740000000 1.0
C      1  0.4427270000000  0.5055000000000  0.4457580000000 1.0
C      1  0.5034800000000  0.4802430000000  0.5752710000000 1.0
C      1  0.5758570000000  0.4799600000000  0.4991680000000 1.0
C      1  0.4984610000000  0.4787150000000  0.4222870000000 1.0
C      1  0.4265460000000  0.4816260000000  0.5043750000000 1.0
C      1  0.5181120000000  0.5478510000000  0.5334380000000 1.0
C      1  0.5342080000000  0.5479710000000  0.4821300000000 1.0
C      1  0.4818760000000  0.5474770000000  0.4665260000000 1.0
C      1  0.4666720000000  0.5477550000000  0.5183260000000 1.0
C      1  0.5359560000000  0.4595070000000  0.5617830000000 1.0
C      1  0.5612850000000  0.4594140000000  0.4638790000000 1.0
C      1  0.4635620000000  0.4593860000000  0.4387160000000 1.0
C      1  0.4384560000000  0.4591460000000  0.5363880000000 1.0
C      1  0.5109130000000  0.4287090000000  0.5189390000000 1.0
C      1  0.5192670000000  0.4281400000000  0.4886370000000 1.0
C      1  0.4884370000000  0.4276960000000  0.4794120000000 1.0
C      1  0.4805470000000  0.4285230000000  0.5126090000000 1.0
C      1  0.5550130000000  0.4438810000000  0.5150270000000 1.0
C      1  0.5155400000000  0.4439310000000  0.4440510000000 1.0
C      1  0.4440530000000  0.4436820000000  0.4847070000000 1.0
C      1  0.4852180000000  0.4432560000000  0.5558990000000 1.0
C      1  0.5084590000000  0.4521970000000  0.5692570000000 1.0
C      1  0.5690760000000  0.4530730000000  0.4916860000000 1.0
C      1  0.4912620000000  0.4518390000000  0.4303760000000 1.0
C      1  0.4302550000000  0.4529960000000  0.5081470000000 1.0
C      1  0.4366680000000  0.5431760000000  0.4776560000000 1.0
C      1  0.4775160000000  0.5432680000000  0.5632600000000 1.0
C      1  0.5631080000000  0.5436240000000  0.5233520000000 1.0
C      1  0.5225530000000  0.5435550000000  0.4365900000000 1.0
C      1  0.5585630000000  0.4881260000000  0.5349610000000 1.0
C      1  0.5338890000000  0.4882790000000  0.4393490000000 1.0
C      1  0.4380960000000  0.4877300000000  0.4658580000000 1.0
C      1  0.4661680000000  0.4877630000000  0.5594510000000 1.0
C      1  0.4505940000000  0.4971820000000  0.5113320000000 1.0
C      1  0.5110380000000  0.4961020000000  0.5507620000000 1.0
C      1  0.5551740000000  0.4961370000000  0.4857430000000 1.0
C      1  0.4861590000000  0.4949780000000  0.4449220000000 1.0
C      1  0.4978350000000  0.4817670000000  0.4785850000000 1.0
C      1  0.4790080000000  0.4815570000000  0.5019200000000 1.0
C      1  0.5028350000000  0.4819730000000  0.5207600000000 1.0
C      1  0.5214870000000  0.4821150000000  0.4968880000000 1.0
C      1  0.4546190000000  0.5588930000000  0.4950280000000 1.0
C      1  0.4949460000000  0.5590590000000  0.5454720000000 1.0
C      1  0.5449550000000  0.5589960000000  0.5064380000000 1.0
C      1  0.5050840000000  0.5591270000000  0.4543960000000 1.0
C      1  0.4454330000000  0.4607720000000  0.4614490000000 1.0
C      1  0.4619070000000  0.4598520000000  0.5541350000000 1.0
C      1  0.5538160000000  0.4600200000000  0.5385580000000 1.0
C      1  0.5385970000000  0.4608900000000  0.4459030000000 1.0
C      1  0.4704790000000  0.4481630000000  0.4940030000000 1.0
C      1  0.4937910000000  0.4487490000000  0.5296940000000 1.0
C      1  0.5286230000000  0.4487600000000  0.5063140000000 1.0
C      1  0.5064200000000  0.4489550000000  0.4702810000000 1.0
C      1  0.5196310000000  0.4964830000000  0.4172220000000 1.0
C      1  0.4178540000000  0.4964730000000  0.4818660000000 1.0
C      1  0.4809180000000  0.4969690000000  0.5814610000000 1.0
C      1  0.5813330000000  0.4969120000000  0.5207300000000 1.0
C      1  0.4433200000000  0.5342130000000  0.4509620000000 1.0
C      1  0.4507190000000  0.5348860000000  0.5563290000000 1.0
C      1  0.5560830000000  0.5346690000000  0.5498840000000 1.0
C      1  0.5494890000000  0.5344340000000  0.4427360000000 1.0
C      1  0.4259210000000  0.4851420000000  0.5452040000000 1.0
C      1  0.5427040000000  0.4857970000000  0.5718490000000 1.0
C      1  0.5677320000000  0.4877300000000  0.4603870000000 1.0
C      1  0.4603800000000  0.4875650000000  0.4320640000000 1.0
C      1  0.4887660000000  0.5233960000000  0.4825290000000 1.0
C      1  0.4826450000000  0.5226000000000  0.5110960000000 1.0
C      1  0.5111900000000  0.5236450000000  0.5171200000000 1.0
C      1  0.5173710000000  0.5228920000000  0.4886230000000 1.0
C      1  0.4689320000000  0.5441860000000  0.4414590000000 1.0
C      1  0.4415620000000  0.5445010000000  0.5309420000000 1.0
C      1  0.5306200000000  0.5440980000000  0.5583490000000 1.0
C      1  0.5587840000000  0.5439760000000  0.4680980000000 1.0
C      1  0.4795360000000  0.5744440000000  0.4916270000000 1.0
C      1  0.4893050000000  0.5741980000000  0.5205860000000 1.0
C      1  0.5207930000000  0.5745540000000  0.5089980000000 1.0
C      1  0.5101040000000  0.5736140000000  0.4797650000000 1.0
END
