TITL C-2441158-471-106 0.141285696870823 125000 -20160.9015747017 0 0 172 (C1) n - 1
REM
REM in /home/bkarasulu/work/CARBON/AIRSS/Generating-Clusters/ReaxFF-fromJPCA2015/Units_Real/with-SteepDescent/Higher-Symm
REM
REM
REM
REM
REM
REM ./C.cell (1df0a924f5614ab8850e4351716899ee)
REM
REM compiler GCC version 9.2.1 20190827 (Red Hat 9.2.1-1)
REM options -cpp -mtune=generic -march=x86-64 -g -O0 -fpre-include=/usr/include/finclude/math-vector-fortran.h
REM seed -316941634 791393501 1145906174 -383169177 -1430736289 -102578794 38182448 1135530404 -837444101 -1094228755 -1591562503 1805510326 600190120 1581556494 2131104327 -459590334 -1386148045 -2086154038 1346907923 278055209 -919241071 -2007317925 -2005843009 2096451971 -1434567172 -1632801655 1405516929 697849278 -1982888646 1676434223 934111619 -581189608 450954863
REM
CELL 1.54180   50.00000   50.00000   50.00000   90.00000   90.00000   90.00000
LATT -1
SFAC C  
C      1  0.4736190000000  0.5467090000000  0.5709820000000 1.0
C      1  0.5727330000000  0.4722920000000  0.5459690000000 1.0
C      1  0.5481440000000  0.5727150000000  0.4736520000000 1.0
C      1  0.5290060000000  0.4518270000000  0.5735240000000 1.0
C      1  0.5266790000000  0.5481180000000  0.4268730000000 1.0
C      1  0.4696900000000  0.4487870000000  0.4219730000000 1.0
C      1  0.4203700000000  0.5275930000000  0.5527190000000 1.0
C      1  0.4274070000000  0.4722210000000  0.4517280000000 1.0
C      1  0.5722620000000  0.5271590000000  0.4516970000000 1.0
C      1  0.4545560000000  0.4269890000000  0.4725040000000 1.0
C      1  0.4472000000000  0.5798540000000  0.5267050000000 1.0
C      1  0.5460980000000  0.4266300000000  0.5287040000000 1.0
C      1  0.4301230000000  0.4657080000000  0.4221580000000 1.0
C      1  0.4241880000000  0.4292010000000  0.4685460000000 1.0
C      1  0.4660990000000  0.4206610000000  0.4303970000000 1.0
C      1  0.5675230000000  0.5349560000000  0.4228160000000 1.0
C      1  0.5723390000000  0.4679250000000  0.5761430000000 1.0
C      1  0.4303250000000  0.5351990000000  0.5782800000000 1.0
C      1  0.5778510000000  0.5717540000000  0.4669830000000 1.0
C      1  0.5767230000000  0.4275180000000  0.5320960000000 1.0
C      1  0.4208090000000  0.5701180000000  0.5344390000000 1.0
C      1  0.5336050000000  0.5777070000000  0.4297130000000 1.0
C      1  0.5331090000000  0.4217060000000  0.5706490000000 1.0
C      1  0.4645290000000  0.5755710000000  0.5706580000000 1.0
C      1  0.5540220000000  0.4170670000000  0.4604700000000 1.0
C      1  0.4545220000000  0.5502480000000  0.4167370000000 1.0
C      1  0.4169840000000  0.4565270000000  0.5490510000000 1.0
C      1  0.4491090000000  0.5872430000000  0.4563040000000 1.0
C      1  0.4469870000000  0.4128660000000  0.5404390000000 1.0
C      1  0.5534290000000  0.5833710000000  0.5444030000000 1.0
C      1  0.5418340000000  0.4436120000000  0.4226920000000 1.0
C      1  0.5429080000000  0.5542900000000  0.5852430000000 1.0
C      1  0.4550530000000  0.4449980000000  0.5799850000000 1.0
C      1  0.5842060000000  0.5427420000000  0.5531150000000 1.0
C      1  0.5869660000000  0.4571080000000  0.4491760000000 1.0
C      1  0.4177100000000  0.5448120000000  0.4505570000000 1.0
C      1  0.5307730000000  0.5601800000000  0.5169040000000 1.0
C      1  0.5231470000000  0.5312400000000  0.5556840000000 1.0
C      1  0.5573890000000  0.5178310000000  0.5267180000000 1.0
C      1  0.4697050000000  0.4452330000000  0.5208000000000 1.0
C      1  0.4679510000000  0.5575940000000  0.4763090000000 1.0
C      1  0.5280250000000  0.4449190000000  0.4821970000000 1.0
C      1  0.4845040000000  0.4683640000000  0.5640220000000 1.0
C      1  0.4805120000000  0.5297700000000  0.4420890000000 1.0
C      1  0.5158720000000  0.4689630000000  0.4382420000000 1.0
C      1  0.4449290000000  0.4843320000000  0.5288290000000 1.0
C      1  0.4370430000000  0.5154040000000  0.4718750000000 1.0
C      1  0.5540240000000  0.4782180000000  0.4674930000000 1.0
C      1  0.5774070000000  0.4869080000000  0.5036380000000 1.0
C      1  0.5035740000000  0.5755570000000  0.4877970000000 1.0
C      1  0.4862480000000  0.5065040000000  0.5716030000000 1.0
C      1  0.4243280000000  0.5124790000000  0.5082400000000 1.0
C      1  0.4230650000000  0.4881910000000  0.4954440000000 1.0
C      1  0.5788770000000  0.5133830000000  0.4937470000000 1.0
C      1  0.4934770000000  0.4216160000000  0.4877040000000 1.0
C      1  0.4928800000000  0.5776760000000  0.5145560000000 1.0
C      1  0.5043700000000  0.4207130000000  0.5134610000000 1.0
C      1  0.5121040000000  0.4947500000000  0.5793290000000 1.0
C      1  0.5138840000000  0.5058940000000  0.4248870000000 1.0
C      1  0.4885850000000  0.4938020000000  0.4224250000000 1.0
C      1  0.4840770000000  0.4724160000000  0.4608280000000 1.0
C      1  0.4579460000000  0.4823430000000  0.4667400000000 1.0
C      1  0.4697360000000  0.4559560000000  0.4781620000000 1.0
C      1  0.5216400000000  0.5330910000000  0.4569710000000 1.0
C      1  0.5186250000000  0.4696440000000  0.5448260000000 1.0
C      1  0.4823180000000  0.5269440000000  0.5473340000000 1.0
C      1  0.5440290000000  0.5212140000000  0.4699930000000 1.0
C      1  0.5420280000000  0.4794800000000  0.5325170000000 1.0
C      1  0.4683240000000  0.5189980000000  0.5302370000000 1.0
C      1  0.5326090000000  0.5444700000000  0.4799420000000 1.0
C      1  0.5304620000000  0.4565690000000  0.5232780000000 1.0
C      1  0.4641940000000  0.5379690000000  0.5145170000000 1.0
C      1  0.4384900000000  0.4923620000000  0.4136290000000 1.0
C      1  0.4108760000000  0.4360020000000  0.4939280000000 1.0
C      1  0.4937180000000  0.4108170000000  0.4343780000000 1.0
C      1  0.5632640000000  0.5084130000000  0.4127670000000 1.0
C      1  0.5631270000000  0.4936530000000  0.5871340000000 1.0
C      1  0.4377610000000  0.5090600000000  0.5877270000000 1.0
C      1  0.5878670000000  0.5613270000000  0.4921700000000 1.0
C      1  0.5891520000000  0.4337560000000  0.5060970000000 1.0
C      1  0.4162940000000  0.5581980000000  0.5075990000000 1.0
C      1  0.5099340000000  0.5890920000000  0.4412300000000 1.0
C      1  0.5063850000000  0.4115780000000  0.5644260000000 1.0
C      1  0.4897950000000  0.5873920000000  0.5630780000000 1.0
C      1  0.5350820000000  0.4715530000000  0.4161720000000 1.0
C      1  0.4123020000000  0.5316210000000  0.4771600000000 1.0
C      1  0.4768870000000  0.4029400000000  0.5361380000000 1.0
C      1  0.4630850000000  0.5236380000000  0.4057430000000 1.0
C      1  0.4655470000000  0.4734030000000  0.5872130000000 1.0
C      1  0.5360990000000  0.5262440000000  0.5946940000000 1.0
C      1  0.5968440000000  0.4624180000000  0.4782660000000 1.0
C      1  0.5931270000000  0.5353220000000  0.5234400000000 1.0
C      1  0.4051270000000  0.4619310000000  0.5188870000000 1.0
C      1  0.5242570000000  0.5940160000000  0.5359520000000 1.0
C      1  0.5248000000000  0.4081100000000  0.4657520000000 1.0
C      1  0.4771910000000  0.5972740000000  0.4633750000000 1.0
C      1  0.4590610000000  0.4969440000000  0.5721170000000 1.0
C      1  0.5690190000000  0.4639590000000  0.4880750000000 1.0
C      1  0.4907430000000  0.5701270000000  0.4628860000000 1.0
C      1  0.5365940000000  0.5080800000000  0.5700880000000 1.0
C      1  0.5404850000000  0.4976010000000  0.4280210000000 1.0
C      1  0.4636740000000  0.5074520000000  0.4314760000000 1.0
C      1  0.4375510000000  0.5365330000000  0.5072510000000 1.0
C      1  0.4332280000000  0.4675090000000  0.5109970000000 1.0
C      1  0.5679250000000  0.5362360000000  0.5077090000000 1.0
C      1  0.5082430000000  0.4324420000000  0.4652780000000 1.0
C      1  0.5040030000000  0.5730250000000  0.5412070000000 1.0
C      1  0.4892320000000  0.4303250000000  0.5377650000000 1.0
C      1  0.5750190000000  0.5033230000000  0.5451210000000 1.0
C      1  0.5493450000000  0.5767710000000  0.5040420000000 1.0
C      1  0.5049180000000  0.5477580000000  0.5729800000000 1.0
C      1  0.4263620000000  0.4967550000000  0.5480900000000 1.0
C      1  0.4228130000000  0.5020760000000  0.4504450000000 1.0
C      1  0.5738460000000  0.4961000000000  0.4529940000000 1.0
C      1  0.4536110000000  0.4271850000000  0.5026630000000 1.0
C      1  0.4529120000000  0.5765140000000  0.4967110000000 1.0
C      1  0.5453580000000  0.4273280000000  0.4988330000000 1.0
C      1  0.4999430000000  0.4495000000000  0.5792170000000 1.0
C      1  0.4959150000000  0.5477570000000  0.4243380000000 1.0
C      1  0.4992090000000  0.4503100000000  0.4244570000000 1.0
C      1  0.5896600000000  0.4524450000000  0.5300580000000 1.0
C      1  0.5348740000000  0.5926560000000  0.4546820000000 1.0
C      1  0.4574190000000  0.5318060000000  0.5942460000000 1.0
C      1  0.4059370000000  0.5443470000000  0.5333390000000 1.0
C      1  0.4103110000000  0.4536830000000  0.4693890000000 1.0
C      1  0.5909810000000  0.5464120000000  0.4669970000000 1.0
C      1  0.4732640000000  0.4079660000000  0.4558860000000 1.0
C      1  0.4635190000000  0.5922560000000  0.5473710000000 1.0
C      1  0.5295010000000  0.4076990000000  0.5462280000000 1.0
C      1  0.5482370000000  0.4678800000000  0.5909170000000 1.0
C      1  0.5431760000000  0.5313620000000  0.4065180000000 1.0
C      1  0.4541580000000  0.4681760000000  0.4061630000000 1.0
C      1  0.5811580000000  0.5185170000000  0.5679070000000 1.0
C      1  0.5704060000000  0.5776510000000  0.5229540000000 1.0
C      1  0.5186450000000  0.5694300000000  0.5829190000000 1.0
C      1  0.4241400000000  0.4763280000000  0.5676090000000 1.0
C      1  0.4226370000000  0.5235340000000  0.4324760000000 1.0
C      1  0.5822370000000  0.4795190000000  0.4322060000000 1.0
C      1  0.4313470000000  0.4173390000000  0.5168520000000 1.0
C      1  0.4322880000000  0.5814840000000  0.4786270000000 1.0
C      1  0.5688980000000  0.4190270000000  0.4856540000000 1.0
C      1  0.4796950000000  0.4305930000000  0.5807580000000 1.0
C      1  0.4772180000000  0.5696860000000  0.4143400000000 1.0
C      1  0.5166240000000  0.4281850000000  0.4214860000000 1.0
C      1  0.6055820000000  0.5153140000000  0.5044170000000 1.0
C      1  0.5052810000000  0.6041770000000  0.5150520000000 1.0
C      1  0.5115550000000  0.5104340000000  0.6035720000000 1.0
C      1  0.3953440000000  0.4868630000000  0.5040220000000 1.0
C      1  0.3967740000000  0.5170950000000  0.5021580000000 1.0
C      1  0.6055850000000  0.4846360000000  0.4967610000000 1.0
C      1  0.4952510000000  0.3938930000000  0.5147450000000 1.0
C      1  0.4982210000000  0.6036370000000  0.4841270000000 1.0
C      1  0.5026100000000  0.3951630000000  0.4830150000000 1.0
C      1  0.4818250000000  0.5099620000000  0.6012610000000 1.0
C      1  0.4868380000000  0.5056770000000  0.3958060000000 1.0
C      1  0.5155150000000  0.5086180000000  0.3971000000000 1.0
C      1  0.4700300000000  0.4941660000000  0.5199520000000 1.0
C      1  0.5135830000000  0.4618420000000  0.4997210000000 1.0
C      1  0.4961880000000  0.5184070000000  0.4636660000000 1.0
C      1  0.5352570000000  0.5024430000000  0.5158900000000 1.0
C      1  0.5342960000000  0.4948120000000  0.4817100000000 1.0
C      1  0.4601040000000  0.5045540000000  0.4855950000000 1.0
C      1  0.4816070000000  0.5350880000000  0.4897620000000 1.0
C      1  0.4851910000000  0.4595410000000  0.5020320000000 1.0
C      1  0.5148370000000  0.5404450000000  0.5053470000000 1.0
C      1  0.5086780000000  0.4867320000000  0.4621650000000 1.0
C      1  0.5132320000000  0.5216920000000  0.5301490000000 1.0
C      1  0.4914410000000  0.4797690000000  0.5395320000000 1.0
C      1  0.4403970000000  0.4394630000000  0.5542730000000 1.0
C      1  0.5598070000000  0.4431680000000  0.4464500000000 1.0
C      1  0.4451400000000  0.5573590000000  0.4468860000000 1.0
C      1  0.5611070000000  0.5604000000000  0.5605990000000 1.0
END
