TITL C-2441158-471-924 0.066270699477955 125000 -3094.10282275877 0 0 39 (D3h) n - 1
REM
REM in /home/bkarasulu/work/CARBON/AIRSS/Generating-Clusters/ReaxFF-fromJPCA2015/Units_Real/with-SteepDescent/Higher-Symm
REM
REM
REM
REM
REM
REM ./C.cell (1df0a924f5614ab8850e4351716899ee)
REM
REM compiler GCC version 9.2.1 20190827 (Red Hat 9.2.1-1)
REM options -cpp -mtune=generic -march=x86-64 -g -O0 -fpre-include=/usr/include/finclude/math-vector-fortran.h
REM seed -1541018326 -1855755180 886399908 -2037714532 1640442684 1849124062 276380469 -283816630 798806991 274750042 -346574730 -1049016072 -1293769143 -1035690470 -1580512587 2054668515 1058374605 1608094929 728273626 2086859692 -247836411 1661863528 -653132428 -448275564 -1836037697 -506641597 2005648769 -1576305801 -1157851994 289116365 1052439691 1059694998 461502461
REM
CELL 1.54180   50.00000   50.00000   50.00000   90.00000   90.00000   90.00000
LATT -1
SFAC C  
C      1  0.5514350000000  0.4691710000000  0.4675630000000 1.0
C      1  0.5513300000000  0.4872850000000  0.5428420000000 1.0
C      1  0.5513590000000  0.5434890000000  0.4896020000000 1.0
C      1  0.4467550000000  0.4691890000000  0.4675820000000 1.0
C      1  0.4467290000000  0.4872940000000  0.5429080000000 1.0
C      1  0.4467480000000  0.5434940000000  0.4895380000000 1.0
C      1  0.5514760000000  0.5308140000000  0.4674820000000 1.0
C      1  0.5514310000000  0.5127130000000  0.5429050000000 1.0
C      1  0.5514200000000  0.4565370000000  0.4894750000000 1.0
C      1  0.4467550000000  0.5308070000000  0.4675760000000 1.0
C      1  0.4467410000000  0.5126930000000  0.5429010000000 1.0
C      1  0.4467490000000  0.4565070000000  0.4895370000000 1.0
C      1  0.5276860000000  0.4861490000000  0.5272470000000 1.0
C      1  0.5278140000000  0.5304410000000  0.4984250000000 1.0
C      1  0.5276730000000  0.4834460000000  0.4743920000000 1.0
C      1  0.4704920000000  0.4861350000000  0.5271410000000 1.0
C      1  0.4705080000000  0.5304480000000  0.4984430000000 1.0
C      1  0.4704770000000  0.4834090000000  0.4744310000000 1.0
C      1  0.5275800000000  0.5138570000000  0.5270950000000 1.0
C      1  0.5276640000000  0.4696270000000  0.4984730000000 1.0
C      1  0.5276360000000  0.5165450000000  0.4744310000000 1.0
C      1  0.4704650000000  0.5138530000000  0.5271420000000 1.0
C      1  0.4704910000000  0.4695490000000  0.4984310000000 1.0
C      1  0.4705070000000  0.5165790000000  0.4744140000000 1.0
C      1  0.4842870000000  0.5563300000000  0.5102430000000 1.0
C      1  0.4843070000000  0.4806800000000  0.4460770000000 1.0
C      1  0.4843110000000  0.4629530000000  0.5436830000000 1.0
C      1  0.5138640000000  0.5563610000000  0.5102230000000 1.0
C      1  0.5138340000000  0.4806880000000  0.4460460000000 1.0
C      1  0.5138850000000  0.4630200000000  0.5436740000000 1.0
C      1  0.4843020000000  0.4436570000000  0.5102400000000 1.0
C      1  0.4843010000000  0.5193180000000  0.4460810000000 1.0
C      1  0.4843180000000  0.5370430000000  0.5436740000000 1.0
C      1  0.5137960000000  0.4435670000000  0.5102750000000 1.0
C      1  0.5138510000000  0.5193150000000  0.4460680000000 1.0
C      1  0.5138510000000  0.5370010000000  0.5436890000000 1.0
C      1  0.4990160000000  0.5356900000000  0.5206510000000 1.0
C      1  0.4990770000000  0.4643640000000  0.5205780000000 1.0
C      1  0.4990670000000  0.4999830000000  0.4588230000000 1.0
END
