TITL C-2441169-1362-1021 0.00207536647100661 125000 -8543.56113397265 0 0 58 (C1) n - 1
REM
REM in /home/bkarasulu/work/CARBON/AIRSS/Generating-Clusters/ReaxFF-fromJPCA2015/Units_Real/with-SteepDescent/Higher-Symm
REM
REM
REM
REM
REM
REM ./C.cell (1df0a924f5614ab8850e4351716899ee)
REM
REM compiler GCC version 9.2.1 20190827 (Red Hat 9.2.1-1)
REM options -cpp -mtune=generic -march=x86-64 -g -O0 -fpre-include=/usr/include/finclude/math-vector-fortran.h
REM seed -565813077 548071286 86056669 1348631471 -2094047124 -1923175117 366729200 80884409 -1540914686 667228157 1154330727 -855255727 -265923684 1986618177 -1886301259 318068379 522703313 -1711073686 2046316657 -395745754 582956712 -658215396 1053397004 2064643510 -1415093154 608218442 -355933974 -1005252514 1373871474 -1460571148 -3849877 -1218488896 -1391884679
REM
CELL 1.54180   50.00000   50.00000   50.00000   90.00000   90.00000   90.00000
LATT -1
SFAC C  
C      1  0.4447750000000  0.5234710000000  0.5233750000000 1.0
C      1  0.4563080000000  0.4534320000000  0.5197960000000 1.0
C      1  0.5299710000000  0.4470900000000  0.5211920000000 1.0
C      1  0.5603550000000  0.5132720000000  0.5212390000000 1.0
C      1  0.5076770000000  0.5614500000000  0.5193010000000 1.0
C      1  0.4784890000000  0.5276410000000  0.4833920000000 1.0
C      1  0.4618990000000  0.4884450000000  0.4932450000000 1.0
C      1  0.5082820000000  0.4696950000000  0.4869690000000 1.0
C      1  0.5282590000000  0.4913040000000  0.4864450000000 1.0
C      1  0.5233250000000  0.5190130000000  0.4944570000000 1.0
C      1  0.5362760000000  0.5557840000000  0.5231940000000 1.0
C      1  0.4624210000000  0.5460490000000  0.5245140000000 1.0
C      1  0.4381870000000  0.4763180000000  0.5242210000000 1.0
C      1  0.5025240000000  0.4357670000000  0.5249120000000 1.0
C      1  0.5594830000000  0.4840350000000  0.5265540000000 1.0
C      1  0.5032610000000  0.4445850000000  0.4705540000000 1.0
C      1  0.5538330000000  0.4841990000000  0.4702790000000 1.0
C      1  0.5303260000000  0.5410830000000  0.4747390000000 1.0
C      1  0.4639100000000  0.5455490000000  0.4674110000000 1.0
C      1  0.4469520000000  0.4792780000000  0.4699940000000 1.0
C      1  0.5092300000000  0.5484900000000  0.4553380000000 1.0
C      1  0.4532500000000  0.5227470000000  0.4503660000000 1.0
C      1  0.4646280000000  0.4644610000000  0.4514670000000 1.0
C      1  0.5236810000000  0.4535230000000  0.4507650000000 1.0
C      1  0.5515750000000  0.5065820000000  0.4514230000000 1.0
C      1  0.4800790000000  0.4517970000000  0.5367410000000 1.0
C      1  0.5359260000000  0.4694020000000  0.5384320000000 1.0
C      1  0.5415830000000  0.5293420000000  0.5366850000000 1.0
C      1  0.4925520000000  0.5380120000000  0.5306820000000 1.0
C      1  0.4498540000000  0.5002280000000  0.5391600000000 1.0
C      1  0.5163890000000  0.4777560000000  0.5589750000000 1.0
C      1  0.5250090000000  0.5240100000000  0.5600690000000 1.0
C      1  0.4941290000000  0.5213970000000  0.5615810000000 1.0
C      1  0.4744800000000  0.4991530000000  0.5548280000000 1.0
C      1  0.4877860000000  0.4739030000000  0.5544380000000 1.0
C      1  0.5693340000000  0.5275090000000  0.4960210000000 1.0
C      1  0.4939740000000  0.5740350000000  0.4957470000000 1.0
C      1  0.4381250000000  0.5078650000000  0.4967110000000 1.0
C      1  0.4617560000000  0.4369580000000  0.4947480000000 1.0
C      1  0.5477360000000  0.4450120000000  0.4965270000000 1.0
C      1  0.5642060000000  0.4659210000000  0.5050160000000 1.0
C      1  0.5572360000000  0.5517610000000  0.5040280000000 1.0
C      1  0.4687320000000  0.5656970000000  0.5048300000000 1.0
C      1  0.4233310000000  0.4873490000000  0.5021710000000 1.0
C      1  0.4862320000000  0.4263920000000  0.5035410000000 1.0
C      1  0.5570760000000  0.5300260000000  0.4683790000000 1.0
C      1  0.4880240000000  0.5649190000000  0.4675340000000 1.0
C      1  0.4352790000000  0.5064470000000  0.4673750000000 1.0
C      1  0.4735160000000  0.4417280000000  0.4673410000000 1.0
C      1  0.5476050000000  0.4555340000000  0.4681230000000 1.0
C      1  0.5126320000000  0.4777140000000  0.4375610000000 1.0
C      1  0.5253490000000  0.5040390000000  0.4379690000000 1.0
C      1  0.5040000000000  0.5243960000000  0.4393520000000 1.0
C      1  0.4776960000000  0.5110650000000  0.4386430000000 1.0
C      1  0.4835740000000  0.4823020000000  0.4379350000000 1.0
C      1  0.4858340000000  0.5030030000000  0.4949400000000 1.0
C      1  0.5151450000000  0.5026850000000  0.5711340000000 1.0
C      1  0.5035740000000  0.5157340000000  0.5144720000000 1.0
END
