TITL C-2441156-4686-1231 0.187282903911227 125000 -17165.8200937436 0 0 148 (C1) n - 1
REM
REM in /home/bkarasulu/work/CARBON/AIRSS/Generating-Clusters/ReaxFF-fromJPCA2015/Units_Real/with-SteepDescent/Higher-Symm
REM
REM
REM
REM
REM
REM ./C.cell (1df0a924f5614ab8850e4351716899ee)
REM
REM compiler GCC version 9.2.1 20190827 (Red Hat 9.2.1-1)
REM options -cpp -mtune=generic -march=x86-64 -g -O0 -fpre-include=/usr/include/finclude/math-vector-fortran.h
REM seed 589140692 -21283869 -1886844878 1650993650 -760151930 -1813578165 2049004118 -1383001498 -293609891 693922836 -1353884559 1082886170 -1176234273 16997590 1569588782 1096746286 -607084797 -599610027 -1887313860 1027468854 1467321756 -228802421 1417947100 -2036994605 -487840410 -930476273 -1037270455 -2098435783 -291321862 -1971189499 -1983960791 -610323304 -591914859
REM
CELL 1.54180   50.00000   50.00000   50.00000   90.00000   90.00000   90.00000
LATT -1
SFAC C  
C      1  0.4703050000000  0.5860990000000  0.4819240000000 1.0
C      1  0.4809650000000  0.4715310000000  0.5855830000000 1.0
C      1  0.5860160000000  0.4807260000000  0.4710580000000 1.0
C      1  0.5283300000000  0.5863340000000  0.5186300000000 1.0
C      1  0.4706310000000  0.4129050000000  0.5181890000000 1.0
C      1  0.5281640000000  0.4133380000000  0.4811610000000 1.0
C      1  0.5180330000000  0.4715940000000  0.4141750000000 1.0
C      1  0.4810390000000  0.5276330000000  0.4147290000000 1.0
C      1  0.5177010000000  0.5277930000000  0.5818570000000 1.0
C      1  0.4149150000000  0.4810800000000  0.5276510000000 1.0
C      1  0.5848970000000  0.5181270000000  0.5279750000000 1.0
C      1  0.4140330000000  0.5174660000000  0.4705790000000 1.0
C      1  0.4163240000000  0.4542720000000  0.5148010000000 1.0
C      1  0.5145650000000  0.4164000000000  0.4547330000000 1.0
C      1  0.4542210000000  0.5148590000000  0.4157500000000 1.0
C      1  0.5798240000000  0.4540720000000  0.4837560000000 1.0
C      1  0.4209830000000  0.5441170000000  0.4834520000000 1.0
C      1  0.5825020000000  0.5451530000000  0.5145060000000 1.0
C      1  0.4842560000000  0.4189670000000  0.5454240000000 1.0
C      1  0.5154350000000  0.5832010000000  0.5449140000000 1.0
C      1  0.4841090000000  0.5825470000000  0.4548740000000 1.0
C      1  0.5447780000000  0.5152970000000  0.5831450000000 1.0
C      1  0.4539780000000  0.4845360000000  0.5834270000000 1.0
C      1  0.5457580000000  0.4847410000000  0.4163510000000 1.0
C      1  0.4531220000000  0.5380120000000  0.4847830000000 1.0
C      1  0.4871690000000  0.4482660000000  0.5328660000000 1.0
C      1  0.5365950000000  0.4892210000000  0.4543750000000 1.0
C      1  0.5419610000000  0.5363420000000  0.5124320000000 1.0
C      1  0.4558140000000  0.4660480000000  0.5182040000000 1.0
C      1  0.5469670000000  0.4644910000000  0.4832720000000 1.0
C      1  0.5199970000000  0.4561560000000  0.4696230000000 1.0
C      1  0.4773170000000  0.5462740000000  0.4705640000000 1.0
C      1  0.5194080000000  0.5413270000000  0.5343450000000 1.0
C      1  0.4619400000000  0.4868480000000  0.5419030000000 1.0
C      1  0.5355670000000  0.5110460000000  0.5451740000000 1.0
C      1  0.4605080000000  0.5092180000000  0.4521900000000 1.0
C      1  0.4659170000000  0.5486670000000  0.5256610000000 1.0
C      1  0.5256640000000  0.4643760000000  0.5490280000000 1.0
C      1  0.5488410000000  0.5260810000000  0.4683810000000 1.0
C      1  0.5333290000000  0.5486600000000  0.4737290000000 1.0
C      1  0.4668580000000  0.4509180000000  0.4762180000000 1.0
C      1  0.5330830000000  0.4507410000000  0.5237900000000 1.0
C      1  0.4755800000000  0.4637680000000  0.4513900000000 1.0
C      1  0.5227600000000  0.5343370000000  0.4511090000000 1.0
C      1  0.4725660000000  0.5354230000000  0.5499170000000 1.0
C      1  0.4509240000000  0.5266580000000  0.5358950000000 1.0
C      1  0.5472650000000  0.4752010000000  0.5327360000000 1.0
C      1  0.4509630000000  0.4722730000000  0.4668130000000 1.0
C      1  0.4855840000000  0.5936900000000  0.5042910000000 1.0
C      1  0.5040470000000  0.4854110000000  0.5954340000000 1.0
C      1  0.5932150000000  0.5039630000000  0.4857990000000 1.0
C      1  0.5139770000000  0.5935640000000  0.4958310000000 1.0
C      1  0.4851720000000  0.4041660000000  0.4961930000000 1.0
C      1  0.5141020000000  0.4051670000000  0.5043220000000 1.0
C      1  0.4953130000000  0.4854160000000  0.4044120000000 1.0
C      1  0.5035750000000  0.5141050000000  0.4052760000000 1.0
C      1  0.4963850000000  0.5141510000000  0.5939780000000 1.0
C      1  0.4075180000000  0.5042340000000  0.5137340000000 1.0
C      1  0.5927870000000  0.4952430000000  0.5142910000000 1.0
C      1  0.4060960000000  0.4959410000000  0.4855960000000 1.0
C      1  0.4860910000000  0.5037500000000  0.5549170000000 1.0
C      1  0.5522850000000  0.4852110000000  0.5033890000000 1.0
C      1  0.5032320000000  0.5537990000000  0.4874830000000 1.0
C      1  0.5151400000000  0.5055080000000  0.4441450000000 1.0
C      1  0.4850850000000  0.4927280000000  0.4468130000000 1.0
C      1  0.5146700000000  0.4913390000000  0.5575220000000 1.0
C      1  0.4447500000000  0.4837800000000  0.4951680000000 1.0
C      1  0.5561900000000  0.5153090000000  0.4954240000000 1.0
C      1  0.4495700000000  0.5148420000000  0.5040100000000 1.0
C      1  0.4962410000000  0.5552240000000  0.5177370000000 1.0
C      1  0.5066050000000  0.4430590000000  0.5133030000000 1.0
C      1  0.4969980000000  0.4439030000000  0.4860250000000 1.0
C      1  0.5685390000000  0.5647960000000  0.5311310000000 1.0
C      1  0.5307960000000  0.5688760000000  0.5642500000000 1.0
C      1  0.5639310000000  0.5313070000000  0.5682320000000 1.0
C      1  0.4297470000000  0.5675490000000  0.4667910000000 1.0
C      1  0.5693480000000  0.4318770000000  0.4669240000000 1.0
C      1  0.4308160000000  0.4355590000000  0.5311250000000 1.0
C      1  0.4679380000000  0.5690930000000  0.4342120000000 1.0
C      1  0.5306690000000  0.4306560000000  0.4353860000000 1.0
C      1  0.4672420000000  0.4311690000000  0.5662280000000 1.0
C      1  0.4350280000000  0.5309510000000  0.4310580000000 1.0
C      1  0.5647680000000  0.4680020000000  0.4314020000000 1.0
C      1  0.4342180000000  0.4684970000000  0.5692870000000 1.0
C      1  0.5016410000000  0.5283100000000  0.4941280000000 1.0
C      1  0.4914620000000  0.4735640000000  0.5307690000000 1.0
C      1  0.5251800000000  0.4989720000000  0.4770730000000 1.0
C      1  0.5206670000000  0.5181240000000  0.5008880000000 1.0
C      1  0.4824060000000  0.4799430000000  0.5066130000000 1.0
C      1  0.5080110000000  0.4810740000000  0.5043720000000 1.0
C      1  0.5114180000000  0.4807940000000  0.4816160000000 1.0
C      1  0.4877800000000  0.5210670000000  0.4774430000000 1.0
C      1  0.5005530000000  0.5166530000000  0.5322400000000 1.0
C      1  0.4724260000000  0.5021630000000  0.5160570000000 1.0
C      1  0.5185110000000  0.5019910000000  0.5195340000000 1.0
C      1  0.4752040000000  0.5015830000000  0.4726820000000 1.0
C      1  0.5786430000000  0.4891630000000  0.4456330000000 1.0
C      1  0.4430240000000  0.5804350000000  0.4902960000000 1.0
C      1  0.4888980000000  0.4448570000000  0.5789570000000 1.0
C      1  0.4205800000000  0.4893030000000  0.5542830000000 1.0
C      1  0.5765560000000  0.5103900000000  0.5538010000000 1.0
C      1  0.4204520000000  0.5095120000000  0.4448300000000 1.0
C      1  0.5543920000000  0.5789860000000  0.5102500000000 1.0
C      1  0.4449260000000  0.4211030000000  0.5102310000000 1.0
C      1  0.5548750000000  0.4198130000000  0.4887780000000 1.0
C      1  0.5098440000000  0.4453110000000  0.4213990000000 1.0
C      1  0.4890920000000  0.5540050000000  0.4212990000000 1.0
C      1  0.5086890000000  0.5551510000000  0.5777100000000 1.0
C      1  0.5567930000000  0.4271130000000  0.5178440000000 1.0
C      1  0.5181420000000  0.5560520000000  0.4277470000000 1.0
C      1  0.4276780000000  0.5183780000000  0.5558690000000 1.0
C      1  0.4444980000000  0.4273310000000  0.4810970000000 1.0
C      1  0.5549990000000  0.5722960000000  0.4812080000000 1.0
C      1  0.4429920000000  0.5730070000000  0.5200840000000 1.0
C      1  0.4785720000000  0.5549860000000  0.5730150000000 1.0
C      1  0.5184360000000  0.4422660000000  0.5722600000000 1.0
C      1  0.4804760000000  0.4435200000000  0.4279570000000 1.0
C      1  0.5713200000000  0.5186060000000  0.4449780000000 1.0
C      1  0.4275100000000  0.4806540000000  0.4437430000000 1.0
C      1  0.5707910000000  0.4811780000000  0.5555880000000 1.0
C      1  0.4118330000000  0.4713160000000  0.4702640000000 1.0
C      1  0.4697530000000  0.4110320000000  0.4714900000000 1.0
C      1  0.4707380000000  0.4703840000000  0.4120560000000 1.0
C      1  0.5865580000000  0.4707690000000  0.5294990000000 1.0
C      1  0.4126460000000  0.5288660000000  0.5287380000000 1.0
C      1  0.5878130000000  0.5288770000000  0.4694820000000 1.0
C      1  0.5292860000000  0.4111160000000  0.5288330000000 1.0
C      1  0.4707850000000  0.5883070000000  0.5291900000000 1.0
C      1  0.5287960000000  0.5879910000000  0.4712510000000 1.0
C      1  0.5283000000000  0.4702820000000  0.5880670000000 1.0
C      1  0.4712150000000  0.5287070000000  0.5884990000000 1.0
C      1  0.5283030000000  0.5292080000000  0.4111760000000 1.0
C      1  0.4488050000000  0.4856100000000  0.4203080000000 1.0
C      1  0.4208410000000  0.4499000000000  0.4863220000000 1.0
C      1  0.4859530000000  0.4201070000000  0.4500620000000 1.0
C      1  0.5497520000000  0.4860720000000  0.5788200000000 1.0
C      1  0.4493240000000  0.5129960000000  0.5795770000000 1.0
C      1  0.5503390000000  0.5141890000000  0.4203470000000 1.0
C      1  0.5782870000000  0.4482930000000  0.5145820000000 1.0
C      1  0.4218940000000  0.5515740000000  0.5146070000000 1.0
C      1  0.5786410000000  0.5504560000000  0.4855570000000 1.0
C      1  0.5151890000000  0.4198890000000  0.5515540000000 1.0
C      1  0.4870900000000  0.5794750000000  0.5505280000000 1.0
C      1  0.5131790000000  0.5789030000000  0.4494080000000 1.0
C      1  0.4422900000000  0.5576600000000  0.4420810000000 1.0
C      1  0.4422320000000  0.4426950000000  0.5573990000000 1.0
C      1  0.5572040000000  0.4417350000000  0.4423650000000 1.0
C      1  0.5566340000000  0.5569750000000  0.5568580000000 1.0
END
