TITL C-2441164-471-1239 0.116230393404392 125000 -16795.3412025419 0 0 137 (C1) n - 1
REM
REM in /home/bkarasulu/work/CARBON/AIRSS/Generating-Clusters/ReaxFF-fromJPCA2015/Units_Real/with-SteepDescent/Higher-Symm
REM
REM
REM
REM
REM
REM ./C.cell (1df0a924f5614ab8850e4351716899ee)
REM
REM compiler GCC version 9.2.1 20190827 (Red Hat 9.2.1-1)
REM options -cpp -mtune=generic -march=x86-64 -g -O0 -fpre-include=/usr/include/finclude/math-vector-fortran.h
REM seed 325504747 1441177663 -543704736 831602903 -299834516 -1967458119 170721098 -238446064 545486392 -1192085132 -192368196 1801227536 -955452953 -1256144982 -738310308 -1036683339 2092933795 -1125564225 -146416821 1132697963 1440147372 -1552029590 871628721 -1032060665 1471972060 1857286743 -1445365761 1395138462 732786610 -1502700918 -1856323126 -1257224624 -954511171
REM
CELL 1.54180   50.00000   50.00000   50.00000   90.00000   90.00000   90.00000
LATT -1
SFAC C  
C      1  0.5276880000000  0.5179830000000  0.4989110000000 1.0
C      1  0.4844620000000  0.5203460000000  0.4781460000000 1.0
C      1  0.4888950000000  0.5204200000000  0.5256280000000 1.0
C      1  0.5566540000000  0.4917090000000  0.5030300000000 1.0
C      1  0.4725180000000  0.4956430000000  0.4497750000000 1.0
C      1  0.4686920000000  0.4959830000000  0.5484760000000 1.0
C      1  0.5170740000000  0.4067320000000  0.5010910000000 1.0
C      1  0.4921640000000  0.4041760000000  0.4792760000000 1.0
C      1  0.4889800000000  0.4084600000000  0.5205530000000 1.0
C      1  0.4282190000000  0.4878240000000  0.5060050000000 1.0
C      1  0.5439400000000  0.4880100000000  0.5582500000000 1.0
C      1  0.5303070000000  0.4912530000000  0.4311680000000 1.0
C      1  0.4151280000000  0.4453550000000  0.5022390000000 1.0
C      1  0.5519620000000  0.4421110000000  0.5774930000000 1.0
C      1  0.5468410000000  0.4516820000000  0.4237020000000 1.0
C      1  0.4826870000000  0.5927600000000  0.5265400000000 1.0
C      1  0.5327240000000  0.5921760000000  0.5019900000000 1.0
C      1  0.4861490000000  0.5915670000000  0.4713900000000 1.0
C      1  0.4423160000000  0.5510520000000  0.4751870000000 1.0
C      1  0.5076310000000  0.5513720000000  0.5629320000000 1.0
C      1  0.5511290000000  0.5484820000000  0.4634070000000 1.0
C      1  0.5641200000000  0.4699240000000  0.4521570000000 1.0
C      1  0.4260290000000  0.4635930000000  0.4682130000000 1.0
C      1  0.5092200000000  0.4687160000000  0.5751760000000 1.0
C      1  0.4174670000000  0.5254280000000  0.5458910000000 1.0
C      1  0.5802690000000  0.5264410000000  0.5486930000000 1.0
C      1  0.5018820000000  0.5263100000000  0.4065160000000 1.0
C      1  0.4996550000000  0.4338810000000  0.5559450000000 1.0
C      1  0.5454500000000  0.4331200000000  0.4736060000000 1.0
C      1  0.4526410000000  0.4330210000000  0.4736110000000 1.0
C      1  0.5126750000000  0.5880300000000  0.5283830000000 1.0
C      1  0.5196930000000  0.5888080000000  0.4753940000000 1.0
C      1  0.4695480000000  0.5883030000000  0.4963600000000 1.0
C      1  0.4353640000000  0.5484190000000  0.5522250000000 1.0
C      1  0.5773490000000  0.5479330000000  0.5274690000000 1.0
C      1  0.4874230000000  0.5491720000000  0.4182200000000 1.0
C      1  0.5133750000000  0.4733980000000  0.5216470000000 1.0
C      1  0.5168610000000  0.4833230000000  0.4737270000000 1.0
C      1  0.4781130000000  0.4730700000000  0.5004270000000 1.0
C      1  0.5473880000000  0.5643890000000  0.5555400000000 1.0
C      1  0.5263540000000  0.5636360000000  0.4317900000000 1.0
C      1  0.4271480000000  0.5636390000000  0.5120220000000 1.0
C      1  0.5209570000000  0.5758650000000  0.5558810000000 1.0
C      1  0.5398410000000  0.5740000000000  0.4551770000000 1.0
C      1  0.4413150000000  0.5753410000000  0.4899750000000 1.0
C      1  0.4539650000000  0.5127150000000  0.5657770000000 1.0
C      1  0.5765550000000  0.5112710000000  0.5107280000000 1.0
C      1  0.4653340000000  0.5133150000000  0.4287010000000 1.0
C      1  0.4333160000000  0.4537400000000  0.5392040000000 1.0
C      1  0.5649680000000  0.4518080000000  0.5382170000000 1.0
C      1  0.5028260000000  0.4524790000000  0.4236320000000 1.0
C      1  0.5007280000000  0.5547870000000  0.4441290000000 1.0
C      1  0.4502540000000  0.5553260000000  0.5285450000000 1.0
C      1  0.5493110000000  0.5537310000000  0.5280650000000 1.0
C      1  0.4284350000000  0.5353160000000  0.4546460000000 1.0
C      1  0.4940750000000  0.5368800000000  0.5843790000000 1.0
C      1  0.5717100000000  0.5303240000000  0.4486560000000 1.0
C      1  0.4548640000000  0.4758370000000  0.4846130000000 1.0
C      1  0.5037990000000  0.4770550000000  0.5484180000000 1.0
C      1  0.5416310000000  0.4729120000000  0.4696290000000 1.0
C      1  0.4759680000000  0.4215510000000  0.4315920000000 1.0
C      1  0.4529330000000  0.4203120000000  0.5522980000000 1.0
C      1  0.5704090000000  0.4172140000000  0.5131000000000 1.0
C      1  0.5825600000000  0.4713210000000  0.4958010000000 1.0
C      1  0.4521250000000  0.4694650000000  0.4275260000000 1.0
C      1  0.4613130000000  0.4696650000000  0.5783240000000 1.0
C      1  0.5821790000000  0.4315450000000  0.5342660000000 1.0
C      1  0.4912020000000  0.4320290000000  0.4103140000000 1.0
C      1  0.4277710000000  0.4322380000000  0.5548980000000 1.0
C      1  0.4654160000000  0.4806330000000  0.5248610000000 1.0
C      1  0.5384740000000  0.4840000000000  0.5248060000000 1.0
C      1  0.4961790000000  0.4811800000000  0.4559360000000 1.0
C      1  0.5579430000000  0.5370960000000  0.5644390000000 1.0
C      1  0.5270110000000  0.5367450000000  0.4187890000000 1.0
C      1  0.4158950000000  0.5356690000000  0.5183040000000 1.0
C      1  0.5834250000000  0.5305440000000  0.4905370000000 1.0
C      1  0.4477070000000  0.5359100000000  0.4333800000000 1.0
C      1  0.4660020000000  0.5360800000000  0.5791560000000 1.0
C      1  0.4721550000000  0.4446390000000  0.5610700000000 1.0
C      1  0.5642720000000  0.4428800000000  0.4950540000000 1.0
C      1  0.4626830000000  0.4478210000000  0.4459560000000 1.0
C      1  0.4579940000000  0.5017290000000  0.4723390000000 1.0
C      1  0.4948050000000  0.5030510000000  0.5509740000000 1.0
C      1  0.5405220000000  0.4997570000000  0.4814510000000 1.0
C      1  0.5840100000000  0.4832730000000  0.4682430000000 1.0
C      1  0.4293320000000  0.4778980000000  0.4429410000000 1.0
C      1  0.4857810000000  0.4784510000000  0.5892210000000 1.0
C      1  0.5005860000000  0.4333480000000  0.5279780000000 1.0
C      1  0.5205040000000  0.4319600000000  0.4865550000000 1.0
C      1  0.4780420000000  0.4286420000000  0.4857530000000 1.0
C      1  0.5654430000000  0.5121020000000  0.4285360000000 1.0
C      1  0.4058390000000  0.5102230000000  0.4763960000000 1.0
C      1  0.5281930000000  0.5037640000000  0.5933540000000 1.0
C      1  0.4916260000000  0.4540120000000  0.4508990000000 1.0
C      1  0.4626880000000  0.4542880000000  0.5337380000000 1.0
C      1  0.5438800000000  0.4471500000000  0.5164750000000 1.0
C      1  0.4629560000000  0.5603400000000  0.4301440000000 1.0
C      1  0.4566670000000  0.5613300000000  0.5680320000000 1.0
C      1  0.5775400000000  0.5587610000000  0.4994920000000 1.0
C      1  0.5408730000000  0.4176480000000  0.5178600000000 1.0
C      1  0.4942870000000  0.4135010000000  0.4524550000000 1.0
C      1  0.4614810000000  0.4190680000000  0.5230580000000 1.0
C      1  0.5038100000000  0.5617460000000  0.5162370000000 1.0
C      1  0.5125240000000  0.5603210000000  0.4880240000000 1.0
C      1  0.4838940000000  0.5617940000000  0.4963080000000 1.0
C      1  0.5405090000000  0.5167370000000  0.5531940000000 1.0
C      1  0.5233760000000  0.5172540000000  0.4408610000000 1.0
C      1  0.4355900000000  0.5163430000000  0.5093240000000 1.0
C      1  0.5168090000000  0.4768910000000  0.4116090000000 1.0
C      1  0.4159430000000  0.4760540000000  0.5296320000000 1.0
C      1  0.5681980000000  0.4741270000000  0.5586900000000 1.0
C      1  0.4283270000000  0.5077210000000  0.4589960000000 1.0
C      1  0.5001630000000  0.5077410000000  0.5861370000000 1.0
C      1  0.5855690000000  0.5135690000000  0.4674740000000 1.0
C      1  0.4679270000000  0.4899030000000  0.4112020000000 1.0
C      1  0.4390770000000  0.4886560000000  0.5725930000000 1.0
C      1  0.5919210000000  0.4885180000000  0.5194200000000 1.0
C      1  0.5551660000000  0.5778490000000  0.4945540000000 1.0
C      1  0.4705130000000  0.5795710000000  0.4515310000000 1.0
C      1  0.4732760000000  0.5804890000000  0.5502830000000 1.0
C      1  0.5329630000000  0.5414330000000  0.4837610000000 1.0
C      1  0.4673420000000  0.5409870000000  0.4876840000000 1.0
C      1  0.5052630000000  0.5409120000000  0.5343770000000 1.0
C      1  0.4196690000000  0.4961320000000  0.5511510000000 1.0
C      1  0.5850710000000  0.4964650000000  0.5467690000000 1.0
C      1  0.4960000000000  0.4972670000000  0.4057200000000 1.0
C      1  0.4395070000000  0.4323670000000  0.5001080000000 1.0
C      1  0.5259600000000  0.4438890000000  0.5676510000000 1.0
C      1  0.5404320000000  0.4383350000000  0.4464610000000 1.0
C      1  0.4604840000000  0.5301510000000  0.5161940000000 1.0
C      1  0.5328120000000  0.5290740000000  0.5281490000000 1.0
C      1  0.5026480000000  0.5282960000000  0.4556750000000 1.0
C      1  0.5532480000000  0.4937790000000  0.4159330000000 1.0
C      1  0.4014650000000  0.4965790000000  0.4979800000000 1.0
C      1  0.5490470000000  0.4962890000000  0.5871270000000 1.0
C      1  0.5014000000000  0.4500310000000  0.5009370000000 1.0
C      1  0.4998940000000  0.5126080000000  0.5008250000000 1.0
END
