TITL C-2441164-471-482 0.0146078009727581 125000 -13797.0622268533 0 0 97 (C1) n - 1
REM
REM in /home/bkarasulu/work/CARBON/AIRSS/Generating-Clusters/ReaxFF-fromJPCA2015/Units_Real/with-SteepDescent/Higher-Symm
REM
REM
REM
REM
REM
REM ./C.cell (1df0a924f5614ab8850e4351716899ee)
REM
REM compiler GCC version 9.2.1 20190827 (Red Hat 9.2.1-1)
REM options -cpp -mtune=generic -march=x86-64 -g -O0 -fpre-include=/usr/include/finclude/math-vector-fortran.h
REM seed -408184210 131326385 -1734933713 -1955767994 -632064963 1656506420 -1736856363 1086287168 1367683143 -1699857945 1655969364 2026323992 -768638082 1122485791 720755927 1282617583 -1222752967 1141268443 176208587 -1767353130 -1903764571 -230777479 149312064 133643179 -927486936 -1491961256 96869862 476170331 402270979 -520813910 1839767649 1103700352 1519711725
REM
CELL 1.54180   50.00000   50.00000   50.00000   90.00000   90.00000   90.00000
LATT -1
SFAC C  
C      1  0.5138810000000  0.4766570000000  0.5352270000000 1.0
C      1  0.4875070000000  0.5312600000000  0.5255090000000 1.0
C      1  0.4861660000000  0.4793520000000  0.5341240000000 1.0
C      1  0.5130970000000  0.5198020000000  0.5281270000000 1.0
C      1  0.4307270000000  0.5609240000000  0.4912490000000 1.0
C      1  0.5713230000000  0.4371810000000  0.4862000000000 1.0
C      1  0.5651060000000  0.5597560000000  0.4909800000000 1.0
C      1  0.4294910000000  0.4358010000000  0.4865310000000 1.0
C      1  0.4550350000000  0.5648040000000  0.5235450000000 1.0
C      1  0.5435130000000  0.4353640000000  0.5256600000000 1.0
C      1  0.5410670000000  0.5660430000000  0.5232070000000 1.0
C      1  0.4585420000000  0.4375000000000  0.5253880000000 1.0
C      1  0.4715050000000  0.5205280000000  0.5510350000000 1.0
C      1  0.5294750000000  0.4828150000000  0.5600340000000 1.0
C      1  0.5286670000000  0.5172610000000  0.5563600000000 1.0
C      1  0.4702520000000  0.4852380000000  0.5594340000000 1.0
C      1  0.4865700000000  0.4391420000000  0.4498960000000 1.0
C      1  0.5109880000000  0.5590300000000  0.4501340000000 1.0
C      1  0.5156120000000  0.4388950000000  0.4540020000000 1.0
C      1  0.4836440000000  0.5616850000000  0.4573870000000 1.0
C      1  0.5479450000000  0.5251630000000  0.4629930000000 1.0
C      1  0.4482150000000  0.4688990000000  0.4577880000000 1.0
C      1  0.4500520000000  0.5280800000000  0.4632750000000 1.0
C      1  0.5493830000000  0.4747070000000  0.4664340000000 1.0
C      1  0.4714550000000  0.4864780000000  0.5100700000000 1.0
C      1  0.5167560000000  0.5047340000000  0.5033190000000 1.0
C      1  0.5273950000000  0.4780880000000  0.5097630000000 1.0
C      1  0.4906980000000  0.4987870000000  0.4928030000000 1.0
C      1  0.4834330000000  0.4490640000000  0.4892500000000 1.0
C      1  0.5171370000000  0.5502030000000  0.4895020000000 1.0
C      1  0.5128050000000  0.4551640000000  0.4912480000000 1.0
C      1  0.4881470000000  0.5466990000000  0.4984150000000 1.0
C      1  0.4857360000000  0.4251750000000  0.5231410000000 1.0
C      1  0.5138980000000  0.5784810000000  0.5252660000000 1.0
C      1  0.5165830000000  0.4235560000000  0.5227300000000 1.0
C      1  0.4833110000000  0.5793660000000  0.5243220000000 1.0
C      1  0.4470660000000  0.4217040000000  0.4699150000000 1.0
C      1  0.5548090000000  0.5726170000000  0.4688260000000 1.0
C      1  0.5514020000000  0.4259380000000  0.4701130000000 1.0
C      1  0.4487530000000  0.5747170000000  0.4745920000000 1.0
C      1  0.5212200000000  0.4659190000000  0.4653420000000 1.0
C      1  0.4766660000000  0.5327420000000  0.4685860000000 1.0
C      1  0.4763110000000  0.4639320000000  0.4642440000000 1.0
C      1  0.5186570000000  0.5317030000000  0.4656490000000 1.0
C      1  0.5574670000000  0.4718990000000  0.5549340000000 1.0
C      1  0.4425930000000  0.5292030000000  0.5532520000000 1.0
C      1  0.4430980000000  0.4733200000000  0.5546780000000 1.0
C      1  0.5565450000000  0.5288310000000  0.5536800000000 1.0
C      1  0.5362130000000  0.5147510000000  0.4167100000000 1.0
C      1  0.4624830000000  0.4882070000000  0.4153900000000 1.0
C      1  0.4628700000000  0.5179710000000  0.4161350000000 1.0
C      1  0.5344960000000  0.4854360000000  0.4188080000000 1.0
C      1  0.5613470000000  0.4489120000000  0.5079860000000 1.0
C      1  0.4427070000000  0.5447300000000  0.5086970000000 1.0
C      1  0.4411710000000  0.4516740000000  0.5068290000000 1.0
C      1  0.5468320000000  0.5437930000000  0.5055370000000 1.0
C      1  0.5498320000000  0.5569650000000  0.5496250000000 1.0
C      1  0.4495770000000  0.4451120000000  0.5527360000000 1.0
C      1  0.4475400000000  0.5578970000000  0.5510080000000 1.0
C      1  0.5503330000000  0.4441460000000  0.5530260000000 1.0
C      1  0.5672560000000  0.5460910000000  0.4646570000000 1.0
C      1  0.4322040000000  0.4449330000000  0.4609490000000 1.0
C      1  0.4346170000000  0.5507660000000  0.4629730000000 1.0
C      1  0.5656300000000  0.4508450000000  0.4616440000000 1.0
C      1  0.4888250000000  0.5293760000000  0.4124080000000 1.0
C      1  0.5095730000000  0.4713370000000  0.4131970000000 1.0
C      1  0.5118550000000  0.5295300000000  0.4121170000000 1.0
C      1  0.4867010000000  0.4731830000000  0.4123050000000 1.0
C      1  0.5136970000000  0.4630690000000  0.5778260000000 1.0
C      1  0.4847450000000  0.5375010000000  0.5720080000000 1.0
C      1  0.4851070000000  0.4643050000000  0.5766670000000 1.0
C      1  0.5137530000000  0.5370700000000  0.5733470000000 1.0
C      1  0.5259690000000  0.5723120000000  0.4704350000000 1.0
C      1  0.4759450000000  0.4243110000000  0.4735370000000 1.0
C      1  0.4762410000000  0.5711670000000  0.4843060000000 1.0
C      1  0.5240100000000  0.4281030000000  0.4806250000000 1.0
C      1  0.5609730000000  0.5176620000000  0.5133550000000 1.0
C      1  0.4421040000000  0.4813730000000  0.5076060000000 1.0
C      1  0.4342040000000  0.5198970000000  0.5136510000000 1.0
C      1  0.5580460000000  0.4772050000000  0.5071110000000 1.0
C      1  0.5752490000000  0.5131560000000  0.5367700000000 1.0
C      1  0.4268400000000  0.4848980000000  0.5332350000000 1.0
C      1  0.4225030000000  0.5139050000000  0.5376330000000 1.0
C      1  0.5720970000000  0.4837640000000  0.5328040000000 1.0
C      1  0.4862570000000  0.4186990000000  0.5520230000000 1.0
C      1  0.5130160000000  0.5837470000000  0.5538320000000 1.0
C      1  0.5157260000000  0.4181130000000  0.5518630000000 1.0
C      1  0.4832630000000  0.5844120000000  0.5531680000000 1.0
C      1  0.4423120000000  0.4882710000000  0.4367850000000 1.0
C      1  0.5576970000000  0.5151050000000  0.4381000000000 1.0
C      1  0.5559070000000  0.4849020000000  0.4395380000000 1.0
C      1  0.4430600000000  0.5182150000000  0.4392410000000 1.0
C      1  0.5275200000000  0.4386340000000  0.5702740000000 1.0
C      1  0.4701430000000  0.5626980000000  0.5685860000000 1.0
C      1  0.4724560000000  0.4390300000000  0.5695860000000 1.0
C      1  0.5277690000000  0.5621460000000  0.5679750000000 1.0
C      1  0.4965310000000  0.5126720000000  0.4689500000000 1.0
END
