TITL C-2441156-4686-848 0.00101220590668203 125000 -4766.19178205113 0 0 34 (C1) n - 1
REM
REM in /home/bkarasulu/work/CARBON/AIRSS/Generating-Clusters/ReaxFF-fromJPCA2015/Units_Real/with-SteepDescent/Higher-Symm
REM
REM
REM
REM
REM
REM ./C.cell (1df0a924f5614ab8850e4351716899ee)
REM
REM compiler GCC version 9.2.1 20190827 (Red Hat 9.2.1-1)
REM options -cpp -mtune=generic -march=x86-64 -g -O0 -fpre-include=/usr/include/finclude/math-vector-fortran.h
REM seed 1569831665 -976038844 1371072449 -658059426 -456079386 1053785806 478038642 -1601467147 -882276036 1729707916 -260882259 -110911545 -1367053667 -1433027713 1187891853 1394567843 57768790 1825559854 2106309791 587327231 -610536833 1283169205 -1833476314 -1295530203 359083546 -974564802 1461737105 1974680948 847307797 -736564237 -483308374 -533048649 740554186
REM
CELL 1.54180   50.00000   50.00000   50.00000   90.00000   90.00000   90.00000
LATT -1
SFAC C  
C      1  0.4513980000000  0.4901250000000  0.4680810000000 1.0
C      1  0.4752110000000  0.5367650000000  0.4633820000000 1.0
C      1  0.5291830000000  0.5392450000000  0.4692130000000 1.0
C      1  0.5496730000000  0.4918930000000  0.4702140000000 1.0
C      1  0.5021660000000  0.4506360000000  0.4763410000000 1.0
C      1  0.5485670000000  0.4708340000000  0.4888470000000 1.0
C      1  0.4779480000000  0.4464630000000  0.4905010000000 1.0
C      1  0.4443740000000  0.4946880000000  0.4959520000000 1.0
C      1  0.4755870000000  0.5301320000000  0.4929900000000 1.0
C      1  0.5248300000000  0.5309920000000  0.4969020000000 1.0
C      1  0.4472580000000  0.4981310000000  0.5185860000000 1.0
C      1  0.4803020000000  0.5396190000000  0.5178280000000 1.0
C      1  0.5349480000000  0.5391090000000  0.5227670000000 1.0
C      1  0.5473850000000  0.4739350000000  0.5182330000000 1.0
C      1  0.4830970000000  0.4453400000000  0.5202110000000 1.0
C      1  0.5371280000000  0.5198820000000  0.5428300000000 1.0
C      1  0.5286040000000  0.4659420000000  0.5373260000000 1.0
C      1  0.4786590000000  0.4551620000000  0.5460590000000 1.0
C      1  0.4534610000000  0.5012310000000  0.5460180000000 1.0
C      1  0.4891200000000  0.5423140000000  0.5441850000000 1.0
C      1  0.4647460000000  0.4660470000000  0.4743450000000 1.0
C      1  0.4657040000000  0.5117960000000  0.4512370000000 1.0
C      1  0.5029160000000  0.5459100000000  0.4574330000000 1.0
C      1  0.5484740000000  0.5169880000000  0.4574060000000 1.0
C      1  0.5266530000000  0.4591590000000  0.4760670000000 1.0
C      1  0.5048520000000  0.4505420000000  0.5366570000000 1.0
C      1  0.4682150000000  0.4792620000000  0.5592100000000 1.0
C      1  0.4720740000000  0.5217090000000  0.5590190000000 1.0
C      1  0.5185610000000  0.5407100000000  0.5460210000000 1.0
C      1  0.5388990000000  0.4921760000000  0.5377700000000 1.0
C      1  0.5013410000000  0.5131500000000  0.4932790000000 1.0
C      1  0.5025060000000  0.4989660000000  0.4673710000000 1.0
C      1  0.4899410000000  0.4977480000000  0.4398900000000 1.0
C      1  0.4847230000000  0.4997530000000  0.5751450000000 1.0
END
