TITL C-2441161-5029-981 0.0951192543027277 125000 -22873.3933704377 0 0 169 (C1) n - 1
REM
REM in /home/bkarasulu/work/CARBON/AIRSS/Generating-Clusters/ReaxFF-fromJPCA2015/Units_Real/with-SteepDescent/Higher-Symm
REM
REM
REM
REM
REM
REM ./C.cell (1df0a924f5614ab8850e4351716899ee)
REM
REM compiler GCC version 9.2.1 20190827 (Red Hat 9.2.1-1)
REM options -cpp -mtune=generic -march=x86-64 -g -O0 -fpre-include=/usr/include/finclude/math-vector-fortran.h
REM seed -497390720 1376260733 -1995387070 -1656912815 -2125059054 2131186626 -363080742 -10881544 2007425495 -238475322 -313517663 -1882915357 -1908648715 -1952372998 1990811672 1989396718 -940849556 -1863857707 1655714536 1701056992 -1484242316 1642815052 -891355982 961492813 -410734016 -143803657 73233764 1593875637 1044349674 -81358147 375133498 516954988 1105760968
REM
CELL 1.54180   50.00000   50.00000   50.00000   90.00000   90.00000   90.00000
LATT -1
SFAC C  
C      1  0.4339410000000  0.5149470000000  0.5140990000000 1.0
C      1  0.4318540000000  0.5274970000000  0.4856350000000 1.0
C      1  0.4974420000000  0.5050450000000  0.6084530000000 1.0
C      1  0.4995010000000  0.5067650000000  0.3918280000000 1.0
C      1  0.5749440000000  0.4593370000000  0.5684090000000 1.0
C      1  0.5730800000000  0.4583620000000  0.4342680000000 1.0
C      1  0.5379130000000  0.5225220000000  0.5442120000000 1.0
C      1  0.5414300000000  0.5222910000000  0.4562050000000 1.0
C      1  0.5630820000000  0.5727950000000  0.5294490000000 1.0
C      1  0.5623110000000  0.5732120000000  0.4691240000000 1.0
C      1  0.5582910000000  0.4935710000000  0.5156500000000 1.0
C      1  0.5570370000000  0.4916680000000  0.4856700000000 1.0
C      1  0.4933130000000  0.5379300000000  0.5377550000000 1.0
C      1  0.4961630000000  0.5272700000000  0.4674590000000 1.0
C      1  0.4501650000000  0.4437040000000  0.5818350000000 1.0
C      1  0.4506220000000  0.4534450000000  0.4133850000000 1.0
C      1  0.5849930000000  0.4482230000000  0.4861650000000 1.0
C      1  0.5849470000000  0.4463530000000  0.5137610000000 1.0
C      1  0.4952440000000  0.5200110000000  0.4396660000000 1.0
C      1  0.4947200000000  0.5221560000000  0.5615880000000 1.0
C      1  0.5880750000000  0.5120310000000  0.5582510000000 1.0
C      1  0.5887430000000  0.5109150000000  0.4441260000000 1.0
C      1  0.6003130000000  0.5156760000000  0.5325110000000 1.0
C      1  0.5992420000000  0.5158190000000  0.4704270000000 1.0
C      1  0.4330010000000  0.5791010000000  0.4834320000000 1.0
C      1  0.4312650000000  0.5773130000000  0.5132550000000 1.0
C      1  0.4025730000000  0.5169850000000  0.5243920000000 1.0
C      1  0.4083350000000  0.5124310000000  0.4747950000000 1.0
C      1  0.4546360000000  0.5349880000000  0.4165140000000 1.0
C      1  0.4550770000000  0.5351970000000  0.5849220000000 1.0
C      1  0.4876010000000  0.5848180000000  0.4903700000000 1.0
C      1  0.4919270000000  0.5819420000000  0.5174910000000 1.0
C      1  0.3968490000000  0.4353240000000  0.4850360000000 1.0
C      1  0.3990750000000  0.4380100000000  0.5128550000000 1.0
C      1  0.4193250000000  0.5463100000000  0.4507140000000 1.0
C      1  0.4236810000000  0.5454270000000  0.5479770000000 1.0
C      1  0.5458210000000  0.4963300000000  0.4139070000000 1.0
C      1  0.5456690000000  0.4970730000000  0.5844960000000 1.0
C      1  0.4738480000000  0.4085660000000  0.4193100000000 1.0
C      1  0.4745260000000  0.4290930000000  0.5758820000000 1.0
C      1  0.5299440000000  0.4547810000000  0.5169000000000 1.0
C      1  0.5313550000000  0.4558960000000  0.4889110000000 1.0
C      1  0.5113730000000  0.5058020000000  0.4833500000000 1.0
C      1  0.5052870000000  0.5085720000000  0.5092090000000 1.0
C      1  0.5208660000000  0.4002210000000  0.5122100000000 1.0
C      1  0.5188170000000  0.4014710000000  0.4822530000000 1.0
C      1  0.4182610000000  0.5536880000000  0.5217280000000 1.0
C      1  0.4184710000000  0.5542330000000  0.4798880000000 1.0
C      1  0.5213880000000  0.5653850000000  0.5727390000000 1.0
C      1  0.5241520000000  0.5657250000000  0.4281740000000 1.0
C      1  0.4493270000000  0.4484320000000  0.5192840000000 1.0
C      1  0.4437380000000  0.4472970000000  0.4904390000000 1.0
C      1  0.4990450000000  0.5805700000000  0.5613800000000 1.0
C      1  0.4998640000000  0.5814720000000  0.4390130000000 1.0
C      1  0.4939200000000  0.4910580000000  0.4390980000000 1.0
C      1  0.4982640000000  0.4943130000000  0.5623290000000 1.0
C      1  0.4939560000000  0.4640420000000  0.4184640000000 1.0
C      1  0.4905400000000  0.4696730000000  0.5775400000000 1.0
C      1  0.4543600000000  0.5060870000000  0.5824720000000 1.0
C      1  0.4535320000000  0.5064220000000  0.4131060000000 1.0
C      1  0.5181830000000  0.4804340000000  0.4508630000000 1.0
C      1  0.5183910000000  0.4810140000000  0.5490180000000 1.0
C      1  0.4566230000000  0.5830470000000  0.4657650000000 1.0
C      1  0.4541190000000  0.5845400000000  0.5316190000000 1.0
C      1  0.5021390000000  0.6029850000000  0.5377680000000 1.0
C      1  0.5022900000000  0.6041330000000  0.4596270000000 1.0
C      1  0.5480870000000  0.4108950000000  0.5105840000000 1.0
C      1  0.5466560000000  0.4127860000000  0.4816350000000 1.0
C      1  0.4650960000000  0.4465650000000  0.4509890000000 1.0
C      1  0.4857210000000  0.4503640000000  0.5552260000000 1.0
C      1  0.5370950000000  0.4463500000000  0.5900540000000 1.0
C      1  0.5371520000000  0.4476500000000  0.4104390000000 1.0
C      1  0.4069480000000  0.5204340000000  0.4471660000000 1.0
C      1  0.4103600000000  0.5182520000000  0.5520440000000 1.0
C      1  0.4534780000000  0.4952380000000  0.5525130000000 1.0
C      1  0.4463280000000  0.4922720000000  0.4377890000000 1.0
C      1  0.4346990000000  0.4853220000000  0.5086510000000 1.0
C      1  0.4476250000000  0.4867940000000  0.4837310000000 1.0
C      1  0.5868050000000  0.4933670000000  0.4855140000000 1.0
C      1  0.5895730000000  0.4919810000000  0.5156960000000 1.0
C      1  0.4509720000000  0.4218390000000  0.4815630000000 1.0
C      1  0.4455530000000  0.4249740000000  0.5355690000000 1.0
C      1  0.4739910000000  0.5687320000000  0.5689760000000 1.0
C      1  0.4750720000000  0.5697680000000  0.4337830000000 1.0
C      1  0.4838390000000  0.5414080000000  0.5848600000000 1.0
C      1  0.4818190000000  0.5433430000000  0.4191120000000 1.0
C      1  0.4340010000000  0.4421160000000  0.5571540000000 1.0
C      1  0.4387440000000  0.4457750000000  0.4371110000000 1.0
C      1  0.5423040000000  0.4954790000000  0.4465730000000 1.0
C      1  0.5421370000000  0.4956800000000  0.5535900000000 1.0
C      1  0.4172310000000  0.4649110000000  0.4471830000000 1.0
C      1  0.4169970000000  0.4651940000000  0.5516680000000 1.0
C      1  0.4742040000000  0.5637250000000  0.4802310000000 1.0
C      1  0.4727550000000  0.5591600000000  0.5276550000000 1.0
C      1  0.5510870000000  0.5215060000000  0.5192360000000 1.0
C      1  0.5385770000000  0.5144140000000  0.4832300000000 1.0
C      1  0.5110040000000  0.4725110000000  0.4777230000000 1.0
C      1  0.5120340000000  0.4801590000000  0.5222020000000 1.0
C      1  0.4928520000000  0.4438780000000  0.4418630000000 1.0
C      1  0.5111930000000  0.4430820000000  0.5407070000000 1.0
C      1  0.5642680000000  0.5612290000000  0.5557510000000 1.0
C      1  0.5632740000000  0.5599350000000  0.4432660000000 1.0
C      1  0.5289230000000  0.5436910000000  0.5924350000000 1.0
C      1  0.5295160000000  0.5443590000000  0.4082720000000 1.0
C      1  0.6023860000000  0.4660630000000  0.5320340000000 1.0
C      1  0.6033060000000  0.4625170000000  0.4661780000000 1.0
C      1  0.5142460000000  0.4620530000000  0.5975810000000 1.0
C      1  0.5162700000000  0.4636780000000  0.4024390000000 1.0
C      1  0.5898790000000  0.4803250000000  0.4448200000000 1.0
C      1  0.5897110000000  0.4821950000000  0.5566930000000 1.0
C      1  0.4654200000000  0.5069770000000  0.4839090000000 1.0
C      1  0.4761130000000  0.5160320000000  0.5083660000000 1.0
C      1  0.4927520000000  0.4109510000000  0.5145380000000 1.0
C      1  0.4908900000000  0.4127830000000  0.4855460000000 1.0
C      1  0.5213160000000  0.6048580000000  0.4824980000000 1.0
C      1  0.5228400000000  0.6063910000000  0.5119610000000 1.0
C      1  0.5543980000000  0.4419150000000  0.4760010000000 1.0
C      1  0.5589360000000  0.4362930000000  0.5255050000000 1.0
C      1  0.4864810000000  0.4090460000000  0.5590510000000 1.0
C      1  0.4840400000000  0.4025970000000  0.4423610000000 1.0
C      1  0.4846620000000  0.4697040000000  0.5139650000000 1.0
C      1  0.4821400000000  0.4637080000000  0.4866320000000 1.0
C      1  0.5363850000000  0.5493930000000  0.4484420000000 1.0
C      1  0.5370510000000  0.5508800000000  0.5527430000000 1.0
C      1  0.5101950000000  0.4211890000000  0.4455300000000 1.0
C      1  0.5148800000000  0.4175580000000  0.5532600000000 1.0
C      1  0.4103620000000  0.4670380000000  0.5224580000000 1.0
C      1  0.4148190000000  0.4612080000000  0.4763810000000 1.0
C      1  0.4698030000000  0.4658500000000  0.3978500000000 1.0
C      1  0.4653440000000  0.4655130000000  0.5949580000000 1.0
C      1  0.5387450000000  0.4250920000000  0.5689700000000 1.0
C      1  0.5354580000000  0.4273080000000  0.4321730000000 1.0
C      1  0.4678620000000  0.4036220000000  0.4702910000000 1.0
C      1  0.4710270000000  0.4094810000000  0.5344700000000 1.0
C      1  0.5038910000000  0.5345250000000  0.3991980000000 1.0
C      1  0.5046050000000  0.5323650000000  0.6032220000000 1.0
C      1  0.5696010000000  0.5487700000000  0.5137710000000 1.0
C      1  0.5748520000000  0.5552380000000  0.4860960000000 1.0
C      1  0.4179950000000  0.4932830000000  0.4378310000000 1.0
C      1  0.4232840000000  0.4926800000000  0.5596270000000 1.0
C      1  0.3935680000000  0.4909750000000  0.5129700000000 1.0
C      1  0.3993230000000  0.4866400000000  0.4849660000000 1.0
C      1  0.5576730000000  0.4675010000000  0.4127410000000 1.0
C      1  0.5567710000000  0.4680930000000  0.5891060000000 1.0
C      1  0.5423040000000  0.5858920000000  0.5139250000000 1.0
C      1  0.5358420000000  0.5778760000000  0.4841330000000 1.0
C      1  0.4694180000000  0.4929200000000  0.6030910000000 1.0
C      1  0.4726110000000  0.4945970000000  0.3940050000000 1.0
C      1  0.5148530000000  0.5500440000000  0.4883370000000 1.0
C      1  0.5122840000000  0.5366740000000  0.5145740000000 1.0
C      1  0.5727540000000  0.5330910000000  0.4316770000000 1.0
C      1  0.5732170000000  0.5358680000000  0.5695100000000 1.0
C      1  0.4660580000000  0.4737700000000  0.4623820000000 1.0
C      1  0.4659470000000  0.4665620000000  0.5359700000000 1.0
C      1  0.4734680000000  0.6045230000000  0.5300830000000 1.0
C      1  0.4765080000000  0.6046640000000  0.4724110000000 1.0
C      1  0.5528440000000  0.5264960000000  0.4125930000000 1.0
C      1  0.5528380000000  0.5273380000000  0.5875180000000 1.0
C      1  0.5209730000000  0.4891790000000  0.6035870000000 1.0
C      1  0.5220500000000  0.4898780000000  0.3969260000000 1.0
C      1  0.5584270000000  0.4353750000000  0.4477540000000 1.0
C      1  0.5614430000000  0.4359620000000  0.5552770000000 1.0
C      1  0.4611110000000  0.5283570000000  0.4654930000000 1.0
C      1  0.4585340000000  0.5164570000000  0.5328730000000 1.0
C      1  0.5975810000000  0.5389940000000  0.5156650000000 1.0
C      1  0.5986500000000  0.5399510000000  0.4872390000000 1.0
C      1  0.4486030000000  0.5542430000000  0.5647580000000 1.0
C      1  0.4475500000000  0.5466850000000  0.4418750000000 1.0
C      1  0.4691390000000  0.5459910000000  0.5018420000000 1.0
END
