TITL C-2441169-1362-904 0.0822390348561405 125000 -16390.66381928 0 0 137 (C1) n - 1
REM
REM in /home/bkarasulu/work/CARBON/AIRSS/Generating-Clusters/ReaxFF-fromJPCA2015/Units_Real/with-SteepDescent/Higher-Symm
REM
REM
REM
REM
REM
REM ./C.cell (1df0a924f5614ab8850e4351716899ee)
REM
REM compiler GCC version 9.2.1 20190827 (Red Hat 9.2.1-1)
REM options -cpp -mtune=generic -march=x86-64 -g -O0 -fpre-include=/usr/include/finclude/math-vector-fortran.h
REM seed -799275653 641134505 -966961902 806245774 -1095928619 725878195 -1358791950 146322288 918142361 -1117120310 1878632571 673343853 -567725985 535837586 224984987 793041418 1828501036 1086193412 -243415128 -1114082974 1292037192 434342425 1759904822 1659856783 1688180701 858092051 -412037157 -1394482538 2071940212 -945592037 -690705530 2066448743 1995803342
REM
CELL 1.54180   50.00000   50.00000   50.00000   90.00000   90.00000   90.00000
LATT -1
SFAC C  
C      1  0.5407180000000  0.5313100000000  0.5333840000000 1.0
C      1  0.5502800000000  0.5315710000000  0.5066610000000 1.0
C      1  0.5435720000000  0.5304870000000  0.4789460000000 1.0
C      1  0.5266600000000  0.5314630000000  0.4552580000000 1.0
C      1  0.4987990000000  0.5300220000000  0.4503640000000 1.0
C      1  0.4721890000000  0.5309950000000  0.4570030000000 1.0
C      1  0.4539560000000  0.5333190000000  0.4793310000000 1.0
C      1  0.4486370000000  0.5307470000000  0.5091740000000 1.0
C      1  0.4628500000000  0.5300210000000  0.5325860000000 1.0
C      1  0.4873160000000  0.5326250000000  0.5474870000000 1.0
C      1  0.5171560000000  0.5308260000000  0.5490730000000 1.0
C      1  0.5795560000000  0.4751780000000  0.5459480000000 1.0
C      1  0.5916860000000  0.4750900000000  0.4948010000000 1.0
C      1  0.5764040000000  0.4784030000000  0.4456670000000 1.0
C      1  0.5348790000000  0.4758590000000  0.4146350000000 1.0
C      1  0.4821820000000  0.4728000000000  0.4113250000000 1.0
C      1  0.4349980000000  0.4788590000000  0.4331960000000 1.0
C      1  0.4091900000000  0.4792930000000  0.4778620000000 1.0
C      1  0.4148810000000  0.4735070000000  0.5284110000000 1.0
C      1  0.4446610000000  0.4759840000000  0.5723720000000 1.0
C      1  0.4925120000000  0.4760330000000  0.5923300000000 1.0
C      1  0.5425870000000  0.4748190000000  0.5795870000000 1.0
C      1  0.5478510000000  0.5057360000000  0.5423220000000 1.0
C      1  0.5637630000000  0.5070730000000  0.5105470000000 1.0
C      1  0.5587660000000  0.5072930000000  0.4739500000000 1.0
C      1  0.5362000000000  0.5055910000000  0.4454830000000 1.0
C      1  0.5011940000000  0.5056300000000  0.4359210000000 1.0
C      1  0.4655960000000  0.5062560000000  0.4443920000000 1.0
C      1  0.4434810000000  0.5082890000000  0.4726420000000 1.0
C      1  0.4361130000000  0.5061620000000  0.5089250000000 1.0
C      1  0.4509820000000  0.5061600000000  0.5404220000000 1.0
C      1  0.4819750000000  0.5064130000000  0.5599950000000 1.0
C      1  0.5187490000000  0.5057170000000  0.5621210000000 1.0
C      1  0.5276920000000  0.5524690000000  0.5704500000000 1.0
C      1  0.5607050000000  0.5521290000000  0.5474180000000 1.0
C      1  0.5766880000000  0.5540740000000  0.5008760000000 1.0
C      1  0.5728600000000  0.5561820000000  0.4710970000000 1.0
C      1  0.5354480000000  0.5527640000000  0.4326710000000 1.0
C      1  0.4906630000000  0.5534240000000  0.4242140000000 1.0
C      1  0.4625020000000  0.5538430000000  0.4344530000000 1.0
C      1  0.4297080000000  0.5535510000000  0.4728610000000 1.0
C      1  0.4261340000000  0.5519320000000  0.5175500000000 1.0
C      1  0.4492240000000  0.5539950000000  0.5572940000000 1.0
C      1  0.4753250000000  0.5546850000000  0.5716990000000 1.0
C      1  0.4537490000000  0.4585430000000  0.4844880000000 1.0
C      1  0.4658680000000  0.4491080000000  0.5088160000000 1.0
C      1  0.4667060000000  0.4592250000000  0.5355120000000 1.0
C      1  0.4895080000000  0.4579770000000  0.5474670000000 1.0
C      1  0.5134490000000  0.4500400000000  0.5390540000000 1.0
C      1  0.5357670000000  0.4525280000000  0.5238950000000 1.0
C      1  0.5485000000000  0.4578960000000  0.5002850000000 1.0
C      1  0.5421390000000  0.4580340000000  0.4755050000000 1.0
C      1  0.5216010000000  0.4603100000000  0.4575920000000 1.0
C      1  0.4959730000000  0.4490690000000  0.4607680000000 1.0
C      1  0.4699460000000  0.4579820000000  0.4625600000000 1.0
C      1  0.4579230000000  0.4172190000000  0.4579300000000 1.0
C      1  0.4431140000000  0.4200420000000  0.4818710000000 1.0
C      1  0.4459380000000  0.4257610000000  0.5181150000000 1.0
C      1  0.4630350000000  0.4215640000000  0.5470050000000 1.0
C      1  0.4903170000000  0.4207280000000  0.5597730000000 1.0
C      1  0.5201080000000  0.4283330000000  0.5563070000000 1.0
C      1  0.5508080000000  0.4260050000000  0.5282790000000 1.0
C      1  0.5595810000000  0.4196870000000  0.4994240000000 1.0
C      1  0.5497610000000  0.4196520000000  0.4701880000000 1.0
C      1  0.5280070000000  0.4224690000000  0.4456540000000 1.0
C      1  0.4980810000000  0.4278790000000  0.4411780000000 1.0
C      1  0.5705550000000  0.5195890000000  0.4296390000000 1.0
C      1  0.5192710000000  0.5157650000000  0.4026340000000 1.0
C      1  0.4631510000000  0.5151840000000  0.4062340000000 1.0
C      1  0.4199520000000  0.5187440000000  0.4399390000000 1.0
C      1  0.4004560000000  0.5182210000000  0.4936220000000 1.0
C      1  0.4139220000000  0.5156090000000  0.5494700000000 1.0
C      1  0.4536230000000  0.5156730000000  0.5898220000000 1.0
C      1  0.5076050000000  0.5172700000000  0.5997150000000 1.0
C      1  0.5607250000000  0.5165200000000  0.5786150000000 1.0
C      1  0.5946310000000  0.5163580000000  0.5318460000000 1.0
C      1  0.5977630000000  0.5158890000000  0.4755410000000 1.0
C      1  0.3994750000000  0.4912880000000  0.5034800000000 1.0
C      1  0.4180760000000  0.4881440000000  0.5566690000000 1.0
C      1  0.4631360000000  0.4886280000000  0.5945440000000 1.0
C      1  0.5188560000000  0.4904070000000  0.5986450000000 1.0
C      1  0.5689720000000  0.4899340000000  0.5726520000000 1.0
C      1  0.5980540000000  0.4889470000000  0.5244970000000 1.0
C      1  0.5960830000000  0.4873510000000  0.4679080000000 1.0
C      1  0.5640700000000  0.4924830000000  0.4216110000000 1.0
C      1  0.5108990000000  0.4883020000000  0.4005960000000 1.0
C      1  0.4523780000000  0.4885410000000  0.4106070000000 1.0
C      1  0.4120670000000  0.4918470000000  0.4489970000000 1.0
C      1  0.5419740000000  0.5715700000000  0.5349340000000 1.0
C      1  0.5531750000000  0.5727340000000  0.5059590000000 1.0
C      1  0.5483080000000  0.5741660000000  0.4768090000000 1.0
C      1  0.5286370000000  0.5722230000000  0.4534970000000 1.0
C      1  0.4996080000000  0.5725530000000  0.4462040000000 1.0
C      1  0.4707740000000  0.5735870000000  0.4557180000000 1.0
C      1  0.4503510000000  0.5736250000000  0.4779060000000 1.0
C      1  0.4458540000000  0.5716960000000  0.5083620000000 1.0
C      1  0.4603320000000  0.5721710000000  0.5356130000000 1.0
C      1  0.4861470000000  0.5744160000000  0.5513300000000 1.0
C      1  0.5165230000000  0.5725000000000  0.5516490000000 1.0
C      1  0.4403830000000  0.4887220000000  0.5250690000000 1.0
C      1  0.4617460000000  0.4936640000000  0.5565290000000 1.0
C      1  0.4987340000000  0.4908110000000  0.5664070000000 1.0
C      1  0.5331080000000  0.4880560000000  0.5543780000000 1.0
C      1  0.5600180000000  0.4900720000000  0.5286680000000 1.0
C      1  0.5678270000000  0.4933400000000  0.4919350000000 1.0
C      1  0.5525650000000  0.4913140000000  0.4578060000000 1.0
C      1  0.5208780000000  0.4894540000000  0.4376290000000 1.0
C      1  0.4829750000000  0.4894810000000  0.4356340000000 1.0
C      1  0.4497280000000  0.4920850000000  0.4551240000000 1.0
C      1  0.4348900000000  0.4923700000000  0.4883680000000 1.0
C      1  0.4271530000000  0.4452670000000  0.4857480000000 1.0
C      1  0.4240170000000  0.4442750000000  0.5150950000000 1.0
C      1  0.4505800000000  0.4460580000000  0.5561460000000 1.0
C      1  0.4850060000000  0.4453840000000  0.5737210000000 1.0
C      1  0.5418410000000  0.4449430000000  0.5688250000000 1.0
C      1  0.5633550000000  0.4435450000000  0.5496240000000 1.0
C      1  0.5747460000000  0.4443810000000  0.4992780000000 1.0
C      1  0.5617930000000  0.4432220000000  0.4593040000000 1.0
C      1  0.5364040000000  0.4468760000000  0.4332810000000 1.0
C      1  0.4816910000000  0.4436340000000  0.4216740000000 1.0
C      1  0.4588970000000  0.4430050000000  0.4392740000000 1.0
C      1  0.5320240000000  0.5286260000000  0.5889300000000 1.0
C      1  0.5755920000000  0.5279570000000  0.5569710000000 1.0
C      1  0.5950500000000  0.5261420000000  0.5053440000000 1.0
C      1  0.5830550000000  0.5316580000000  0.4561940000000 1.0
C      1  0.5461990000000  0.5295030000000  0.4177890000000 1.0
C      1  0.4935980000000  0.5259220000000  0.4055600000000 1.0
C      1  0.4438410000000  0.5274960000000  0.4227660000000 1.0
C      1  0.4127430000000  0.5299950000000  0.4657400000000 1.0
C      1  0.4073930000000  0.5287540000000  0.5190240000000 1.0
C      1  0.4335120000000  0.5263330000000  0.5664830000000 1.0
C      1  0.4789250000000  0.5278520000000  0.5923440000000 1.0
C      1  0.5006770000000  0.4782860000000  0.5000300000000 1.0
C      1  0.4988600000000  0.4510720000000  0.5009430000000 1.0
C      1  0.5003340000000  0.5283570000000  0.4999160000000 1.0
C      1  0.5002890000000  0.5527560000000  0.4999470000000 1.0
C      1  0.5006340000000  0.5028710000000  0.4998870000000 1.0
END
