TITL C-2441162-9305-919 0.0776165032010227 125000 -16655.6864493036 0 0 126 (C1) n - 1
REM
REM in /home/bkarasulu/work/CARBON/AIRSS/Generating-Clusters/ReaxFF-fromJPCA2015/Units_Real/with-SteepDescent/Higher-Symm
REM
REM
REM
REM
REM
REM ./C.cell (1df0a924f5614ab8850e4351716899ee)
REM
REM compiler GCC version 9.2.1 20190827 (Red Hat 9.2.1-1)
REM options -cpp -mtune=generic -march=x86-64 -g -O0 -fpre-include=/usr/include/finclude/math-vector-fortran.h
REM seed -1962927658 -745817736 -1500200590 579627471 30970499 -1607465620 2115218186 -1191384308 167276263 1055921158 -1448086962 309592061 -366221474 -1631262281 -1672923516 201698388 1898090347 527469136 1495292270 -262224457 -524828014 2084279850 -692362832 1636516715 470738224 -1627511325 587186308 -2072981902 -1953272311 -1785777985 -1006506426 -754181302 681177847
REM
CELL 1.54180   50.00000   50.00000   50.00000   90.00000   90.00000   90.00000
LATT -1
SFAC C  
C      1  0.5539660000000  0.4356840000000  0.4519530000000 1.0
C      1  0.5042270000000  0.4327810000000  0.5179380000000 1.0
C      1  0.5469690000000  0.4166980000000  0.5054540000000 1.0
C      1  0.4766660000000  0.4286640000000  0.5361750000000 1.0
C      1  0.4303720000000  0.4436730000000  0.4734760000000 1.0
C      1  0.5013730000000  0.4371090000000  0.4390400000000 1.0
C      1  0.5227820000000  0.4839100000000  0.5159730000000 1.0
C      1  0.4240100000000  0.5239740000000  0.5541900000000 1.0
C      1  0.4407130000000  0.5043670000000  0.5224810000000 1.0
C      1  0.4781920000000  0.4198120000000  0.4447690000000 1.0
C      1  0.5577890000000  0.5608210000000  0.5624490000000 1.0
C      1  0.5725320000000  0.5442420000000  0.5432480000000 1.0
C      1  0.4609600000000  0.5927630000000  0.4738570000000 1.0
C      1  0.4129020000000  0.4993200000000  0.5610790000000 1.0
C      1  0.5426920000000  0.5186290000000  0.5842870000000 1.0
C      1  0.5794280000000  0.4765080000000  0.5349980000000 1.0
C      1  0.4460350000000  0.5010560000000  0.4334500000000 1.0
C      1  0.4669810000000  0.5840820000000  0.5290550000000 1.0
C      1  0.4731790000000  0.4358090000000  0.5643180000000 1.0
C      1  0.5564880000000  0.4903310000000  0.4205020000000 1.0
C      1  0.5282680000000  0.5834010000000  0.4796980000000 1.0
C      1  0.5073590000000  0.4683970000000  0.5527020000000 1.0
C      1  0.5520180000000  0.4632520000000  0.4354080000000 1.0
C      1  0.4737740000000  0.5539770000000  0.4500000000000 1.0
C      1  0.5716430000000  0.4533480000000  0.5209030000000 1.0
C      1  0.5298880000000  0.5014930000000  0.4168410000000 1.0
C      1  0.5539830000000  0.5119430000000  0.5126280000000 1.0
C      1  0.4578690000000  0.4637800000000  0.5753050000000 1.0
C      1  0.4359110000000  0.4586710000000  0.5415690000000 1.0
C      1  0.5700860000000  0.5567050000000  0.4918190000000 1.0
C      1  0.5377410000000  0.5461890000000  0.5772890000000 1.0
C      1  0.4137020000000  0.4956330000000  0.5140220000000 1.0
C      1  0.4116600000000  0.4664330000000  0.4776200000000 1.0
C      1  0.5422330000000  0.4920150000000  0.4969990000000 1.0
C      1  0.4133730000000  0.4954770000000  0.4721200000000 1.0
C      1  0.5426720000000  0.4267980000000  0.5786800000000 1.0
C      1  0.4340120000000  0.5503110000000  0.4560820000000 1.0
C      1  0.4926760000000  0.5047080000000  0.5836920000000 1.0
C      1  0.4432860000000  0.4571720000000  0.4365680000000 1.0
C      1  0.4117520000000  0.4674350000000  0.5059170000000 1.0
C      1  0.4620930000000  0.4377170000000  0.4294130000000 1.0
C      1  0.5013390000000  0.5373620000000  0.4732180000000 1.0
C      1  0.4896830000000  0.4838840000000  0.4377330000000 1.0
C      1  0.5285120000000  0.5265840000000  0.5127040000000 1.0
C      1  0.5240370000000  0.4548440000000  0.5180330000000 1.0
C      1  0.5968240000000  0.5124620000000  0.4794140000000 1.0
C      1  0.5381750000000  0.4736610000000  0.4537420000000 1.0
C      1  0.4500860000000  0.5070550000000  0.5493190000000 1.0
C      1  0.4381310000000  0.5492590000000  0.4848190000000 1.0
C      1  0.4208960000000  0.4735960000000  0.5607270000000 1.0
C      1  0.4973210000000  0.5437180000000  0.4189700000000 1.0
C      1  0.4842740000000  0.5092550000000  0.4496360000000 1.0
C      1  0.5008720000000  0.4603020000000  0.5796990000000 1.0
C      1  0.5336060000000  0.5538980000000  0.4348790000000 1.0
C      1  0.4215270000000  0.5029990000000  0.4458460000000 1.0
C      1  0.4851030000000  0.5770330000000  0.4810360000000 1.0
C      1  0.5525030000000  0.5421690000000  0.4739930000000 1.0
C      1  0.5209750000000  0.4992580000000  0.5809950000000 1.0
C      1  0.4828280000000  0.4710380000000  0.5030030000000 1.0
C      1  0.5834270000000  0.4730470000000  0.4725950000000 1.0
C      1  0.5226360000000  0.4057760000000  0.5145760000000 1.0
C      1  0.5515220000000  0.5781660000000  0.4957100000000 1.0
C      1  0.5624700000000  0.5178480000000  0.5395580000000 1.0
C      1  0.4559750000000  0.5202870000000  0.5072600000000 1.0
C      1  0.5423970000000  0.5821980000000  0.5490250000000 1.0
C      1  0.5219240000000  0.5736880000000  0.4507160000000 1.0
C      1  0.5301970000000  0.4302600000000  0.5578050000000 1.0
C      1  0.4830150000000  0.4799280000000  0.4100010000000 1.0
C      1  0.4085270000000  0.5152690000000  0.4936200000000 1.0
C      1  0.4514170000000  0.5617130000000  0.5426620000000 1.0
C      1  0.4849520000000  0.5249750000000  0.5171730000000 1.0
C      1  0.5751040000000  0.5001460000000  0.4630630000000 1.0
C      1  0.4775810000000  0.4164170000000  0.4751070000000 1.0
C      1  0.5590710000000  0.4307910000000  0.4804790000000 1.0
C      1  0.4965150000000  0.5673110000000  0.4365510000000 1.0
C      1  0.4638250000000  0.5592240000000  0.4961710000000 1.0
C      1  0.5254760000000  0.4315250000000  0.4545820000000 1.0
C      1  0.4517770000000  0.5729640000000  0.4537060000000 1.0
C      1  0.4970200000000  0.5860090000000  0.5273630000000 1.0
C      1  0.5051130000000  0.4975550000000  0.4021750000000 1.0
C      1  0.5017670000000  0.4314770000000  0.5707740000000 1.0
C      1  0.5664820000000  0.5113880000000  0.4377040000000 1.0
C      1  0.5033330000000  0.5032330000000  0.5278110000000 1.0
C      1  0.5552340000000  0.5385970000000  0.4446030000000 1.0
C      1  0.5150830000000  0.5240810000000  0.4075090000000 1.0
C      1  0.4285620000000  0.5450290000000  0.5336350000000 1.0
C      1  0.5958530000000  0.4946170000000  0.5176620000000 1.0
C      1  0.4909920000000  0.5167960000000  0.4900040000000 1.0
C      1  0.4206920000000  0.5395180000000  0.5051890000000 1.0
C      1  0.5438160000000  0.5701280000000  0.5229320000000 1.0
C      1  0.4579120000000  0.4091260000000  0.4964560000000 1.0
C      1  0.4721070000000  0.5249030000000  0.5509750000000 1.0
C      1  0.5465310000000  0.4384500000000  0.5287620000000 1.0
C      1  0.5116680000000  0.5173720000000  0.4557730000000 1.0
C      1  0.5944940000000  0.5221670000000  0.5074740000000 1.0
C      1  0.4367620000000  0.4295860000000  0.4978590000000 1.0
C      1  0.4641780000000  0.5061810000000  0.4822260000000 1.0
C      1  0.6030370000000  0.4854990000000  0.4903270000000 1.0
C      1  0.5610400000000  0.4808480000000  0.5576610000000 1.0
C      1  0.5283030000000  0.5483280000000  0.5310710000000 1.0
C      1  0.5062700000000  0.5871800000000  0.4981230000000 1.0
C      1  0.5184680000000  0.4446980000000  0.4798360000000 1.0
C      1  0.5023010000000  0.4690940000000  0.4802210000000 1.0
C      1  0.4786070000000  0.4796490000000  0.5880070000000 1.0
C      1  0.4541830000000  0.4769630000000  0.4177260000000 1.0
C      1  0.4577110000000  0.4770080000000  0.4902110000000 1.0
C      1  0.4865240000000  0.4765300000000  0.5329010000000 1.0
C      1  0.5132480000000  0.5808150000000  0.5507750000000 1.0
C      1  0.5144650000000  0.5507030000000  0.5584120000000 1.0
C      1  0.4553790000000  0.4587450000000  0.4661470000000 1.0
C      1  0.5317680000000  0.4807500000000  0.5604520000000 1.0
C      1  0.4525140000000  0.5861980000000  0.5031340000000 1.0
C      1  0.5268500000000  0.5398890000000  0.4860500000000 1.0
C      1  0.5253980000000  0.4937660000000  0.4706110000000 1.0
C      1  0.5826360000000  0.5464720000000  0.5160770000000 1.0
C      1  0.4642570000000  0.5479680000000  0.5644710000000 1.0
C      1  0.4695070000000  0.4054590000000  0.5223410000000 1.0
C      1  0.4348850000000  0.4539310000000  0.5136630000000 1.0
C      1  0.5634390000000  0.5076200000000  0.5665920000000 1.0
C      1  0.4733200000000  0.5309760000000  0.4316650000000 1.0
C      1  0.5741920000000  0.4520500000000  0.4915770000000 1.0
C      1  0.4324860000000  0.5272040000000  0.4371700000000 1.0
C      1  0.4880150000000  0.5335240000000  0.5732690000000 1.0
C      1  0.4588030000000  0.4767880000000  0.5485190000000 1.0
C      1  0.4974570000000  0.4293180000000  0.4896220000000 1.0
C      1  0.4885840000000  0.4608210000000  0.4543840000000 1.0
END
