TITL C-2441156-4686-487 0.152788099501649 125000 -13441.0261981214 0 0 118 (C1) n - 1
REM
REM in /home/bkarasulu/work/CARBON/AIRSS/Generating-Clusters/ReaxFF-fromJPCA2015/Units_Real/with-SteepDescent/Higher-Symm
REM
REM
REM
REM
REM
REM ./C.cell (1df0a924f5614ab8850e4351716899ee)
REM
REM compiler GCC version 9.2.1 20190827 (Red Hat 9.2.1-1)
REM options -cpp -mtune=generic -march=x86-64 -g -O0 -fpre-include=/usr/include/finclude/math-vector-fortran.h
REM seed -529073626 451722450 -1491788239 487624912 -1204198103 -1873576755 -705255797 -724150420 696225390 -265980067 1646995555 1295412681 -1130730538 1393861863 -1106178732 -374322979 533987550 128845392 -1292119853 -757854088 153239263 -93086397 -261555689 1515243404 -1318094568 73858461 -2011909925 -392746598 712896260 -797800949 1384255241 1250630027 936578163
REM
CELL 1.54180   50.00000   50.00000   50.00000   90.00000   90.00000   90.00000
LATT -1
SFAC C  
C      1  0.5426080000000  0.5484540000000  0.5324710000000 1.0
C      1  0.5101390000000  0.5325200000000  0.4207200000000 1.0
C      1  0.4917590000000  0.4201340000000  0.4649180000000 1.0
C      1  0.5522150000000  0.4504460000000  0.4543900000000 1.0
C      1  0.4846170000000  0.5692780000000  0.4527840000000 1.0
C      1  0.4454070000000  0.4925580000000  0.5426770000000 1.0
C      1  0.4399590000000  0.5616590000000  0.4796420000000 1.0
C      1  0.5270390000000  0.5896990000000  0.5069520000000 1.0
C      1  0.5461770000000  0.5782660000000  0.5246690000000 1.0
C      1  0.5327830000000  0.5447710000000  0.4333810000000 1.0
C      1  0.4416080000000  0.5592560000000  0.5074010000000 1.0
C      1  0.5014490000000  0.5918070000000  0.4620050000000 1.0
C      1  0.4686240000000  0.5725210000000  0.4793930000000 1.0
C      1  0.5296020000000  0.4790400000000  0.4863630000000 1.0
C      1  0.4939730000000  0.4893370000000  0.4091770000000 1.0
C      1  0.5386170000000  0.5384590000000  0.5600900000000 1.0
C      1  0.5868500000000  0.5102120000000  0.5237590000000 1.0
C      1  0.5167690000000  0.4766380000000  0.5900170000000 1.0
C      1  0.4499780000000  0.5098060000000  0.5809560000000 1.0
C      1  0.5832130000000  0.5352960000000  0.4877680000000 1.0
C      1  0.4835990000000  0.5114780000000  0.5093990000000 1.0
C      1  0.4525740000000  0.5131830000000  0.5037050000000 1.0
C      1  0.4970330000000  0.4971740000000  0.5876980000000 1.0
C      1  0.5321760000000  0.4984260000000  0.5238290000000 1.0
C      1  0.5075750000000  0.4197240000000  0.5046770000000 1.0
C      1  0.4856520000000  0.5837660000000  0.5100920000000 1.0
C      1  0.5561370000000  0.5127270000000  0.5689500000000 1.0
C      1  0.5706690000000  0.5520760000000  0.4675390000000 1.0
C      1  0.4841020000000  0.4908130000000  0.5272670000000 1.0
C      1  0.4302100000000  0.4799920000000  0.4771750000000 1.0
C      1  0.5581150000000  0.4422840000000  0.4972240000000 1.0
C      1  0.4562620000000  0.4508560000000  0.5460070000000 1.0
C      1  0.5160410000000  0.4213680000000  0.4435430000000 1.0
C      1  0.5257570000000  0.5764490000000  0.4615480000000 1.0
C      1  0.5717870000000  0.4669400000000  0.4653200000000 1.0
C      1  0.5514280000000  0.5732200000000  0.4768880000000 1.0
C      1  0.4745840000000  0.4640400000000  0.4918700000000 1.0
C      1  0.5653380000000  0.5079230000000  0.5430390000000 1.0
C      1  0.4824810000000  0.5469040000000  0.4874200000000 1.0
C      1  0.5131120000000  0.4377810000000  0.4801720000000 1.0
C      1  0.4674410000000  0.5011590000000  0.4662960000000 1.0
C      1  0.4883220000000  0.4377750000000  0.5220450000000 1.0
C      1  0.5420420000000  0.4329820000000  0.4740100000000 1.0
C      1  0.4315670000000  0.4995840000000  0.4350940000000 1.0
C      1  0.4447110000000  0.5417840000000  0.4575160000000 1.0
C      1  0.4469990000000  0.5186840000000  0.4189780000000 1.0
C      1  0.4657360000000  0.4224470000000  0.5129330000000 1.0
C      1  0.4237070000000  0.4540620000000  0.5108110000000 1.0
C      1  0.4898770000000  0.4653280000000  0.5156810000000 1.0
C      1  0.5468960000000  0.5347000000000  0.4670890000000 1.0
C      1  0.5002070000000  0.4641760000000  0.4764880000000 1.0
C      1  0.4774590000000  0.5628180000000  0.5497510000000 1.0
C      1  0.5375220000000  0.5028970000000  0.4669090000000 1.0
C      1  0.5812190000000  0.4934440000000  0.4585650000000 1.0
C      1  0.4787380000000  0.4355400000000  0.5557610000000 1.0
C      1  0.5781770000000  0.5071540000000  0.4841280000000 1.0
C      1  0.5107430000000  0.5537640000000  0.4537160000000 1.0
C      1  0.4281390000000  0.4393710000000  0.4865830000000 1.0
C      1  0.5328270000000  0.4630180000000  0.4400900000000 1.0
C      1  0.5123080000000  0.4463960000000  0.4281640000000 1.0
C      1  0.4205960000000  0.5259030000000  0.5263350000000 1.0
C      1  0.5707630000000  0.5093070000000  0.4387160000000 1.0
C      1  0.4707990000000  0.5037200000000  0.5475910000000 1.0
C      1  0.5329810000000  0.4913920000000  0.4394450000000 1.0
C      1  0.5607420000000  0.4838480000000  0.5606560000000 1.0
C      1  0.5192610000000  0.4946620000000  0.5461050000000 1.0
C      1  0.5456580000000  0.4426270000000  0.5236690000000 1.0
C      1  0.5834270000000  0.5382910000000  0.5161680000000 1.0
C      1  0.4671200000000  0.4877210000000  0.5847130000000 1.0
C      1  0.5240610000000  0.4236150000000  0.5300700000000 1.0
C      1  0.5668990000000  0.5573960000000  0.5300920000000 1.0
C      1  0.4260670000000  0.5227670000000  0.4973810000000 1.0
C      1  0.5297720000000  0.5210310000000  0.5132740000000 1.0
C      1  0.4896930000000  0.4619940000000  0.4168330000000 1.0
C      1  0.4501700000000  0.4727630000000  0.5633810000000 1.0
C      1  0.5004460000000  0.5018190000000  0.4872840000000 1.0
C      1  0.4583690000000  0.5528850000000  0.5294570000000 1.0
C      1  0.5530990000000  0.5244690000000  0.4268760000000 1.0
C      1  0.5211020000000  0.5160510000000  0.4874370000000 1.0
C      1  0.5202320000000  0.4340720000000  0.5755920000000 1.0
C      1  0.5570190000000  0.4676450000000  0.5342210000000 1.0
C      1  0.5101580000000  0.4683350000000  0.5499280000000 1.0
C      1  0.5166050000000  0.5598080000000  0.5652080000000 1.0
C      1  0.4714020000000  0.4634950000000  0.4401280000000 1.0
C      1  0.4582850000000  0.5438770000000  0.4318040000000 1.0
C      1  0.5001190000000  0.5249200000000  0.5784130000000 1.0
C      1  0.4519830000000  0.5356810000000  0.5696940000000 1.0
C      1  0.4898430000000  0.4590730000000  0.5677500000000 1.0
C      1  0.5022270000000  0.4515370000000  0.5930730000000 1.0
C      1  0.4818970000000  0.4100070000000  0.4930900000000 1.0
C      1  0.4709920000000  0.4369250000000  0.4531620000000 1.0
C      1  0.4540150000000  0.4860110000000  0.4921030000000 1.0
C      1  0.5371200000000  0.5502200000000  0.4887880000000 1.0
C      1  0.5470250000000  0.4810410000000  0.5103510000000 1.0
C      1  0.4113140000000  0.4802430000000  0.5136060000000 1.0
C      1  0.4116570000000  0.4974780000000  0.4899550000000 1.0
C      1  0.5177670000000  0.5044900000000  0.4187550000000 1.0
C      1  0.5334210000000  0.4592910000000  0.5669690000000 1.0
C      1  0.5870120000000  0.4892520000000  0.5037280000000 1.0
C      1  0.4846280000000  0.5243830000000  0.4680070000000 1.0
C      1  0.5144430000000  0.5205440000000  0.5549110000000 1.0
C      1  0.4735660000000  0.5080020000000  0.4180320000000 1.0
C      1  0.5790690000000  0.4624150000000  0.4927030000000 1.0
C      1  0.5073920000000  0.4215690000000  0.5531640000000 1.0
C      1  0.5031360000000  0.5336020000000  0.5238990000000 1.0
C      1  0.4975360000000  0.5735670000000  0.5336750000000 1.0
C      1  0.5094660000000  0.5507300000000  0.4993610000000 1.0
C      1  0.4848570000000  0.5295360000000  0.4350670000000 1.0
C      1  0.4566170000000  0.4408550000000  0.4778150000000 1.0
C      1  0.4427220000000  0.4378340000000  0.5251020000000 1.0
C      1  0.4885540000000  0.4818100000000  0.4562690000000 1.0
C      1  0.4798390000000  0.5448540000000  0.5722800000000 1.0
C      1  0.4357450000000  0.4726880000000  0.4485370000000 1.0
C      1  0.4422340000000  0.5128000000000  0.4582800000000 1.0
C      1  0.4183430000000  0.4984220000000  0.5343950000000 1.0
C      1  0.5032700000000  0.5969120000000  0.4923240000000 1.0
C      1  0.4429360000000  0.5347850000000  0.5423010000000 1.0
C      1  0.4318680000000  0.4446640000000  0.4585710000000 1.0
END
