TITL C-2441156-4686-888 0.029201210830799 125000 -13302.2579552385 0 0 93 (C1) n - 1
REM
REM in /home/bkarasulu/work/CARBON/AIRSS/Generating-Clusters/ReaxFF-fromJPCA2015/Units_Real/with-SteepDescent/Higher-Symm
REM
REM
REM
REM
REM
REM ./C.cell (1df0a924f5614ab8850e4351716899ee)
REM
REM compiler GCC version 9.2.1 20190827 (Red Hat 9.2.1-1)
REM options -cpp -mtune=generic -march=x86-64 -g -O0 -fpre-include=/usr/include/finclude/math-vector-fortran.h
REM seed -388140334 611004546 -532929954 -1911250217 670709119 280578862 1928323981 600996531 -2024904889 -2075730085 1423677245 495885814 -557397836 1443456588 -331394483 1572876687 820017336 -1116851410 -2065597958 1764734220 -195003153 182533308 1322476696 -1843667765 527735061 -1289546958 -450335697 -412316598 716896830 883841247 1587473563 1088882568 -67715165
REM
CELL 1.54180   50.00000   50.00000   50.00000   90.00000   90.00000   90.00000
LATT -1
SFAC C  
C      1  0.5187990000000  0.4846260000000  0.5636020000000 1.0
C      1  0.4973450000000  0.5006350000000  0.4512590000000 1.0
C      1  0.4900450000000  0.4806730000000  0.5756060000000 1.0
C      1  0.4900410000000  0.5239110000000  0.4293890000000 1.0
C      1  0.4861120000000  0.4236820000000  0.5231550000000 1.0
C      1  0.5197280000000  0.5755190000000  0.4789530000000 1.0
C      1  0.5492950000000  0.5229340000000  0.5437080000000 1.0
C      1  0.4500380000000  0.4740560000000  0.4530900000000 1.0
C      1  0.4723200000000  0.4573510000000  0.5011090000000 1.0
C      1  0.5248900000000  0.5399090000000  0.4995910000000 1.0
C      1  0.4432060000000  0.5631500000000  0.4715510000000 1.0
C      1  0.5569030000000  0.4371200000000  0.5257340000000 1.0
C      1  0.5321780000000  0.5265850000000  0.4761220000000 1.0
C      1  0.4660750000000  0.4709170000000  0.5254840000000 1.0
C      1  0.4327380000000  0.5143250000000  0.4781070000000 1.0
C      1  0.5824450000000  0.4840280000000  0.5260020000000 1.0
C      1  0.5562820000000  0.5322620000000  0.4604120000000 1.0
C      1  0.4410900000000  0.4657650000000  0.5407070000000 1.0
C      1  0.4453410000000  0.4986560000000  0.4338500000000 1.0
C      1  0.5592710000000  0.5026140000000  0.5645880000000 1.0
C      1  0.5574650000000  0.4836140000000  0.4386140000000 1.0
C      1  0.4364970000000  0.5229560000000  0.5518130000000 1.0
C      1  0.4747490000000  0.4897960000000  0.4653210000000 1.0
C      1  0.5261050000000  0.5024620000000  0.5386960000000 1.0
C      1  0.4866630000000  0.4339230000000  0.5496330000000 1.0
C      1  0.5154210000000  0.5653820000000  0.4516420000000 1.0
C      1  0.5239530000000  0.5316730000000  0.5808870000000 1.0
C      1  0.4771990000000  0.4717330000000  0.4157290000000 1.0
C      1  0.4581480000000  0.5228140000000  0.5698860000000 1.0
C      1  0.5424510000000  0.4716770000000  0.4204070000000 1.0
C      1  0.4676630000000  0.4177350000000  0.4756200000000 1.0
C      1  0.5291310000000  0.5763510000000  0.5278270000000 1.0
C      1  0.4980140000000  0.5411710000000  0.5084690000000 1.0
C      1  0.4986970000000  0.4577220000000  0.4900390000000 1.0
C      1  0.4246350000000  0.5109280000000  0.5260370000000 1.0
C      1  0.5697300000000  0.4903870000000  0.4795770000000 1.0
C      1  0.4520790000000  0.5154790000000  0.5305500000000 1.0
C      1  0.5461090000000  0.4840410000000  0.4642230000000 1.0
C      1  0.5286320000000  0.4392470000000  0.5230000000000 1.0
C      1  0.4716930000000  0.5626710000000  0.4748760000000 1.0
C      1  0.4742060000000  0.5450730000000  0.5629730000000 1.0
C      1  0.5245080000000  0.4509800000000  0.4314450000000 1.0
C      1  0.4181720000000  0.4934990000000  0.4807910000000 1.0
C      1  0.5872610000000  0.5075060000000  0.5195840000000 1.0
C      1  0.4858290000000  0.5674490000000  0.4484970000000 1.0
C      1  0.5162440000000  0.4345200000000  0.5497680000000 1.0
C      1  0.5102260000000  0.5834550000000  0.5060870000000 1.0
C      1  0.4900910000000  0.4152690000000  0.4960750000000 1.0
C      1  0.5765000000000  0.4723680000000  0.5009880000000 1.0
C      1  0.4229560000000  0.5291740000000  0.4991030000000 1.0
C      1  0.5815150000000  0.5267860000000  0.5045350000000 1.0
C      1  0.4177220000000  0.4709060000000  0.4965910000000 1.0
C      1  0.4686550000000  0.5651760000000  0.5402690000000 1.0
C      1  0.5290540000000  0.4339280000000  0.4584230000000 1.0
C      1  0.5011600000000  0.4611250000000  0.4237040000000 1.0
C      1  0.5016920000000  0.5475030000000  0.5681330000000 1.0
C      1  0.4734900000000  0.4983840000000  0.5288430000000 1.0
C      1  0.5219500000000  0.5001930000000  0.4672390000000 1.0
C      1  0.4318960000000  0.5571200000000  0.4987700000000 1.0
C      1  0.5662540000000  0.4443120000000  0.4986450000000 1.0
C      1  0.5753290000000  0.5183080000000  0.4772850000000 1.0
C      1  0.4226810000000  0.4799010000000  0.5240680000000 1.0
C      1  0.4714970000000  0.5098460000000  0.4864680000000 1.0
C      1  0.5180730000000  0.4909610000000  0.5137780000000 1.0
C      1  0.5167180000000  0.5403390000000  0.4349720000000 1.0
C      1  0.4762310000000  0.4562260000000  0.5685280000000 1.0
C      1  0.4339680000000  0.4575600000000  0.4753500000000 1.0
C      1  0.5640210000000  0.5402250000000  0.5211990000000 1.0
C      1  0.5343800000000  0.5042140000000  0.5794250000000 1.0
C      1  0.4701220000000  0.5005510000000  0.4190730000000 1.0
C      1  0.4483230000000  0.5637910000000  0.5212860000000 1.0
C      1  0.5489170000000  0.4379640000000  0.4767690000000 1.0
C      1  0.5310790000000  0.4560500000000  0.5620310000000 1.0
C      1  0.4712710000000  0.5470580000000  0.4340450000000 1.0
C      1  0.5200500000000  0.4631570000000  0.5082470000000 1.0
C      1  0.4801970000000  0.5375160000000  0.4871140000000 1.0
C      1  0.4656000000000  0.4960470000000  0.5762510000000 1.0
C      1  0.5441750000000  0.5008160000000  0.4207920000000 1.0
C      1  0.5079180000000  0.4324060000000  0.4792390000000 1.0
C      1  0.4890220000000  0.5663390000000  0.5184790000000 1.0
C      1  0.5428920000000  0.5458500000000  0.5640000000000 1.0
C      1  0.4610440000000  0.4524160000000  0.4340760000000 1.0
C      1  0.4673890000000  0.4318430000000  0.4516830000000 1.0
C      1  0.5231370000000  0.5646120000000  0.5539470000000 1.0
C      1  0.5420910000000  0.5267160000000  0.4347880000000 1.0
C      1  0.4508070000000  0.4708130000000  0.5682500000000 1.0
C      1  0.4443480000000  0.5474800000000  0.4464720000000 1.0
C      1  0.5570450000000  0.4530570000000  0.5509970000000 1.0
C      1  0.5448670000000  0.5595640000000  0.5091870000000 1.0
C      1  0.4519900000000  0.4392940000000  0.4891390000000 1.0
C      1  0.5700370000000  0.4789420000000  0.5513870000000 1.0
C      1  0.4342150000000  0.5204980000000  0.4492210000000 1.0
C      1  0.4920610000000  0.5038870000000  0.5084230000000 1.0
END
