TITL C-2441166-8118-334 0.0978489723897387 125000 -19721.0415734831 0 0 149 (C1) n - 1
REM
REM in /home/bkarasulu/work/CARBON/AIRSS/Generating-Clusters/ReaxFF-fromJPCA2015/Units_Real/with-SteepDescent/Higher-Symm
REM
REM
REM
REM
REM
REM ./C.cell (1df0a924f5614ab8850e4351716899ee)
REM
REM compiler GCC version 9.2.1 20190827 (Red Hat 9.2.1-1)
REM options -cpp -mtune=generic -march=x86-64 -g -O0 -fpre-include=/usr/include/finclude/math-vector-fortran.h
REM seed -210901393 -89870432 -2110529586 2092067978 -1513628755 -324684641 -1461322611 -34239980 1073836263 82700023 1214824100 -939319739 -1497610691 747627878 1187897374 1349509260 -1593800780 -1517390285 357194955 -413631608 -1229131609 1104842502 -834936503 1065063145 -679823959 902833252 1994491522 -1165753997 -87522623 -394485800 1522417981 820607202 1614290744
REM
CELL 1.54180   50.00000   50.00000   50.00000   90.00000   90.00000   90.00000
LATT -1
SFAC C  
C      1  0.5958380000000  0.4767980000000  0.4915950000000 1.0
C      1  0.5663950000000  0.4767450000000  0.5697180000000 1.0
C      1  0.4867240000000  0.4753410000000  0.5953450000000 1.0
C      1  0.4151260000000  0.4748640000000  0.5474610000000 1.0
C      1  0.4092730000000  0.4753450000000  0.4646440000000 1.0
C      1  0.4706330000000  0.4764770000000  0.4073870000000 1.0
C      1  0.5530350000000  0.4749380000000  0.4181280000000 1.0
C      1  0.5639200000000  0.4693320000000  0.4497720000000 1.0
C      1  0.5791160000000  0.4686400000000  0.5186550000000 1.0
C      1  0.5345350000000  0.4692000000000  0.5730890000000 1.0
C      1  0.4645070000000  0.4689070000000  0.5724780000000 1.0
C      1  0.4202270000000  0.4680560000000  0.5157000000000 1.0
C      1  0.4369780000000  0.4680180000000  0.4482600000000 1.0
C      1  0.5003950000000  0.4688040000000  0.4187970000000 1.0
C      1  0.5525610000000  0.5185930000000  0.5611650000000 1.0
C      1  0.4828480000000  0.5179170000000  0.5864570000000 1.0
C      1  0.4230790000000  0.5164590000000  0.5379920000000 1.0
C      1  0.4217330000000  0.5172230000000  0.4633710000000 1.0
C      1  0.4794620000000  0.5181690000000  0.4204230000000 1.0
C      1  0.5528640000000  0.5172470000000  0.4307680000000 1.0
C      1  0.5797460000000  0.5194110000000  0.4981740000000 1.0
C      1  0.5326810000000  0.5035020000000  0.4780580000000 1.0
C      1  0.5365850000000  0.5022620000000  0.5129210000000 1.0
C      1  0.5132130000000  0.5029890000000  0.5370740000000 1.0
C      1  0.4821460000000  0.5038560000000  0.5363290000000 1.0
C      1  0.4612700000000  0.5024590000000  0.5064240000000 1.0
C      1  0.4722610000000  0.5030800000000  0.4683370000000 1.0
C      1  0.5012240000000  0.5031880000000  0.4596690000000 1.0
C      1  0.4265270000000  0.4398090000000  0.5218680000000 1.0
C      1  0.4365390000000  0.4398420000000  0.4561490000000 1.0
C      1  0.4938090000000  0.4395540000000  0.4229910000000 1.0
C      1  0.5556800000000  0.4409130000000  0.4465710000000 1.0
C      1  0.5761200000000  0.4401830000000  0.5104980000000 1.0
C      1  0.5389540000000  0.4406910000000  0.5658510000000 1.0
C      1  0.4711910000000  0.4402220000000  0.5710750000000 1.0
C      1  0.4616370000000  0.5040950000000  0.4038820000000 1.0
C      1  0.5470170000000  0.5010250000000  0.4068450000000 1.0
C      1  0.5994420000000  0.5045290000000  0.4838160000000 1.0
C      1  0.5759810000000  0.5040940000000  0.5677130000000 1.0
C      1  0.4982330000000  0.5007840000000  0.6037980000000 1.0
C      1  0.4174230000000  0.4996220000000  0.5622030000000 1.0
C      1  0.3997160000000  0.5011950000000  0.4735590000000 1.0
C      1  0.5328120000000  0.5511760000000  0.5092370000000 1.0
C      1  0.5127430000000  0.5514710000000  0.5306390000000 1.0
C      1  0.4832950000000  0.5519890000000  0.5286700000000 1.0
C      1  0.4664780000000  0.5511850000000  0.5046150000000 1.0
C      1  0.4752580000000  0.5509870000000  0.4766210000000 1.0
C      1  0.5027590000000  0.5517140000000  0.4661480000000 1.0
C      1  0.5286570000000  0.5514060000000  0.4801170000000 1.0
C      1  0.4828440000000  0.5840230000000  0.5273950000000 1.0
C      1  0.4672910000000  0.5832890000000  0.5035900000000 1.0
C      1  0.4763500000000  0.5828100000000  0.4766030000000 1.0
C      1  0.5032100000000  0.5834690000000  0.4668780000000 1.0
C      1  0.5276630000000  0.5833570000000  0.4814640000000 1.0
C      1  0.5312690000000  0.5825680000000  0.5097500000000 1.0
C      1  0.5111910000000  0.5829500000000  0.5302320000000 1.0
C      1  0.4615040000000  0.5582900000000  0.5812040000000 1.0
C      1  0.4106120000000  0.5580330000000  0.5198260000000 1.0
C      1  0.4285890000000  0.5580220000000  0.4422130000000 1.0
C      1  0.4989750000000  0.5558450000000  0.4063730000000 1.0
C      1  0.5707410000000  0.5574150000000  0.4423300000000 1.0
C      1  0.5910270000000  0.5557220000000  0.5201290000000 1.0
C      1  0.5417000000000  0.5557540000000  0.5823440000000 1.0
C      1  0.4647720000000  0.4571260000000  0.5017590000000 1.0
C      1  0.4771510000000  0.4569930000000  0.4740110000000 1.0
C      1  0.5065400000000  0.4578240000000  0.4657500000000 1.0
C      1  0.5305680000000  0.4575870000000  0.4833250000000 1.0
C      1  0.5320200000000  0.4570080000000  0.5129460000000 1.0
C      1  0.5093050000000  0.4573810000000  0.5328790000000 1.0
C      1  0.4790600000000  0.4574840000000  0.5281850000000 1.0
C      1  0.5647620000000  0.5290330000000  0.5399260000000 1.0
C      1  0.5076310000000  0.5279170000000  0.5759950000000 1.0
C      1  0.4458780000000  0.5261320000000  0.5527230000000 1.0
C      1  0.4247790000000  0.5273790000000  0.4905120000000 1.0
C      1  0.4599890000000  0.5277480000000  0.4348460000000 1.0
C      1  0.5259260000000  0.5279190000000  0.4275600000000 1.0
C      1  0.5719120000000  0.5301200000000  0.4742550000000 1.0
C      1  0.5048310000000  0.5293180000000  0.4472870000000 1.0
C      1  0.5445020000000  0.5293350000000  0.4688550000000 1.0
C      1  0.5511200000000  0.5278350000000  0.5153030000000 1.0
C      1  0.5184570000000  0.5283660000000  0.5488740000000 1.0
C      1  0.4728970000000  0.5297860000000  0.5442010000000 1.0
C      1  0.4479940000000  0.5285400000000  0.5079650000000 1.0
C      1  0.4607580000000  0.5290800000000  0.4632010000000 1.0
C      1  0.4324860000000  0.4613540000000  0.5647710000000 1.0
C      1  0.4070800000000  0.4594920000000  0.4875710000000 1.0
C      1  0.4511710000000  0.4606600000000  0.4198460000000 1.0
C      1  0.5304490000000  0.4602490000000  0.4102940000000 1.0
C      1  0.5882240000000  0.4606070000000  0.4699700000000 1.0
C      1  0.5784870000000  0.4603400000000  0.5504860000000 1.0
C      1  0.5095720000000  0.4593600000000  0.5921610000000 1.0
C      1  0.4250140000000  0.5644750000000  0.4693320000000 1.0
C      1  0.4788950000000  0.5657160000000  0.4225800000000 1.0
C      1  0.5448700000000  0.5643550000000  0.4319140000000 1.0
C      1  0.5809220000000  0.5645570000000  0.4962310000000 1.0
C      1  0.5531210000000  0.5648680000000  0.5589490000000 1.0
C      1  0.4892740000000  0.5646590000000  0.5791250000000 1.0
C      1  0.4299020000000  0.5658530000000  0.5382210000000 1.0
C      1  0.5482460000000  0.5260820000000  0.5873070000000 1.0
C      1  0.4571250000000  0.5297640000000  0.5907790000000 1.0
C      1  0.4015680000000  0.5293100000000  0.5233570000000 1.0
C      1  0.4202420000000  0.5294270000000  0.4370470000000 1.0
C      1  0.4951960000000  0.5263900000000  0.3992690000000 1.0
C      1  0.5785920000000  0.5294040000000  0.4360510000000 1.0
C      1  0.5981110000000  0.5260690000000  0.5178710000000 1.0
C      1  0.5193630000000  0.5111500000000  0.4043890000000 1.0
C      1  0.5890200000000  0.5133170000000  0.4573320000000 1.0
C      1  0.5888230000000  0.5126450000000  0.5416950000000 1.0
C      1  0.5240950000000  0.5113040000000  0.5935480000000 1.0
C      1  0.4410610000000  0.5105500000000  0.5766080000000 1.0
C      1  0.4024660000000  0.5113730000000  0.5010480000000 1.0
C      1  0.4386290000000  0.5128320000000  0.4220550000000 1.0
C      1  0.4644560000000  0.4308400000000  0.4575280000000 1.0
C      1  0.5108690000000  0.4310960000000  0.4457850000000 1.0
C      1  0.5494240000000  0.4308160000000  0.4737080000000 1.0
C      1  0.5511380000000  0.4305240000000  0.5225670000000 1.0
C      1  0.5139050000000  0.4303410000000  0.5540380000000 1.0
C      1  0.4665280000000  0.4318770000000  0.5437960000000 1.0
C      1  0.4448320000000  0.4316540000000  0.5012000000000 1.0
C      1  0.4458770000000  0.4780770000000  0.5051560000000 1.0
C      1  0.4612200000000  0.4777140000000  0.4610120000000 1.0
C      1  0.5063420000000  0.4782470000000  0.4459100000000 1.0
C      1  0.5456830000000  0.4782320000000  0.4714630000000 1.0
C      1  0.5507410000000  0.4777170000000  0.5180690000000 1.0
C      1  0.5176710000000  0.4789260000000  0.5507070000000 1.0
C      1  0.4712230000000  0.4786160000000  0.5457670000000 1.0
C      1  0.4459850000000  0.5658680000000  0.5587760000000 1.0
C      1  0.4210340000000  0.5668480000000  0.4949710000000 1.0
C      1  0.4547370000000  0.5666640000000  0.4338350000000 1.0
C      1  0.5199570000000  0.5670280000000  0.4221580000000 1.0
C      1  0.5739340000000  0.5660360000000  0.4701340000000 1.0
C      1  0.5694790000000  0.5672330000000  0.5365460000000 1.0
C      1  0.5159220000000  0.5669400000000  0.5772330000000 1.0
C      1  0.5296370000000  0.4091740000000  0.5132450000000 1.0
C      1  0.5073990000000  0.4094020000000  0.5311920000000 1.0
C      1  0.4794900000000  0.4097100000000  0.5252180000000 1.0
C      1  0.4669170000000  0.4091750000000  0.4996580000000 1.0
C      1  0.4789600000000  0.4084930000000  0.4737260000000 1.0
C      1  0.5069400000000  0.4086360000000  0.4670440000000 1.0
C      1  0.5294250000000  0.4089100000000  0.4847410000000 1.0
C      1  0.4981230000000  0.4363130000000  0.5795280000000 1.0
C      1  0.4369600000000  0.4374480000000  0.5484650000000 1.0
C      1  0.4229710000000  0.4362100000000  0.4811160000000 1.0
C      1  0.4655170000000  0.4364210000000  0.4270200000000 1.0
C      1  0.5356870000000  0.4367680000000  0.4265250000000 1.0
C      1  0.5781220000000  0.4368430000000  0.4826570000000 1.0
C      1  0.5619480000000  0.4368690000000  0.5504180000000 1.0
C      1  0.5003910000000  0.5168720000000  0.4979210000000 1.0
C      1  0.4960050000000  0.4917280000000  0.4997930000000 1.0
END
