TITL C-2441160-1326-52 0.0474421353918299 125000 -18087.5843896646 0 0 129 (C1) n - 1
REM
REM in /home/bkarasulu/work/CARBON/AIRSS/Generating-Clusters/ReaxFF-fromJPCA2015/Units_Real/with-SteepDescent/Higher-Symm
REM
REM
REM
REM
REM
REM ./C.cell (1df0a924f5614ab8850e4351716899ee)
REM
REM compiler GCC version 9.2.1 20190827 (Red Hat 9.2.1-1)
REM options -cpp -mtune=generic -march=x86-64 -g -O0 -fpre-include=/usr/include/finclude/math-vector-fortran.h
REM seed -459873863 29372043 1523885477 1545486939 1231858857 -1827027312 1605572556 1299380883 1272846003 -789694603 1456346331 1746590179 1479624685 -1196790865 1059674741 -1975917368 -426859469 -361214819 594180454 -2142919867 -1768431772 1324135737 736174990 -1001892582 1553353283 -1231960805 1963350189 -283003290 -1226513913 1392581303 718900374 -691791644 -1102061614
REM
CELL 1.54180   50.00000   50.00000   50.00000   90.00000   90.00000   90.00000
LATT -1
SFAC C  
C      1  0.5288260000000  0.5469270000000  0.4245280000000 1.0
C      1  0.5770340000000  0.5456850000000  0.5291040000000 1.0
C      1  0.4710440000000  0.5527370000000  0.5721940000000 1.0
C      1  0.4227120000000  0.5464100000000  0.4711200000000 1.0
C      1  0.4659100000000  0.4487520000000  0.4252810000000 1.0
C      1  0.4234080000000  0.4536750000000  0.5288230000000 1.0
C      1  0.5310200000000  0.4489990000000  0.5777050000000 1.0
C      1  0.5760350000000  0.4496680000000  0.4662090000000 1.0
C      1  0.5370300000000  0.5620740000000  0.5040550000000 1.0
C      1  0.5016890000000  0.5862380000000  0.5378640000000 1.0
C      1  0.4605160000000  0.5609590000000  0.4973990000000 1.0
C      1  0.4998080000000  0.5661470000000  0.4655460000000 1.0
C      1  0.4646890000000  0.4380740000000  0.4992340000000 1.0
C      1  0.5016370000000  0.4293480000000  0.5276790000000 1.0
C      1  0.5384740000000  0.4399880000000  0.4991530000000 1.0
C      1  0.4963410000000  0.4398870000000  0.4624010000000 1.0
C      1  0.4389900000000  0.5560800000000  0.5383400000000 1.0
C      1  0.4608780000000  0.5643330000000  0.4375660000000 1.0
C      1  0.5621900000000  0.5644000000000  0.4624870000000 1.0
C      1  0.5395300000000  0.5690740000000  0.5578460000000 1.0
C      1  0.5568700000000  0.4423580000000  0.5389290000000 1.0
C      1  0.5326570000000  0.4383450000000  0.4420570000000 1.0
C      1  0.4355770000000  0.4267340000000  0.4656020000000 1.0
C      1  0.4629270000000  0.4299750000000  0.5582740000000 1.0
C      1  0.5415180000000  0.4912680000000  0.4875610000000 1.0
C      1  0.5067020000000  0.4944670000000  0.5388230000000 1.0
C      1  0.4682410000000  0.4917780000000  0.5067140000000 1.0
C      1  0.4933140000000  0.4929380000000  0.4616570000000 1.0
C      1  0.4580200000000  0.5045820000000  0.4821170000000 1.0
C      1  0.4833550000000  0.5119360000000  0.5495700000000 1.0
C      1  0.5407450000000  0.5076790000000  0.5108770000000 1.0
C      1  0.5181450000000  0.5062120000000  0.4551130000000 1.0
C      1  0.5007990000000  0.5472320000000  0.4183580000000 1.0
C      1  0.5811100000000  0.5471500000000  0.5007590000000 1.0
C      1  0.4986310000000  0.5550030000000  0.5775970000000 1.0
C      1  0.4172210000000  0.5470350000000  0.4996290000000 1.0
C      1  0.5152420000000  0.4515790000000  0.4242280000000 1.0
C      1  0.4187670000000  0.4534370000000  0.5009480000000 1.0
C      1  0.5020030000000  0.4476590000000  0.5765980000000 1.0
C      1  0.5829010000000  0.4562560000000  0.5072840000000 1.0
C      1  0.4124300000000  0.5260130000000  0.5201270000000 1.0
C      1  0.4808670000000  0.5250060000000  0.4147270000000 1.0
C      1  0.5863080000000  0.5258940000000  0.4811180000000 1.0
C      1  0.5141280000000  0.5327860000000  0.5888760000000 1.0
C      1  0.5934110000000  0.4740840000000  0.5246120000000 1.0
C      1  0.5264070000000  0.4726080000000  0.4067850000000 1.0
C      1  0.4083180000000  0.4713180000000  0.4790750000000 1.0
C      1  0.4855490000000  0.4699070000000  0.5871850000000 1.0
C      1  0.5615580000000  0.5627380000000  0.4906970000000 1.0
C      1  0.5120300000000  0.5690010000000  0.5576080000000 1.0
C      1  0.4370580000000  0.5606310000000  0.5113630000000 1.0
C      1  0.4905940000000  0.5651500000000  0.4383910000000 1.0
C      1  0.4385770000000  0.4375710000000  0.4913670000000 1.0
C      1  0.4912400000000  0.4321360000000  0.5553330000000 1.0
C      1  0.5677060000000  0.4386750000000  0.4930120000000 1.0
C      1  0.4921310000000  0.4397750000000  0.4337060000000 1.0
C      1  0.5886730000000  0.4983310000000  0.4864310000000 1.0
C      1  0.5084780000000  0.4874030000000  0.5912290000000 1.0
C      1  0.4088560000000  0.4999260000000  0.5113420000000 1.0
C      1  0.4856820000000  0.4971060000000  0.4123150000000 1.0
C      1  0.4082810000000  0.4999880000000  0.4828910000000 1.0
C      1  0.4946420000000  0.5121910000000  0.5922210000000 1.0
C      1  0.5908680000000  0.5017500000000  0.5159130000000 1.0
C      1  0.5149510000000  0.4993710000000  0.4096700000000 1.0
C      1  0.5413840000000  0.5138250000000  0.4699530000000 1.0
C      1  0.5256280000000  0.5113840000000  0.5526290000000 1.0
C      1  0.4499230000000  0.4914090000000  0.5278420000000 1.0
C      1  0.4736100000000  0.5130420000000  0.4600010000000 1.0
C      1  0.4475410000000  0.4818350000000  0.4693030000000 1.0
C      1  0.4682710000000  0.4874190000000  0.5474980000000 1.0
C      1  0.5496250000000  0.4876280000000  0.5276860000000 1.0
C      1  0.5299340000000  0.4828990000000  0.4457650000000 1.0
C      1  0.4270850000000  0.4699290000000  0.4547490000000 1.0
C      1  0.5489520000000  0.4734320000000  0.4281530000000 1.0
C      1  0.5678900000000  0.4698570000000  0.5448790000000 1.0
C      1  0.4595420000000  0.4747300000000  0.5726090000000 1.0
C      1  0.5648880000000  0.5302490000000  0.4592540000000 1.0
C      1  0.4603070000000  0.5284860000000  0.4367650000000 1.0
C      1  0.4271160000000  0.5308430000000  0.5457600000000 1.0
C      1  0.5383520000000  0.5263320000000  0.5708740000000 1.0
C      1  0.4186500000000  0.5197770000000  0.4614230000000 1.0
C      1  0.5366780000000  0.5199740000000  0.4197500000000 1.0
C      1  0.5798730000000  0.5191990000000  0.5377940000000 1.0
C      1  0.4691750000000  0.5231310000000  0.5737550000000 1.0
C      1  0.5810620000000  0.4786320000000  0.4643180000000 1.0
C      1  0.4632270000000  0.4772910000000  0.4205150000000 1.0
C      1  0.4238810000000  0.4820390000000  0.5357300000000 1.0
C      1  0.5365820000000  0.4765560000000  0.5832730000000 1.0
C      1  0.5609480000000  0.4863530000000  0.5710390000000 1.0
C      1  0.4336310000000  0.4871310000000  0.5669480000000 1.0
C      1  0.4364200000000  0.4855710000000  0.4296110000000 1.0
C      1  0.5725440000000  0.4887190000000  0.4381130000000 1.0
C      1  0.4387870000000  0.5150710000000  0.5669770000000 1.0
C      1  0.5662510000000  0.5137890000000  0.5638200000000 1.0
C      1  0.5623180000000  0.5153660000000  0.4331030000000 1.0
C      1  0.4337840000000  0.5136870000000  0.4374270000000 1.0
C      1  0.4800290000000  0.5399620000000  0.4946940000000 1.0
C      1  0.5048640000000  0.5416350000000  0.4801200000000 1.0
C      1  0.5225350000000  0.5361870000000  0.5055320000000 1.0
C      1  0.4947370000000  0.5296220000000  0.5179220000000 1.0
C      1  0.5233130000000  0.4646690000000  0.4948980000000 1.0
C      1  0.4954560000000  0.4662010000000  0.4753590000000 1.0
C      1  0.4796050000000  0.4625960000000  0.5016590000000 1.0
C      1  0.5046960000000  0.4617580000000  0.5183310000000 1.0
C      1  0.5232030000000  0.5969210000000  0.5206910000000 1.0
C      1  0.4708150000000  0.5870990000000  0.5041110000000 1.0
C      1  0.4851010000000  0.5887640000000  0.4782690000000 1.0
C      1  0.5239980000000  0.5860870000000  0.4924900000000 1.0
C      1  0.4808080000000  0.4077880000000  0.5193660000000 1.0
C      1  0.5264990000000  0.4193290000000  0.5147270000000 1.0
C      1  0.5093190000000  0.4186890000000  0.4772800000000 1.0
C      1  0.4783400000000  0.4127020000000  0.4895180000000 1.0
C      1  0.4383080000000  0.4327060000000  0.5422170000000 1.0
C      1  0.4528180000000  0.4269180000000  0.4417050000000 1.0
C      1  0.5580250000000  0.4306210000000  0.4522680000000 1.0
C      1  0.5469340000000  0.4292460000000  0.5621020000000 1.0
C      1  0.5632240000000  0.5673600000000  0.5428850000000 1.0
C      1  0.5404840000000  0.5695410000000  0.4430370000000 1.0
C      1  0.4390250000000  0.5682640000000  0.4581900000000 1.0
C      1  0.4600270000000  0.5687800000000  0.5513730000000 1.0
C      1  0.5453480000000  0.5893130000000  0.5384670000000 1.0
C      1  0.4739670000000  0.5864830000000  0.5331390000000 1.0
C      1  0.4614340000000  0.5856590000000  0.4608540000000 1.0
C      1  0.5358200000000  0.5863740000000  0.4655520000000 1.0
C      1  0.4576100000000  0.4110760000000  0.5366120000000 1.0
C      1  0.5463220000000  0.4164930000000  0.5358730000000 1.0
C      1  0.5325660000000  0.4151610000000  0.4603610000000 1.0
C      1  0.4591330000000  0.4105990000000  0.4646680000000 1.0
C      1  0.4961090000000  0.5009700000000  0.5125420000000 1.0
END
