TITL C-2441167-4473-1327 0.210732848332903 125000 -22675.1244218711 0 0 189 (C1) n - 1
REM
REM in /home/bkarasulu/work/CARBON/AIRSS/Generating-Clusters/ReaxFF-fromJPCA2015/Units_Real/with-SteepDescent/Higher-Symm
REM
REM
REM
REM
REM
REM ./C.cell (1df0a924f5614ab8850e4351716899ee)
REM
REM compiler GCC version 9.2.1 20190827 (Red Hat 9.2.1-1)
REM options -cpp -mtune=generic -march=x86-64 -g -O0 -fpre-include=/usr/include/finclude/math-vector-fortran.h
REM seed -1851155255 -1044368962 -1677598746 465233110 812897217 1989946193 57755419 -1697471825 205169870 -1820823375 -112923151 -1274736320 1594675062 909594680 -1766008785 402718497 671257298 622557163 111690399 338955497 -921533676 -400949450 1048776471 -147574009 1889065337 1528948597 -1357966180 828511167 1014083990 952133441 -1998044447 -827236507 306360919
REM
CELL 1.54180   50.00000   50.00000   50.00000   90.00000   90.00000   90.00000
LATT -1
SFAC C  
C      1  0.5910040000000  0.4997120000000  0.5215870000000 1.0
C      1  0.4514870000000  0.5825950000000  0.5191870000000 1.0
C      1  0.4492660000000  0.4154600000000  0.5202360000000 1.0
C      1  0.4043260000000  0.5000150000000  0.4803100000000 1.0
C      1  0.5444030000000  0.5848170000000  0.4744120000000 1.0
C      1  0.5522040000000  0.4166870000000  0.4787940000000 1.0
C      1  0.4821870000000  0.5276270000000  0.5253270000000 1.0
C      1  0.4793630000000  0.4721620000000  0.5230510000000 1.0
C      1  0.5328140000000  0.4953040000000  0.5277820000000 1.0
C      1  0.5173530000000  0.5249990000000  0.4815290000000 1.0
C      1  0.5138010000000  0.4668870000000  0.4741290000000 1.0
C      1  0.4649630000000  0.4950120000000  0.4742740000000 1.0
C      1  0.4518640000000  0.4799580000000  0.5577120000000 1.0
C      1  0.5438730000000  0.4669450000000  0.5590700000000 1.0
C      1  0.5057490000000  0.5514580000000  0.5586740000000 1.0
C      1  0.5472740000000  0.4796250000000  0.4419080000000 1.0
C      1  0.4545010000000  0.4664330000000  0.4417640000000 1.0
C      1  0.4943340000000  0.5567070000000  0.4405430000000 1.0
C      1  0.5334970000000  0.4017370000000  0.4657330000000 1.0
C      1  0.5672230000000  0.5779100000000  0.4610820000000 1.0
C      1  0.3997160000000  0.5197130000000  0.4605380000000 1.0
C      1  0.4631110000000  0.4014320000000  0.5406060000000 1.0
C      1  0.4319910000000  0.5770580000000  0.5377500000000 1.0
C      1  0.5969580000000  0.5209240000000  0.5350170000000 1.0
C      1  0.4860990000000  0.6122800000000  0.4952560000000 1.0
C      1  0.4109670000000  0.4291550000000  0.4923010000000 1.0
C      1  0.6073580000000  0.4613540000000  0.5055380000000 1.0
C      1  0.5265180000000  0.6118550000000  0.5045730000000 1.0
C      1  0.5904310000000  0.4381920000000  0.4989980000000 1.0
C      1  0.3958820000000  0.4613450000000  0.5113160000000 1.0
C      1  0.4668810000000  0.4528220000000  0.4637170000000 1.0
C      1  0.5571580000000  0.4916050000000  0.4654560000000 1.0
C      1  0.4870430000000  0.5531160000000  0.4664950000000 1.0
C      1  0.5421500000000  0.4523910000000  0.5357360000000 1.0
C      1  0.4417570000000  0.4946890000000  0.5361440000000 1.0
C      1  0.5162490000000  0.5524940000000  0.5331940000000 1.0
C      1  0.4573980000000  0.4389050000000  0.5765020000000 1.0
C      1  0.5719650000000  0.4943740000000  0.5779630000000 1.0
C      1  0.4700350000000  0.5642780000000  0.5799580000000 1.0
C      1  0.5413400000000  0.4393490000000  0.4203220000000 1.0
C      1  0.4282970000000  0.4943570000000  0.4238710000000 1.0
C      1  0.5303600000000  0.5640470000000  0.4197230000000 1.0
C      1  0.4864130000000  0.4604100000000  0.3980400000000 1.0
C      1  0.5423110000000  0.5075520000000  0.3980610000000 1.0
C      1  0.4733380000000  0.5327000000000  0.3984540000000 1.0
C      1  0.5134490000000  0.4569470000000  0.6017020000000 1.0
C      1  0.4571040000000  0.5088550000000  0.6039030000000 1.0
C      1  0.5263810000000  0.5324980000000  0.6029990000000 1.0
C      1  0.4518860000000  0.4108840000000  0.4916210000000 1.0
C      1  0.6002510000000  0.4925310000000  0.4940030000000 1.0
C      1  0.4480050000000  0.5873230000000  0.4909610000000 1.0
C      1  0.5521570000000  0.4139890000000  0.5086740000000 1.0
C      1  0.3993510000000  0.5018530000000  0.5084960000000 1.0
C      1  0.5492800000000  0.5947310000000  0.4988230000000 1.0
C      1  0.5894930000000  0.5229800000000  0.4495450000000 1.0
C      1  0.4375450000000  0.5687070000000  0.4425320000000 1.0
C      1  0.4724210000000  0.4108550000000  0.4420770000000 1.0
C      1  0.4088880000000  0.5177730000000  0.5590480000000 1.0
C      1  0.5635240000000  0.5633210000000  0.5578040000000 1.0
C      1  0.5259820000000  0.4120810000000  0.5509480000000 1.0
C      1  0.4266800000000  0.5454850000000  0.4290260000000 1.0
C      1  0.4974790000000  0.4127840000000  0.4279940000000 1.0
C      1  0.5782010000000  0.5395500000000  0.4277220000000 1.0
C      1  0.5739080000000  0.5424180000000  0.5735870000000 1.0
C      1  0.5012620000000  0.4120030000000  0.5677810000000 1.0
C      1  0.4233900000000  0.5400220000000  0.5707430000000 1.0
C      1  0.4734580000000  0.5915100000000  0.4801520000000 1.0
C      1  0.4365880000000  0.4315370000000  0.4782960000000 1.0
C      1  0.5812990000000  0.4794640000000  0.4734900000000 1.0
C      1  0.5201170000000  0.5934380000000  0.5259800000000 1.0
C      1  0.5648790000000  0.4358920000000  0.5238580000000 1.0
C      1  0.4116150000000  0.4815520000000  0.5232310000000 1.0
C      1  0.5173270000000  0.5560580000000  0.5869970000000 1.0
C      1  0.4443920000000  0.4852640000000  0.5910720000000 1.0
C      1  0.5400530000000  0.4578720000000  0.5887490000000 1.0
C      1  0.4845650000000  0.5568830000000  0.4115340000000 1.0
C      1  0.5564600000000  0.4861810000000  0.4131790000000 1.0
C      1  0.4597250000000  0.4587130000000  0.4109430000000 1.0
C      1  0.5711560000000  0.5821550000000  0.5110580000000 1.0
C      1  0.3998710000000  0.5199150000000  0.5302310000000 1.0
C      1  0.5308950000000  0.4044070000000  0.5234300000000 1.0
C      1  0.4320340000000  0.5771380000000  0.4695250000000 1.0
C      1  0.6041140000000  0.5192750000000  0.4813080000000 1.0
C      1  0.4716090000000  0.4049320000000  0.4710060000000 1.0
C      1  0.4127530000000  0.5662750000000  0.5195750000000 1.0
C      1  0.4871220000000  0.3956050000000  0.5232910000000 1.0
C      1  0.6050190000000  0.5338510000000  0.5059570000000 1.0
C      1  0.5832450000000  0.5748140000000  0.4857990000000 1.0
C      1  0.5174550000000  0.3966630000000  0.4910380000000 1.0
C      1  0.3987110000000  0.5413380000000  0.4817310000000 1.0
C      1  0.5531820000000  0.5323370000000  0.5898870000000 1.0
C      1  0.4443320000000  0.5300740000000  0.5876740000000 1.0
C      1  0.5025520000000  0.4340310000000  0.5864690000000 1.0
C      1  0.4460900000000  0.5333220000000  0.4117190000000 1.0
C      1  0.5553830000000  0.5277880000000  0.4143280000000 1.0
C      1  0.4969350000000  0.4368780000000  0.4121680000000 1.0
C      1  0.5224820000000  0.4422060000000  0.5035270000000 1.0
C      1  0.5531930000000  0.5444210000000  0.5113270000000 1.0
C      1  0.4404710000000  0.5258190000000  0.5087950000000 1.0
C      1  0.4862300000000  0.4338650000000  0.4950610000000 1.0
C      1  0.4490080000000  0.5436440000000  0.4929790000000 1.0
C      1  0.5605220000000  0.5256290000000  0.4942740000000 1.0
C      1  0.4882370000000  0.5472180000000  0.5950570000000 1.0
C      1  0.4638560000000  0.4625230000000  0.5927840000000 1.0
C      1  0.5480530000000  0.4871230000000  0.5935700000000 1.0
C      1  0.5125180000000  0.5453740000000  0.4063060000000 1.0
C      1  0.5356820000000  0.4637030000000  0.4061510000000 1.0
C      1  0.4520610000000  0.4880660000000  0.4072590000000 1.0
C      1  0.5457600000000  0.4281560000000  0.5676130000000 1.0
C      1  0.5399000000000  0.5746650000000  0.5700520000000 1.0
C      1  0.4163870000000  0.4927420000000  0.5738160000000 1.0
C      1  0.4530760000000  0.4282410000000  0.4275770000000 1.0
C      1  0.4620690000000  0.5778040000000  0.4298090000000 1.0
C      1  0.5834700000000  0.4983760000000  0.4319350000000 1.0
C      1  0.4864810000000  0.4591550000000  0.4829380000000 1.0
C      1  0.5420200000000  0.5072420000000  0.4861340000000 1.0
C      1  0.4671030000000  0.5370400000000  0.4745830000000 1.0
C      1  0.5184100000000  0.4524350000000  0.5266110000000 1.0
C      1  0.4589360000000  0.5080870000000  0.5185780000000 1.0
C      1  0.5345460000000  0.5362280000000  0.5272060000000 1.0
C      1  0.5728370000000  0.4723430000000  0.5596290000000 1.0
C      1  0.4859650000000  0.5728040000000  0.5584860000000 1.0
C      1  0.4408910000000  0.4526680000000  0.5572690000000 1.0
C      1  0.4273130000000  0.4742590000000  0.4432680000000 1.0
C      1  0.5143490000000  0.5771800000000  0.4390460000000 1.0
C      1  0.5579780000000  0.4516400000000  0.4392210000000 1.0
C      1  0.5960300000000  0.4762400000000  0.4466940000000 1.0
C      1  0.4751320000000  0.5939750000000  0.4494820000000 1.0
C      1  0.4325260000000  0.4300430000000  0.4476450000000 1.0
C      1  0.4092680000000  0.4761360000000  0.5527990000000 1.0
C      1  0.5299650000000  0.5864340000000  0.5487880000000 1.0
C      1  0.5708910000000  0.4270770000000  0.5536820000000 1.0
C      1  0.5102720000000  0.6098480000000  0.4808700000000 1.0
C      1  0.3997390000000  0.4543880000000  0.4836730000000 1.0
C      1  0.5930330000000  0.4328550000000  0.4720580000000 1.0
C      1  0.4859870000000  0.6120450000000  0.5258050000000 1.0
C      1  0.5987650000000  0.4600290000000  0.5319580000000 1.0
C      1  0.4098380000000  0.4381480000000  0.5200000000000 1.0
C      1  0.4591900000000  0.5184180000000  0.4324610000000 1.0
C      1  0.5043010000000  0.4554080000000  0.4331390000000 1.0
C      1  0.5362940000000  0.5229020000000  0.4350570000000 1.0
C      1  0.5401770000000  0.5174330000000  0.5694920000000 1.0
C      1  0.4940180000000  0.4537990000000  0.5672290000000 1.0
C      1  0.4648370000000  0.5238550000000  0.5678210000000 1.0
C      1  0.5379810000000  0.4613880000000  0.4912080000000 1.0
C      1  0.5087590000000  0.5533140000000  0.4860380000000 1.0
C      1  0.4461050000000  0.4778480000000  0.4887260000000 1.0
C      1  0.4553750000000  0.4634430000000  0.5111420000000 1.0
C      1  0.4954130000000  0.5559250000000  0.5132020000000 1.0
C      1  0.5477880000000  0.4835240000000  0.5068240000000 1.0
C      1  0.4549830000000  0.5173920000000  0.4595130000000 1.0
C      1  0.5129780000000  0.4418590000000  0.4560790000000 1.0
C      1  0.5434160000000  0.5409990000000  0.4561960000000 1.0
C      1  0.5458960000000  0.5158610000000  0.5425120000000 1.0
C      1  0.4919840000000  0.4498660000000  0.5381010000000 1.0
C      1  0.4624940000000  0.5385100000000  0.5447550000000 1.0
C      1  0.4201710000000  0.5384460000000  0.5235150000000 1.0
C      1  0.4913250000000  0.4249060000000  0.5208170000000 1.0
C      1  0.5683460000000  0.5608760000000  0.5293600000000 1.0
C      1  0.5687220000000  0.5351540000000  0.4697580000000 1.0
C      1  0.4973260000000  0.4163780000000  0.4759610000000 1.0
C      1  0.4264010000000  0.5517570000000  0.4802220000000 1.0
C      1  0.5169060000000  0.5154670000000  0.4127380000000 1.0
C      1  0.4764290000000  0.5056910000000  0.4114400000000 1.0
C      1  0.5085910000000  0.4762880000000  0.4115610000000 1.0
C      1  0.4830740000000  0.5178930000000  0.5913720000000 1.0
C      1  0.5232490000000  0.5048930000000  0.5907830000000 1.0
C      1  0.4911460000000  0.4733290000000  0.5890780000000 1.0
C      1  0.4379870000000  0.4420430000000  0.5290570000000 1.0
C      1  0.5764000000000  0.4780410000000  0.5319330000000 1.0
C      1  0.4796240000000  0.5803770000000  0.5296020000000 1.0
C      1  0.5670670000000  0.4367610000000  0.4632960000000 1.0
C      1  0.4179090000000  0.4746540000000  0.4711780000000 1.0
C      1  0.5179730000000  0.5839970000000  0.4675670000000 1.0
C      1  0.5580920000000  0.5610530000000  0.4374310000000 1.0
C      1  0.4158590000000  0.5194980000000  0.4359170000000 1.0
C      1  0.5247870000000  0.4183790000000  0.4406520000000 1.0
C      1  0.4448360000000  0.5587130000000  0.5586100000000 1.0
C      1  0.5813560000000  0.5181800000000  0.5600310000000 1.0
C      1  0.4724730000000  0.4159480000000  0.5643500000000 1.0
C      1  0.4851080000000  0.4882890000000  0.5460640000000 1.0
C      1  0.5140040000000  0.4904570000000  0.5479810000000 1.0
C      1  0.4983440000000  0.5144220000000  0.5467310000000 1.0
C      1  0.5136090000000  0.4874250000000  0.4548230000000 1.0
C      1  0.4866620000000  0.4930380000000  0.4552600000000 1.0
C      1  0.5044260000000  0.5141720000000  0.4588540000000 1.0
C      1  0.4969250000000  0.3768530000000  0.5020240000000 1.0
C      1  0.3902850000000  0.5641510000000  0.4997390000000 1.0
C      1  0.6085700000000  0.5616640000000  0.4958280000000 1.0
END
