TITL C-2441168-9922-1441 0.0618508101254068 125000 -25759.1164854944 0 0 181 (C1) n - 1
REM
REM in /home/bkarasulu/work/CARBON/AIRSS/Generating-Clusters/ReaxFF-fromJPCA2015/Units_Real/with-SteepDescent/Higher-Symm
REM
REM
REM
REM
REM
REM ./C.cell (1df0a924f5614ab8850e4351716899ee)
REM
REM compiler GCC version 9.2.1 20190827 (Red Hat 9.2.1-1)
REM options -cpp -mtune=generic -march=x86-64 -g -O0 -fpre-include=/usr/include/finclude/math-vector-fortran.h
REM seed -447423348 -2122684891 -1709849767 -1774934888 -2013912637 -608312127 2104190779 83438973 1743217991 1603053650 -1455756140 -1565959883 -678152141 -1504998118 -589025133 -1805808806 -1679293792 -369542477 -236526078 1401566008 1964033966 453567226 -139332047 -1695549598 -1244114797 -487184383 -1389857287 -1803640286 -639916647 303699678 -577267124 -522586826 -1230736371
REM
CELL 1.54180   50.00000   50.00000   50.00000   90.00000   90.00000   90.00000
LATT -1
SFAC C  
C      1  0.5415150000000  0.4511500000000  0.5396950000000 1.0
C      1  0.5330820000000  0.4471990000000  0.4538780000000 1.0
C      1  0.4514730000000  0.4457200000000  0.4693490000000 1.0
C      1  0.4617230000000  0.4472680000000  0.5421770000000 1.0
C      1  0.5366370000000  0.5522440000000  0.5384510000000 1.0
C      1  0.5332320000000  0.5488330000000  0.4628130000000 1.0
C      1  0.4519940000000  0.5481570000000  0.4649410000000 1.0
C      1  0.4679490000000  0.5497700000000  0.5406810000000 1.0
C      1  0.4639700000000  0.4095530000000  0.4537320000000 1.0
C      1  0.4496510000000  0.4023780000000  0.5332380000000 1.0
C      1  0.5377090000000  0.4068270000000  0.5456500000000 1.0
C      1  0.5463600000000  0.4078390000000  0.4611750000000 1.0
C      1  0.4610810000000  0.5979030000000  0.4541920000000 1.0
C      1  0.4532080000000  0.5920020000000  0.5363380000000 1.0
C      1  0.5354170000000  0.5972810000000  0.5445580000000 1.0
C      1  0.5417990000000  0.5936880000000  0.4552840000000 1.0
C      1  0.4022740000000  0.5143230000000  0.4856020000000 1.0
C      1  0.4912020000000  0.5151910000000  0.5979120000000 1.0
C      1  0.5991720000000  0.5154780000000  0.5082830000000 1.0
C      1  0.5063390000000  0.5176850000000  0.4008300000000 1.0
C      1  0.4008820000000  0.4848040000000  0.4881180000000 1.0
C      1  0.4895110000000  0.4847260000000  0.5982220000000 1.0
C      1  0.6006850000000  0.4850310000000  0.5084890000000 1.0
C      1  0.5074220000000  0.4875490000000  0.4008890000000 1.0
C      1  0.5853920000000  0.4304220000000  0.4923260000000 1.0
C      1  0.4954180000000  0.4304800000000  0.4148100000000 1.0
C      1  0.4135700000000  0.4264880000000  0.5044250000000 1.0
C      1  0.5060270000000  0.4295500000000  0.5876120000000 1.0
C      1  0.5880440000000  0.5741560000000  0.4904440000000 1.0
C      1  0.4896190000000  0.5746760000000  0.4179680000000 1.0
C      1  0.4135720000000  0.5706880000000  0.5014200000000 1.0
C      1  0.5086910000000  0.5758380000000  0.5830360000000 1.0
C      1  0.5586410000000  0.4715170000000  0.4922820000000 1.0
C      1  0.4946770000000  0.4686900000000  0.4503160000000 1.0
C      1  0.4387240000000  0.4707420000000  0.5103810000000 1.0
C      1  0.5108590000000  0.4731140000000  0.5562400000000 1.0
C      1  0.5546830000000  0.5276030000000  0.4932940000000 1.0
C      1  0.4955710000000  0.5263770000000  0.4468870000000 1.0
C      1  0.4436960000000  0.5278300000000  0.5070690000000 1.0
C      1  0.5065980000000  0.5265130000000  0.5527130000000 1.0
C      1  0.4604390000000  0.5799590000000  0.5744700000000 1.0
C      1  0.5730070000000  0.5819500000000  0.5355720000000 1.0
C      1  0.5389610000000  0.5854730000000  0.4270680000000 1.0
C      1  0.4222850000000  0.5780000000000  0.4612360000000 1.0
C      1  0.4661880000000  0.4165510000000  0.5696100000000 1.0
C      1  0.5751210000000  0.4207830000000  0.5355710000000 1.0
C      1  0.5352810000000  0.4201760000000  0.4226260000000 1.0
C      1  0.4229470000000  0.4217350000000  0.4588640000000 1.0
C      1  0.4453720000000  0.5163640000000  0.5833800000000 1.0
C      1  0.5792900000000  0.5120840000000  0.5509730000000 1.0
C      1  0.5475830000000  0.5152550000000  0.4199650000000 1.0
C      1  0.4176480000000  0.5092740000000  0.4401710000000 1.0
C      1  0.4476280000000  0.4875700000000  0.5766300000000 1.0
C      1  0.5863380000000  0.4829820000000  0.5544210000000 1.0
C      1  0.5524620000000  0.4866750000000  0.4149600000000 1.0
C      1  0.4101220000000  0.4806770000000  0.4431160000000 1.0
C      1  0.4108530000000  0.4449010000000  0.5267420000000 1.0
C      1  0.5265440000000  0.4497170000000  0.5910380000000 1.0
C      1  0.5899550000000  0.4499800000000  0.4710560000000 1.0
C      1  0.4739550000000  0.4508640000000  0.4106460000000 1.0
C      1  0.4105240000000  0.5512500000000  0.5233910000000 1.0
C      1  0.5267110000000  0.5528950000000  0.5881640000000 1.0
C      1  0.5896540000000  0.5514230000000  0.4714150000000 1.0
C      1  0.4701860000000  0.5528560000000  0.4156790000000 1.0
C      1  0.5578070000000  0.4171150000000  0.4907160000000 1.0
C      1  0.4935840000000  0.4166580000000  0.4418940000000 1.0
C      1  0.4397000000000  0.4114960000000  0.5053880000000 1.0
C      1  0.5111130000000  0.4199000000000  0.5584420000000 1.0
C      1  0.5598050000000  0.5827200000000  0.4891020000000 1.0
C      1  0.4870230000000  0.5930460000000  0.4407150000000 1.0
C      1  0.4425000000000  0.5819990000000  0.5048160000000 1.0
C      1  0.5090080000000  0.5914370000000  0.5579510000000 1.0
C      1  0.5639430000000  0.5786660000000  0.4398430000000 1.0
C      1  0.4387490000000  0.5849050000000  0.4395580000000 1.0
C      1  0.4381000000000  0.5791710000000  0.5572790000000 1.0
C      1  0.5577160000000  0.5848290000000  0.5596900000000 1.0
C      1  0.5593410000000  0.4215220000000  0.4386270000000 1.0
C      1  0.4421550000000  0.4220970000000  0.4374340000000 1.0
C      1  0.4389270000000  0.4151840000000  0.5575030000000 1.0
C      1  0.5600770000000  0.4193860000000  0.5591880000000 1.0
C      1  0.4650910000000  0.4741870000000  0.5433280000000 1.0
C      1  0.5500720000000  0.4759830000000  0.5369480000000 1.0
C      1  0.5374470000000  0.4737050000000  0.4563340000000 1.0
C      1  0.4545290000000  0.4730580000000  0.4663640000000 1.0
C      1  0.4651050000000  0.5213590000000  0.5413960000000 1.0
C      1  0.5327310000000  0.5260070000000  0.5411710000000 1.0
C      1  0.5396690000000  0.5212220000000  0.4507320000000 1.0
C      1  0.4547540000000  0.5209050000000  0.4647850000000 1.0
C      1  0.4871780000000  0.5545120000000  0.5170630000000 1.0
C      1  0.5178330000000  0.5595580000000  0.5162580000000 1.0
C      1  0.5161090000000  0.5452300000000  0.4884500000000 1.0
C      1  0.4935090000000  0.5287480000000  0.4956490000000 1.0
C      1  0.4746540000000  0.4429740000000  0.5154200000000 1.0
C      1  0.5260550000000  0.4487760000000  0.5145740000000 1.0
C      1  0.5093600000000  0.4758690000000  0.4989790000000 1.0
C      1  0.4829350000000  0.4677760000000  0.5028610000000 1.0
C      1  0.4800930000000  0.4784290000000  0.4017220000000 1.0
C      1  0.4093890000000  0.4754570000000  0.5158780000000 1.0
C      1  0.5170180000000  0.4750940000000  0.6017240000000 1.0
C      1  0.6019760000000  0.4753240000000  0.4812760000000 1.0
C      1  0.4784460000000  0.5269920000000  0.4037330000000 1.0
C      1  0.4000930000000  0.5256200000000  0.5134460000000 1.0
C      1  0.5188660000000  0.5257500000000  0.5979400000000 1.0
C      1  0.6005930000000  0.5250590000000  0.4807980000000 1.0
C      1  0.5520370000000  0.4881670000000  0.5128840000000 1.0
C      1  0.5122730000000  0.4839340000000  0.4654350000000 1.0
C      1  0.4595680000000  0.4840350000000  0.4947620000000 1.0
C      1  0.4888050000000  0.4857850000000  0.5469010000000 1.0
C      1  0.5375000000000  0.5119510000000  0.5119860000000 1.0
C      1  0.5146220000000  0.5098050000000  0.4563940000000 1.0
C      1  0.4626710000000  0.5133930000000  0.4905410000000 1.0
C      1  0.4910440000000  0.5098260000000  0.5374720000000 1.0
C      1  0.4773600000000  0.4392170000000  0.5849230000000 1.0
C      1  0.5901260000000  0.4393420000000  0.5205480000000 1.0
C      1  0.5221770000000  0.4405940000000  0.4081290000000 1.0
C      1  0.4067270000000  0.4364490000000  0.4768800000000 1.0
C      1  0.4789740000000  0.5616050000000  0.5869230000000 1.0
C      1  0.5845360000000  0.5604750000000  0.5204290000000 1.0
C      1  0.5191110000000  0.5628920000000  0.4189310000000 1.0
C      1  0.4100830000000  0.5577160000000  0.4740890000000 1.0
C      1  0.5433730000000  0.4040370000000  0.5174340000000 1.0
C      1  0.5187050000000  0.4017630000000  0.4566340000000 1.0
C      1  0.4579610000000  0.4017600000000  0.4809890000000 1.0
C      1  0.4765850000000  0.4026750000000  0.5443380000000 1.0
C      1  0.5472370000000  0.5982880000000  0.5162420000000 1.0
C      1  0.5122400000000  0.5991600000000  0.4561940000000 1.0
C      1  0.4566980000000  0.5977820000000  0.4833110000000 1.0
C      1  0.4816780000000  0.5962180000000  0.5429940000000 1.0
C      1  0.4682040000000  0.4689180000000  0.5878010000000 1.0
C      1  0.5941070000000  0.4682060000000  0.5303930000000 1.0
C      1  0.5298690000000  0.4709230000000  0.4068530000000 1.0
C      1  0.4042130000000  0.4659220000000  0.4680670000000 1.0
C      1  0.4684710000000  0.5307930000000  0.5923820000000 1.0
C      1  0.5890300000000  0.5306500000000  0.5300610000000 1.0
C      1  0.5289910000000  0.5331320000000  0.4081960000000 1.0
C      1  0.4107970000000  0.5278290000000  0.4622450000000 1.0
C      1  0.4484620000000  0.4488210000000  0.4234130000000 1.0
C      1  0.4324120000000  0.4413760000000  0.5461880000000 1.0
C      1  0.5496100000000  0.4471160000000  0.5693950000000 1.0
C      1  0.5726850000000  0.4493900000000  0.4470950000000 1.0
C      1  0.4495670000000  0.5574900000000  0.4366240000000 1.0
C      1  0.4269390000000  0.5514510000000  0.5481230000000 1.0
C      1  0.5447490000000  0.5589520000000  0.5653840000000 1.0
C      1  0.5656210000000  0.5550870000000  0.4554000000000 1.0
C      1  0.5176610000000  0.4163620000000  0.5090880000000 1.0
C      1  0.5084890000000  0.4048170000000  0.4830050000000 1.0
C      1  0.4832450000000  0.4016220000000  0.4937170000000 1.0
C      1  0.4891970000000  0.4156920000000  0.5191680000000 1.0
C      1  0.5232380000000  0.5865910000000  0.5052600000000 1.0
C      1  0.5064670000000  0.5962820000000  0.4838880000000 1.0
C      1  0.4816050000000  0.5964770000000  0.4942510000000 1.0
C      1  0.4859250000000  0.5833110000000  0.5168800000000 1.0
C      1  0.4910010000000  0.5490600000000  0.5588970000000 1.0
C      1  0.5536360000000  0.5555930000000  0.4989030000000 1.0
C      1  0.5100210000000  0.5519380000000  0.4453480000000 1.0
C      1  0.4500070000000  0.5533410000000  0.4941140000000 1.0
C      1  0.5009310000000  0.4458310000000  0.5507550000000 1.0
C      1  0.5464210000000  0.4450750000000  0.4938800000000 1.0
C      1  0.5055980000000  0.4430720000000  0.4532650000000 1.0
C      1  0.4489620000000  0.4445970000000  0.4985170000000 1.0
C      1  0.4708620000000  0.4832700000000  0.4452340000000 1.0
C      1  0.4398580000000  0.4880270000000  0.5476810000000 1.0
C      1  0.5367790000000  0.4875120000000  0.5576540000000 1.0
C      1  0.5595160000000  0.4858810000000  0.4683000000000 1.0
C      1  0.4706770000000  0.5117830000000  0.4442910000000 1.0
C      1  0.4402310000000  0.5137800000000  0.5326610000000 1.0
C      1  0.5512400000000  0.5117150000000  0.5591260000000 1.0
C      1  0.5594160000000  0.5134040000000  0.4693450000000 1.0
C      1  0.5760660000000  0.4729900000000  0.4292170000000 1.0
C      1  0.4302870000000  0.4721380000000  0.4227860000000 1.0
C      1  0.4017080000000  0.5098390000000  0.5587380000000 1.0
C      1  0.5710210000000  0.4708520000000  0.5763390000000 1.0
C      1  0.5962490000000  0.4928450000000  0.4374570000000 1.0
C      1  0.4363260000000  0.5002680000000  0.4169570000000 1.0
C      1  0.4232470000000  0.5294850000000  0.5672160000000 1.0
C      1  0.5566080000000  0.4876840000000  0.5931150000000 1.0
C      1  0.3985820000000  0.5026200000000  0.5305060000000 1.0
C      1  0.6041900000000  0.5000770000000  0.4654700000000 1.0
C      1  0.4628840000000  0.5023970000000  0.4045060000000 1.0
C      1  0.5338510000000  0.5005420000000  0.6037560000000 1.0
C      1  0.5082140000000  0.5050220000000  0.5078980000000 1.0
END
