TITL C-2441154-10-287 0.00269440239326444 125000 -5272.02432009493 0 0 36 (C2) n - 1
REM
REM in /home/bkarasulu/work/CARBON/AIRSS/Generating-Clusters/ReaxFF-fromJPCA2015/Units_Real/with-SteepDescent/Higher-Symm
REM
REM
REM
REM
REM
REM ./C.cell (1df0a924f5614ab8850e4351716899ee)
REM
REM compiler GCC version 9.2.1 20190827 (Red Hat 9.2.1-1)
REM options -cpp -mtune=generic -march=x86-64 -g -O0 -fpre-include=/usr/include/finclude/math-vector-fortran.h
REM seed -801513615 -795229884 247368204 -151324496 1908346741 -853335633 168457395 -36352211 -201366805 516568106 -350881849 -1683891690 517439087 -1385266780 155101462 1479730159 -259769730 1434013208 1844025724 877588160 -1571007791 1962786670 59499597 -560611333 -1047222553 -523779217 1979436348 202406538 521485906 2113583284 1060546038 -1992839690 -683170275
REM
CELL 1.54180   50.00000   50.00000   50.00000   90.00000   90.00000   90.00000
LATT -1
SFAC C  
C      1  0.5330610000000  0.4600310000000  0.4522430000000 1.0
C      1  0.4669300000000  0.4600450000000  0.5477850000000 1.0
C      1  0.5442790000000  0.5312450000000  0.4997750000000 1.0
C      1  0.4557160000000  0.5312420000000  0.5002210000000 1.0
C      1  0.4961700000000  0.4611040000000  0.5490040000000 1.0
C      1  0.5038430000000  0.4610860000000  0.4511150000000 1.0
C      1  0.5459160000000  0.4650740000000  0.4775590000000 1.0
C      1  0.4541100000000  0.4650720000000  0.5224450000000 1.0
C      1  0.5281330000000  0.4869600000000  0.5214600000000 1.0
C      1  0.4718640000000  0.4869720000000  0.4785490000000 1.0
C      1  0.4777880000000  0.5456020000000  0.4438840000000 1.0
C      1  0.5221890000000  0.5455810000000  0.5561050000000 1.0
C      1  0.4888700000000  0.4371240000000  0.4624910000000 1.0
C      1  0.5110630000000  0.4372870000000  0.5374070000000 1.0
C      1  0.4644530000000  0.5247740000000  0.4585880000000 1.0
C      1  0.5355190000000  0.5247490000000  0.5414110000000 1.0
C      1  0.5207450000000  0.5032460000000  0.4615850000000 1.0
C      1  0.4792680000000  0.5032510000000  0.5384140000000 1.0
C      1  0.5164870000000  0.5541440000000  0.4777370000000 1.0
C      1  0.4835010000000  0.5541470000000  0.5222620000000 1.0
C      1  0.4700280000000  0.5281060000000  0.5262390000000 1.0
C      1  0.5299760000000  0.5281100000000  0.4737520000000 1.0
C      1  0.5424330000000  0.4851410000000  0.4582320000000 1.0
C      1  0.4575740000000  0.4851490000000  0.5417700000000 1.0
C      1  0.4963590000000  0.4872560000000  0.4615450000000 1.0
C      1  0.5036510000000  0.4872610000000  0.5384780000000 1.0
C      1  0.5116060000000  0.5580670000000  0.5289580000000 1.0
C      1  0.4883830000000  0.5580750000000  0.4710440000000 1.0
C      1  0.5466280000000  0.5100430000000  0.5205550000000 1.0
C      1  0.4533550000000  0.5100520000000  0.4794360000000 1.0
C      1  0.4678230000000  0.4640620000000  0.4965900000000 1.0
C      1  0.5322050000000  0.4640450000000  0.5034170000000 1.0
C      1  0.5285560000000  0.5560680000000  0.5052270000000 1.0
C      1  0.4714320000000  0.5560690000000  0.4947710000000 1.0
C      1  0.5132520000000  0.4418410000000  0.5082610000000 1.0
C      1  0.4868330000000  0.4419190000000  0.4916840000000 1.0
END
