TITL C-2441169-1362-136 0.310404665913973 125000 -19884.2819704119 0 0 192 (C1) n - 1
REM
REM in /home/bkarasulu/work/CARBON/AIRSS/Generating-Clusters/ReaxFF-fromJPCA2015/Units_Real/with-SteepDescent/Higher-Symm
REM
REM
REM
REM
REM
REM ./C.cell (1df0a924f5614ab8850e4351716899ee)
REM
REM compiler GCC version 9.2.1 20190827 (Red Hat 9.2.1-1)
REM options -cpp -mtune=generic -march=x86-64 -g -O0 -fpre-include=/usr/include/finclude/math-vector-fortran.h
REM seed 758609059 -62236256 1623705692 -1508573804 -382355587 949965710 -82405304 -890866906 1991142335 766533522 1416943698 -1218758509 2068215454 444273063 -612743825 -56166365 1566850253 -1234993931 964268006 371522557 133978672 -2019633617 1802179104 -481392752 -1220755845 2079505926 1247566084 -1786470852 2097595612 -1690276299 -654678945 -1580731202 -820102160
REM
CELL 1.54180   50.00000   50.00000   50.00000   90.00000   90.00000   90.00000
LATT -1
SFAC C  
C      1  0.5078230000000  0.5950080000000  0.4547430000000 1.0
C      1  0.5118390000000  0.5931510000000  0.5498810000000 1.0
C      1  0.5148500000000  0.4455770000000  0.5643390000000 1.0
C      1  0.5179330000000  0.4428230000000  0.4403260000000 1.0
C      1  0.4411580000000  0.5516980000000  0.4673660000000 1.0
C      1  0.4358290000000  0.5419020000000  0.5394840000000 1.0
C      1  0.4781340000000  0.4491660000000  0.4114070000000 1.0
C      1  0.4793050000000  0.4502450000000  0.5949300000000 1.0
C      1  0.5314780000000  0.4555010000000  0.4173440000000 1.0
C      1  0.5296190000000  0.4588140000000  0.5860820000000 1.0
C      1  0.4563550000000  0.4253260000000  0.4727070000000 1.0
C      1  0.4583120000000  0.4317720000000  0.5292350000000 1.0
C      1  0.5882130000000  0.5096390000000  0.4559050000000 1.0
C      1  0.5903490000000  0.5074970000000  0.5456890000000 1.0
C      1  0.4798380000000  0.5871480000000  0.4587510000000 1.0
C      1  0.4827660000000  0.5866320000000  0.5483260000000 1.0
C      1  0.5653070000000  0.5407760000000  0.5468450000000 1.0
C      1  0.5631020000000  0.5449260000000  0.4641060000000 1.0
C      1  0.5259420000000  0.5199810000000  0.4705800000000 1.0
C      1  0.5309040000000  0.5194100000000  0.5395120000000 1.0
C      1  0.5038750000000  0.4683370000000  0.5958490000000 1.0
C      1  0.5050390000000  0.4635610000000  0.4073680000000 1.0
C      1  0.4904640000000  0.5374770000000  0.4728880000000 1.0
C      1  0.4916620000000  0.5390890000000  0.5325700000000 1.0
C      1  0.5735290000000  0.4657980000000  0.4516380000000 1.0
C      1  0.5698130000000  0.4624060000000  0.5505440000000 1.0
C      1  0.5445110000000  0.5791200000000  0.4532360000000 1.0
C      1  0.5471040000000  0.5807490000000  0.5533280000000 1.0
C      1  0.4908130000000  0.4682790000000  0.4506190000000 1.0
C      1  0.4883900000000  0.4682710000000  0.5527090000000 1.0
C      1  0.5552610000000  0.4352520000000  0.5390840000000 1.0
C      1  0.5671680000000  0.4388430000000  0.4609380000000 1.0
C      1  0.4761630000000  0.4291700000000  0.5767430000000 1.0
C      1  0.4788990000000  0.4273820000000  0.4280410000000 1.0
C      1  0.4548140000000  0.4642240000000  0.5859560000000 1.0
C      1  0.4538090000000  0.4671980000000  0.4198850000000 1.0
C      1  0.4764150000000  0.5226850000000  0.4118520000000 1.0
C      1  0.4776420000000  0.5239950000000  0.5910900000000 1.0
C      1  0.4311530000000  0.4598230000000  0.4359020000000 1.0
C      1  0.4360020000000  0.4538360000000  0.5681290000000 1.0
C      1  0.5362050000000  0.4963870000000  0.4328280000000 1.0
C      1  0.5467570000000  0.5000390000000  0.5745090000000 1.0
C      1  0.5860410000000  0.4807110000000  0.5372550000000 1.0
C      1  0.5893030000000  0.4839200000000  0.4680010000000 1.0
C      1  0.5566530000000  0.5598750000000  0.5675610000000 1.0
C      1  0.5559360000000  0.5592920000000  0.4380340000000 1.0
C      1  0.4734860000000  0.5065870000000  0.4520730000000 1.0
C      1  0.4659700000000  0.5056110000000  0.5468470000000 1.0
C      1  0.4304240000000  0.4802840000000  0.5370830000000 1.0
C      1  0.4420920000000  0.4842190000000  0.4658040000000 1.0
C      1  0.4410300000000  0.5099380000000  0.4263970000000 1.0
C      1  0.4399660000000  0.5119170000000  0.5799110000000 1.0
C      1  0.4679220000000  0.4152110000000  0.5543540000000 1.0
C      1  0.4677900000000  0.4118720000000  0.4479410000000 1.0
C      1  0.5277490000000  0.5186760000000  0.5853410000000 1.0
C      1  0.5272210000000  0.5182850000000  0.4153960000000 1.0
C      1  0.4246220000000  0.4986420000000  0.4472270000000 1.0
C      1  0.4240270000000  0.5008360000000  0.5582290000000 1.0
C      1  0.5170840000000  0.4145160000000  0.5649050000000 1.0
C      1  0.5146070000000  0.4131650000000  0.4433610000000 1.0
C      1  0.5043760000000  0.4837540000000  0.4728490000000 1.0
C      1  0.5032480000000  0.4839860000000  0.5307620000000 1.0
C      1  0.4192830000000  0.4482880000000  0.4604580000000 1.0
C      1  0.4202600000000  0.4518880000000  0.5445940000000 1.0
C      1  0.5335320000000  0.5475220000000  0.5838260000000 1.0
C      1  0.5364750000000  0.5462430000000  0.4199720000000 1.0
C      1  0.5146560000000  0.5466050000000  0.4594790000000 1.0
C      1  0.5187010000000  0.5436950000000  0.5417690000000 1.0
C      1  0.4560160000000  0.5353810000000  0.4281960000000 1.0
C      1  0.4556550000000  0.5372190000000  0.5778170000000 1.0
C      1  0.4902760000000  0.4865040000000  0.5774420000000 1.0
C      1  0.4964650000000  0.4839870000000  0.4261400000000 1.0
C      1  0.4637260000000  0.4639710000000  0.5357610000000 1.0
C      1  0.4619580000000  0.4621580000000  0.4647630000000 1.0
C      1  0.4508410000000  0.5097700000000  0.4728610000000 1.0
C      1  0.4490810000000  0.5187380000000  0.5270900000000 1.0
C      1  0.5041620000000  0.4291890000000  0.5278890000000 1.0
C      1  0.4957490000000  0.4345820000000  0.4730080000000 1.0
C      1  0.4230230000000  0.5235040000000  0.4668500000000 1.0
C      1  0.4129940000000  0.5238920000000  0.5446020000000 1.0
C      1  0.4889660000000  0.6113050000000  0.4694130000000 1.0
C      1  0.4954700000000  0.6066360000000  0.5295680000000 1.0
C      1  0.5002110000000  0.5247450000000  0.4276890000000 1.0
C      1  0.5010510000000  0.5206810000000  0.5743300000000 1.0
C      1  0.5668000000000  0.5155140000000  0.5613740000000 1.0
C      1  0.5598270000000  0.5110790000000  0.4478470000000 1.0
C      1  0.4299950000000  0.4305410000000  0.5283030000000 1.0
C      1  0.4282020000000  0.4233930000000  0.4720710000000 1.0
C      1  0.4627430000000  0.4970530000000  0.5915750000000 1.0
C      1  0.4661050000000  0.4941420000000  0.4132960000000 1.0
C      1  0.4580140000000  0.5698650000000  0.4500820000000 1.0
C      1  0.4615820000000  0.5696180000000  0.5540650000000 1.0
C      1  0.5293470000000  0.4759050000000  0.5290380000000 1.0
C      1  0.5321020000000  0.4766980000000  0.4745190000000 1.0
C      1  0.5470230000000  0.4988490000000  0.5301840000000 1.0
C      1  0.5487100000000  0.5000100000000  0.4736880000000 1.0
C      1  0.4622320000000  0.5458540000000  0.5516960000000 1.0
C      1  0.4660400000000  0.5447490000000  0.4541990000000 1.0
C      1  0.5280490000000  0.4487800000000  0.5398890000000 1.0
C      1  0.5375140000000  0.4454100000000  0.4624450000000 1.0
C      1  0.5888780000000  0.5330770000000  0.4747460000000 1.0
C      1  0.5879620000000  0.5329340000000  0.5289040000000 1.0
C      1  0.5098210000000  0.5524680000000  0.4297030000000 1.0
C      1  0.5048150000000  0.5532340000000  0.5813650000000 1.0
C      1  0.5234130000000  0.5758740000000  0.4678590000000 1.0
C      1  0.5304940000000  0.5731530000000  0.5364020000000 1.0
C      1  0.5338860000000  0.4160330000000  0.4660460000000 1.0
C      1  0.5415480000000  0.4098310000000  0.5498590000000 1.0
C      1  0.4949770000000  0.4078090000000  0.5459250000000 1.0
C      1  0.4932380000000  0.4072030000000  0.4632630000000 1.0
C      1  0.4886060000000  0.5095650000000  0.4768570000000 1.0
C      1  0.4903760000000  0.5093130000000  0.5263720000000 1.0
C      1  0.5521800000000  0.4720450000000  0.5725540000000 1.0
C      1  0.5518920000000  0.4724340000000  0.4301640000000 1.0
C      1  0.6049910000000  0.5489140000000  0.5011400000000 1.0
C      1  0.4008150000000  0.5210460000000  0.5176590000000 1.0
C      1  0.5134850000000  0.4525540000000  0.5009380000000 1.0
C      1  0.5299990000000  0.4115390000000  0.4946450000000 1.0
C      1  0.5154330000000  0.6379390000000  0.5028660000000 1.0
C      1  0.5447490000000  0.6364430000000  0.5049820000000 1.0
C      1  0.4339060000000  0.6265820000000  0.4995070000000 1.0
C      1  0.3965860000000  0.4142900000000  0.5032260000000 1.0
C      1  0.4888190000000  0.6271880000000  0.4950130000000 1.0
C      1  0.4451440000000  0.3646130000000  0.5010890000000 1.0
C      1  0.4574510000000  0.5199900000000  0.5015030000000 1.0
C      1  0.6267810000000  0.4295350000000  0.5058020000000 1.0
C      1  0.4619180000000  0.6336360000000  0.5048530000000 1.0
C      1  0.5649630000000  0.3797950000000  0.5000030000000 1.0
C      1  0.4961660000000  0.3808060000000  0.5035550000000 1.0
C      1  0.5345460000000  0.4698340000000  0.5011630000000 1.0
C      1  0.3551510000000  0.5167150000000  0.5006410000000 1.0
C      1  0.5429190000000  0.5319120000000  0.5047120000000 1.0
C      1  0.5424460000000  0.3609030000000  0.4998680000000 1.0
C      1  0.5532880000000  0.5969650000000  0.4955740000000 1.0
C      1  0.4569510000000  0.3880640000000  0.5054280000000 1.0
C      1  0.4181820000000  0.6047500000000  0.4922520000000 1.0
C      1  0.4702830000000  0.5877500000000  0.5022190000000 1.0
C      1  0.3956500000000  0.5891900000000  0.5037970000000 1.0
C      1  0.5536020000000  0.5533240000000  0.4927020000000 1.0
C      1  0.6203840000000  0.5110850000000  0.5069080000000 1.0
C      1  0.4516180000000  0.5482080000000  0.4949810000000 1.0
C      1  0.5150340000000  0.5720100000000  0.4960620000000 1.0
C      1  0.5881110000000  0.4897100000000  0.4997540000000 1.0
C      1  0.4244980000000  0.4900550000000  0.5073700000000 1.0
C      1  0.4980030000000  0.4747530000000  0.5018320000000 1.0
C      1  0.4615800000000  0.4791110000000  0.5101260000000 1.0
C      1  0.5530210000000  0.4561290000000  0.5030020000000 1.0
C      1  0.5245630000000  0.3852380000000  0.5063470000000 1.0
C      1  0.5889090000000  0.3909060000000  0.5010620000000 1.0
C      1  0.5809260000000  0.5177630000000  0.5022380000000 1.0
C      1  0.3731670000000  0.4713460000000  0.5039740000000 1.0
C      1  0.4227710000000  0.4126940000000  0.5008080000000 1.0
C      1  0.6046510000000  0.5781190000000  0.5007680000000 1.0
C      1  0.5290310000000  0.6126160000000  0.5015310000000 1.0
C      1  0.4088850000000  0.5653030000000  0.5058710000000 1.0
C      1  0.6088150000000  0.4082900000000  0.5029330000000 1.0
C      1  0.4974670000000  0.5907590000000  0.5056950000000 1.0
C      1  0.6351890000000  0.4870420000000  0.5014100000000 1.0
C      1  0.3616040000000  0.5458940000000  0.4994860000000 1.0
C      1  0.4712890000000  0.5616670000000  0.5018480000000 1.0
C      1  0.5561890000000  0.5103920000000  0.5033810000000 1.0
C      1  0.4868380000000  0.4458260000000  0.4979260000000 1.0
C      1  0.5389980000000  0.5734110000000  0.5074260000000 1.0
C      1  0.4645580000000  0.4600690000000  0.4931300000000 1.0
C      1  0.6346490000000  0.4591010000000  0.4989980000000 1.0
C      1  0.5890580000000  0.4479330000000  0.5000140000000 1.0
C      1  0.6312200000000  0.5371810000000  0.5017860000000 1.0
C      1  0.4920910000000  0.4084750000000  0.5017770000000 1.0
C      1  0.4520910000000  0.6076620000000  0.5131020000000 1.0
C      1  0.4013140000000  0.4787710000000  0.4973300000000 1.0
C      1  0.4259930000000  0.3853560000000  0.5030440000000 1.0
C      1  0.6462020000000  0.5130240000000  0.4994030000000 1.0
C      1  0.5766810000000  0.5809250000000  0.5074600000000 1.0
C      1  0.5521040000000  0.4282320000000  0.5076970000000 1.0
C      1  0.4127640000000  0.4567580000000  0.4880700000000 1.0
C      1  0.4734780000000  0.3639460000000  0.5032790000000 1.0
C      1  0.6125040000000  0.4512970000000  0.5124210000000 1.0
C      1  0.4961810000000  0.5493220000000  0.5005460000000 1.0
C      1  0.4658710000000  0.4144470000000  0.5001560000000 1.0
C      1  0.5186070000000  0.5158010000000  0.4993130000000 1.0
C      1  0.4174550000000  0.5150570000000  0.4955360000000 1.0
C      1  0.3555660000000  0.4934760000000  0.5020550000000 1.0
C      1  0.5736130000000  0.4670790000000  0.5026720000000 1.0
C      1  0.4755800000000  0.5047510000000  0.5022790000000 1.0
C      1  0.5694220000000  0.6216310000000  0.4998380000000 1.0
C      1  0.3960690000000  0.6124550000000  0.5024430000000 1.0
C      1  0.5924230000000  0.6049630000000  0.5057900000000 1.0
C      1  0.3948270000000  0.4393390000000  0.5028800000000 1.0
C      1  0.4331830000000  0.5654160000000  0.5053090000000 1.0
C      1  0.3912220000000  0.5439090000000  0.5049440000000 1.0
C      1  0.5759760000000  0.4265520000000  0.4867830000000 1.0
C      1  0.3716280000000  0.4442810000000  0.5049730000000 1.0
END
