TITL C-2441166-8118-1145 0.0151936620359606 125000 -11316.2569221247 0 0 77 (D3) n - 1
REM
REM in /home/bkarasulu/work/CARBON/AIRSS/Generating-Clusters/ReaxFF-fromJPCA2015/Units_Real/with-SteepDescent/Higher-Symm
REM
REM
REM
REM
REM
REM ./C.cell (1df0a924f5614ab8850e4351716899ee)
REM
REM compiler GCC version 9.2.1 20190827 (Red Hat 9.2.1-1)
REM options -cpp -mtune=generic -march=x86-64 -g -O0 -fpre-include=/usr/include/finclude/math-vector-fortran.h
REM seed 1256907708 1677993189 -1744736984 893897748 953014928 -1339447349 -41353516 -1622561668 1495576940 -805010633 -588516358 -149329459 1948126222 -2127158164 674393394 2123363854 1105755835 -89045274 451383574 -815359674 -995530919 1652872787 -519491459 93786457 -1229166285 -1589652149 1362736556 470362917 -538832044 -27976756 1682440117 -309103183 1487641671
REM
CELL 1.54180   50.00000   50.00000   50.00000   90.00000   90.00000   90.00000
LATT -1
SFAC C  
C      1  0.4347610000000  0.5297450000000  0.4501380000000 1.0
C      1  0.4349190000000  0.5285530000000  0.5501710000000 1.0
C      1  0.4348330000000  0.4427330000000  0.4985380000000 1.0
C      1  0.5616780000000  0.4707220000000  0.4500920000000 1.0
C      1  0.5618630000000  0.4721930000000  0.5500160000000 1.0
C      1  0.5614910000000  0.5579210000000  0.4987850000000 1.0
C      1  0.4299740000000  0.4833330000000  0.5234450000000 1.0
C      1  0.4304050000000  0.4882520000000  0.4728740000000 1.0
C      1  0.4302110000000  0.5295250000000  0.5026740000000 1.0
C      1  0.5663160000000  0.5173760000000  0.5235030000000 1.0
C      1  0.5662000000000  0.5123880000000  0.4729390000000 1.0
C      1  0.5662810000000  0.4711110000000  0.5025130000000 1.0
C      1  0.5407500000000  0.5561800000000  0.4550050000000 1.0
C      1  0.5411150000000  0.5108920000000  0.5703970000000 1.0
C      1  0.5405090000000  0.4339940000000  0.4734840000000 1.0
C      1  0.4562560000000  0.4443130000000  0.4548050000000 1.0
C      1  0.4552620000000  0.4900300000000  0.5697400000000 1.0
C      1  0.4557460000000  0.5660740000000  0.4736290000000 1.0
C      1  0.5491840000000  0.5602310000000  0.5248650000000 1.0
C      1  0.5494240000000  0.4484840000000  0.5390500000000 1.0
C      1  0.5494850000000  0.4921690000000  0.4349750000000 1.0
C      1  0.4469320000000  0.4403510000000  0.5247100000000 1.0
C      1  0.4474060000000  0.5522400000000  0.5392760000000 1.0
C      1  0.4470670000000  0.5083950000000  0.4349330000000 1.0
C      1  0.5147880000000  0.5133130000000  0.4511200000000 1.0
C      1  0.5148420000000  0.5354980000000  0.5352120000000 1.0
C      1  0.5145940000000  0.4517450000000  0.5128480000000 1.0
C      1  0.4818990000000  0.4872860000000  0.4511960000000 1.0
C      1  0.4817560000000  0.4646090000000  0.5356210000000 1.0
C      1  0.4817410000000  0.5483060000000  0.5128280000000 1.0
C      1  0.5579100000000  0.5187040000000  0.4452530000000 1.0
C      1  0.5578930000000  0.5381960000000  0.5427700000000 1.0
C      1  0.5578170000000  0.4440310000000  0.5109060000000 1.0
C      1  0.4387800000000  0.4818250000000  0.4451900000000 1.0
C      1  0.4382340000000  0.4624030000000  0.5425850000000 1.0
C      1  0.4387650000000  0.5565490000000  0.5111890000000 1.0
C      1  0.5335540000000  0.5353140000000  0.5594850000000 1.0
C      1  0.5333570000000  0.4310840000000  0.5001750000000 1.0
C      1  0.5334500000000  0.5344680000000  0.4392580000000 1.0
C      1  0.4624770000000  0.4653340000000  0.5594520000000 1.0
C      1  0.4632280000000  0.5692250000000  0.5001810000000 1.0
C      1  0.4633100000000  0.4661710000000  0.4391360000000 1.0
C      1  0.5671550000000  0.4833720000000  0.4759360000000 1.0
C      1  0.5671410000000  0.5292520000000  0.4968590000000 1.0
C      1  0.5673510000000  0.4882350000000  0.5261410000000 1.0
C      1  0.4293250000000  0.5172440000000  0.4760620000000 1.0
C      1  0.4292660000000  0.4714190000000  0.4967800000000 1.0
C      1  0.4292140000000  0.5124810000000  0.5263080000000 1.0
C      1  0.4525100000000  0.5536520000000  0.4488370000000 1.0
C      1  0.4525310000000  0.5176830000000  0.5716360000000 1.0
C      1  0.4525870000000  0.4297540000000  0.4784280000000 1.0
C      1  0.5439990000000  0.4467670000000  0.4488510000000 1.0
C      1  0.5443190000000  0.4831320000000  0.5714680000000 1.0
C      1  0.5438930000000  0.5709220000000  0.4785550000000 1.0
C      1  0.5103380000000  0.4742260000000  0.4942990000000 1.0
C      1  0.5102930000000  0.5176390000000  0.4799170000000 1.0
C      1  0.5105430000000  0.5082630000000  0.5249840000000 1.0
C      1  0.4860550000000  0.5259130000000  0.4941920000000 1.0
C      1  0.4862070000000  0.4825700000000  0.4799740000000 1.0
C      1  0.4862880000000  0.4918270000000  0.5252730000000 1.0
C      1  0.5156650000000  0.4572780000000  0.4480960000000 1.0
C      1  0.5155510000000  0.5658460000000  0.4878080000000 1.0
C      1  0.5158480000000  0.4776000000000  0.5628390000000 1.0
C      1  0.4809380000000  0.5432040000000  0.4479190000000 1.0
C      1  0.4808310000000  0.4345740000000  0.4879810000000 1.0
C      1  0.4810910000000  0.5232950000000  0.5631430000000 1.0
C      1  0.4758900000000  0.5454760000000  0.5418240000000 1.0
C      1  0.4754660000000  0.4416040000000  0.5180400000000 1.0
C      1  0.4756290000000  0.5137770000000  0.4393890000000 1.0
C      1  0.5209600000000  0.4551800000000  0.5416150000000 1.0
C      1  0.5207430000000  0.5588050000000  0.5178620000000 1.0
C      1  0.5209550000000  0.4867980000000  0.4394050000000 1.0
C      1  0.4986440000000  0.5005490000000  0.5641590000000 1.0
C      1  0.4983340000000  0.5554630000000  0.4672540000000 1.0
C      1  0.4982060000000  0.4447440000000  0.4673410000000 1.0
C      1  0.4750900000000  0.4999730000000  0.4999980000000 1.0
C      1  0.5215280000000  0.5001500000000  0.4996510000000 1.0
END
