TITL C-2441169-1362-1111 0.0089997167928621 125000 -17459.813741249 0 0 113 (C1) n - 1
REM
REM in /home/bkarasulu/work/CARBON/AIRSS/Generating-Clusters/ReaxFF-fromJPCA2015/Units_Real/with-SteepDescent/Higher-Symm
REM
REM
REM
REM
REM
REM ./C.cell (1df0a924f5614ab8850e4351716899ee)
REM
REM compiler GCC version 9.2.1 20190827 (Red Hat 9.2.1-1)
REM options -cpp -mtune=generic -march=x86-64 -g -O0 -fpre-include=/usr/include/finclude/math-vector-fortran.h
REM seed 1509588755 -972338786 1870377175 -570717660 1349573257 -1573393586 404637672 -2055940150 -1797651141 1830098197 2070596912 1199325575 692156016 -1105447081 565723204 1095076607 911940214 -506905748 -1203601493 -1984897134 -644002197 1843048860 1672115547 595037890 1908678953 -785911943 -545670829 2018243294 85857502 -594103621 825896376 1931000437 -613785823
REM
CELL 1.54180   50.00000   50.00000   50.00000   90.00000   90.00000   90.00000
LATT -1
SFAC C  
C      1  0.4102360000000  0.5358190000000  0.5074300000000 1.0
C      1  0.5279100000000  0.5106210000000  0.4122290000000 1.0
C      1  0.5093860000000  0.4094450000000  0.5346900000000 1.0
C      1  0.5886610000000  0.5320030000000  0.4861200000000 1.0
C      1  0.5890040000000  0.4649760000000  0.5117220000000 1.0
C      1  0.4148310000000  0.4681170000000  0.4882650000000 1.0
C      1  0.4639750000000  0.5067170000000  0.5835410000000 1.0
C      1  0.4658460000000  0.4882160000000  0.4152070000000 1.0
C      1  0.5316870000000  0.4893870000000  0.5843630000000 1.0
C      1  0.4890840000000  0.4121960000000  0.4690040000000 1.0
C      1  0.4920080000000  0.5859870000000  0.5330460000000 1.0
C      1  0.5090190000000  0.5863040000000  0.4688500000000 1.0
C      1  0.4690600000000  0.5512110000000  0.5652720000000 1.0
C      1  0.5538070000000  0.5663300000000  0.4731850000000 1.0
C      1  0.5649120000000  0.4735840000000  0.5504090000000 1.0
C      1  0.5238170000000  0.5554520000000  0.4338910000000 1.0
C      1  0.5289330000000  0.4437690000000  0.5678470000000 1.0
C      1  0.4747110000000  0.4439620000000  0.4345280000000 1.0
C      1  0.4453460000000  0.5679390000000  0.5261770000000 1.0
C      1  0.4447220000000  0.4344910000000  0.4747990000000 1.0
C      1  0.5552190000000  0.4301220000000  0.5288030000000 1.0
C      1  0.4351510000000  0.4742980000000  0.4433280000000 1.0
C      1  0.4291190000000  0.5243460000000  0.5486190000000 1.0
C      1  0.5604540000000  0.5237440000000  0.4475890000000 1.0
C      1  0.5145810000000  0.5449390000000  0.5029760000000 1.0
C      1  0.5463450000000  0.4993100000000  0.5155760000000 1.0
C      1  0.4981750000000  0.5145130000000  0.5431930000000 1.0
C      1  0.4865850000000  0.5447920000000  0.5006340000000 1.0
C      1  0.4975880000000  0.4539690000000  0.5010230000000 1.0
C      1  0.5262420000000  0.4564220000000  0.5016670000000 1.0
C      1  0.4659590000000  0.4966390000000  0.4783160000000 1.0
C      1  0.4579300000000  0.5015620000000  0.5056680000000 1.0
C      1  0.5468040000000  0.5076650000000  0.4881490000000 1.0
C      1  0.5026240000000  0.5130370000000  0.4581510000000 1.0
C      1  0.5004820000000  0.4859810000000  0.5425600000000 1.0
C      1  0.5074680000000  0.4850370000000  0.4567760000000 1.0
C      1  0.6003890000000  0.4921400000000  0.5113320000000 1.0
C      1  0.4828310000000  0.5232690000000  0.5997780000000 1.0
C      1  0.5132680000000  0.6009470000000  0.4929770000000 1.0
C      1  0.4066860000000  0.4954040000000  0.4868100000000 1.0
C      1  0.4015420000000  0.5086840000000  0.5129070000000 1.0
C      1  0.5984510000000  0.5042410000000  0.4847130000000 1.0
C      1  0.5004140000000  0.5149180000000  0.4011020000000 1.0
C      1  0.5128340000000  0.4731830000000  0.5997430000000 1.0
C      1  0.4899470000000  0.4876370000000  0.4000590000000 1.0
C      1  0.4886840000000  0.6014680000000  0.5082310000000 1.0
C      1  0.4840580000000  0.4004530000000  0.4951750000000 1.0
C      1  0.5102200000000  0.3980570000000  0.5076290000000 1.0
C      1  0.5339430000000  0.5909220000000  0.5107450000000 1.0
C      1  0.5886210000000  0.5125430000000  0.5284680000000 1.0
C      1  0.5103840000000  0.5319630000000  0.5954620000000 1.0
C      1  0.4684610000000  0.5929860000000  0.4889410000000 1.0
C      1  0.4637950000000  0.4125750000000  0.5133360000000 1.0
C      1  0.5300510000000  0.4081570000000  0.4884350000000 1.0
C      1  0.4183810000000  0.5129720000000  0.4658160000000 1.0
C      1  0.4137570000000  0.4742090000000  0.5342870000000 1.0
C      1  0.5828320000000  0.4849050000000  0.4695600000000 1.0
C      1  0.4797060000000  0.5317540000000  0.4143230000000 1.0
C      1  0.4850430000000  0.4644870000000  0.5933840000000 1.0
C      1  0.5099150000000  0.4674580000000  0.4074650000000 1.0
C      1  0.4333260000000  0.5030410000000  0.4433680000000 1.0
C      1  0.5029860000000  0.4456780000000  0.4261460000000 1.0
C      1  0.4441340000000  0.4304230000000  0.5028290000000 1.0
C      1  0.5646590000000  0.4991460000000  0.5377720000000 1.0
C      1  0.5564820000000  0.4965190000000  0.4618090000000 1.0
C      1  0.4100830000000  0.5013930000000  0.5408310000000 1.0
C      1  0.5086750000000  0.4466650000000  0.5884360000000 1.0
C      1  0.4985290000000  0.5481030000000  0.4252830000000 1.0
C      1  0.4876980000000  0.5494670000000  0.5877820000000 1.0
C      1  0.5526240000000  0.4226200000000  0.5001470000000 1.0
C      1  0.5545850000000  0.5744670000000  0.5003480000000 1.0
C      1  0.4451950000000  0.5781920000000  0.4986020000000 1.0
C      1  0.4567520000000  0.4652330000000  0.4273320000000 1.0
C      1  0.4679890000000  0.4279360000000  0.4572440000000 1.0
C      1  0.4274290000000  0.4569320000000  0.4655000000000 1.0
C      1  0.5440740000000  0.4687450000000  0.5682360000000 1.0
C      1  0.5412780000000  0.5314040000000  0.4275870000000 1.0
C      1  0.4517320000000  0.5271690000000  0.5658100000000 1.0
C      1  0.5321310000000  0.4248380000000  0.5456650000000 1.0
C      1  0.5302350000000  0.5716600000000  0.4577000000000 1.0
C      1  0.4687530000000  0.5703820000000  0.5433020000000 1.0
C      1  0.5729470000000  0.4529770000000  0.5329960000000 1.0
C      1  0.5709620000000  0.5436310000000  0.4659490000000 1.0
C      1  0.4261670000000  0.5460170000000  0.5298530000000 1.0
C      1  0.4868420000000  0.4490060000000  0.5277820000000 1.0
C      1  0.4422530000000  0.5575600000000  0.4783950000000 1.0
C      1  0.5326920000000  0.4723880000000  0.4470730000000 1.0
C      1  0.5234540000000  0.4422880000000  0.4462980000000 1.0
C      1  0.5315160000000  0.5502230000000  0.5294980000000 1.0
C      1  0.4713040000000  0.5505980000000  0.4736200000000 1.0
C      1  0.5598280000000  0.5548760000000  0.5192170000000 1.0
C      1  0.5500850000000  0.4487280000000  0.4865830000000 1.0
C      1  0.4515950000000  0.4799140000000  0.5230640000000 1.0
C      1  0.4731820000000  0.4729120000000  0.5444990000000 1.0
C      1  0.4737590000000  0.5186320000000  0.4594120000000 1.0
C      1  0.5222440000000  0.5275550000000  0.5506020000000 1.0
C      1  0.4820640000000  0.5780760000000  0.4683170000000 1.0
C      1  0.5769580000000  0.4615310000000  0.4855880000000 1.0
C      1  0.4681760000000  0.4793750000000  0.5756510000000 1.0
C      1  0.5199630000000  0.5786530000000  0.5329130000000 1.0
C      1  0.5172770000000  0.4204310000000  0.4647040000000 1.0
C      1  0.4825710000000  0.4212030000000  0.5350360000000 1.0
C      1  0.4288000000000  0.4580930000000  0.5148460000000 1.0
C      1  0.4206170000000  0.5385830000000  0.4800340000000 1.0
C      1  0.5816620000000  0.5372220000000  0.5140100000000 1.0
C      1  0.5319880000000  0.4824610000000  0.4184510000000 1.0
C      1  0.5292060000000  0.5182540000000  0.5774210000000 1.0
C      1  0.4584850000000  0.5128110000000  0.4294830000000 1.0
C      1  0.5201470000000  0.4839170000000  0.5186180000000 1.0
C      1  0.4828890000000  0.5184600000000  0.5152940000000 1.0
C      1  0.4902450000000  0.4786360000000  0.4820800000000 1.0
C      1  0.5199110000000  0.5208170000000  0.4842840000000 1.0
C      1  0.5031770000000  0.5001620000000  0.5008120000000 1.0
END
