TITL C-2441164-471-272 0.0250553175924115 125000 -18099.5757871482 0 0 129 (C1) n - 1
REM
REM in /home/bkarasulu/work/CARBON/AIRSS/Generating-Clusters/ReaxFF-fromJPCA2015/Units_Real/with-SteepDescent/Higher-Symm
REM
REM
REM
REM
REM
REM ./C.cell (1df0a924f5614ab8850e4351716899ee)
REM
REM compiler GCC version 9.2.1 20190827 (Red Hat 9.2.1-1)
REM options -cpp -mtune=generic -march=x86-64 -g -O0 -fpre-include=/usr/include/finclude/math-vector-fortran.h
REM seed -1436778873 -812931416 625273765 -2076628740 -397135895 -329073036 -259736254 1106605699 242199098 212756070 609278071 -220858049 62385775 664729174 1149668730 399532688 -1103633687 795309982 -1028552405 -1045643590 -145594454 -1752719495 -1192077983 1542859727 -1759748313 837379850 -174884222 -734838409 -1741810474 588972126 -1479395704 617910733 -709391829
REM
CELL 1.54180   50.00000   50.00000   50.00000   90.00000   90.00000   90.00000
LATT -1
SFAC C  
C      1  0.5338890000000  0.5393170000000  0.5732780000000 1.0
C      1  0.5622780000000  0.5090950000000  0.5765880000000 1.0
C      1  0.5395820000000  0.4703240000000  0.5681080000000 1.0
C      1  0.5022240000000  0.4473320000000  0.5727610000000 1.0
C      1  0.4604460000000  0.4480430000000  0.5765420000000 1.0
C      1  0.4459190000000  0.4916260000000  0.5691810000000 1.0
C      1  0.4589480000000  0.5335370000000  0.5722730000000 1.0
C      1  0.4900860000000  0.5607580000000  0.5747760000000 1.0
C      1  0.5591580000000  0.4288650000000  0.5268180000000 1.0
C      1  0.4897480000000  0.4092180000000  0.5242220000000 1.0
C      1  0.4274580000000  0.4443440000000  0.5259250000000 1.0
C      1  0.4077070000000  0.5091460000000  0.5255840000000 1.0
C      1  0.4403690000000  0.5733070000000  0.5240500000000 1.0
C      1  0.5108620000000  0.5941170000000  0.5266040000000 1.0
C      1  0.5726360000000  0.5585090000000  0.5255510000000 1.0
C      1  0.5905240000000  0.4902360000000  0.5256360000000 1.0
C      1  0.4343960000000  0.5176190000000  0.5704290000000 1.0
C      1  0.4634520000000  0.5626730000000  0.5711650000000 1.0
C      1  0.5176170000000  0.5644010000000  0.5717110000000 1.0
C      1  0.5634330000000  0.5362730000000  0.5732410000000 1.0
C      1  0.5647920000000  0.4818780000000  0.5723490000000 1.0
C      1  0.5313600000000  0.4441390000000  0.5697760000000 1.0
C      1  0.4791420000000  0.4283830000000  0.5722550000000 1.0
C      1  0.4383020000000  0.4647910000000  0.5736470000000 1.0
C      1  0.4871600000000  0.5342750000000  0.4530010000000 1.0
C      1  0.5145570000000  0.5341330000000  0.4532290000000 1.0
C      1  0.5319090000000  0.5136000000000  0.4526340000000 1.0
C      1  0.5291100000000  0.4865500000000  0.4529840000000 1.0
C      1  0.5117910000000  0.4656550000000  0.4576480000000 1.0
C      1  0.4847290000000  0.4660350000000  0.4597170000000 1.0
C      1  0.4675390000000  0.4863400000000  0.4555270000000 1.0
C      1  0.4712330000000  0.5128030000000  0.4479610000000 1.0
C      1  0.4552140000000  0.5284760000000  0.4808390000000 1.0
C      1  0.4766470000000  0.5470500000000  0.4769930000000 1.0
C      1  0.5200760000000  0.5494220000000  0.4783780000000 1.0
C      1  0.5521080000000  0.5153100000000  0.4795940000000 1.0
C      1  0.5474160000000  0.4856600000000  0.4772380000000 1.0
C      1  0.5214450000000  0.4471060000000  0.4797900000000 1.0
C      1  0.4763230000000  0.4499540000000  0.4821970000000 1.0
C      1  0.4509290000000  0.4813960000000  0.4792390000000 1.0
C      1  0.4398090000000  0.5854610000000  0.4939700000000 1.0
C      1  0.5198470000000  0.6002080000000  0.4965510000000 1.0
C      1  0.5848380000000  0.5570200000000  0.4979840000000 1.0
C      1  0.5996270000000  0.4821900000000  0.4981640000000 1.0
C      1  0.5579380000000  0.4176250000000  0.4969500000000 1.0
C      1  0.4805760000000  0.4004920000000  0.4967710000000 1.0
C      1  0.4153410000000  0.4444320000000  0.4977240000000 1.0
C      1  0.4040160000000  0.5195960000000  0.4968830000000 1.0
C      1  0.4128660000000  0.4842300000000  0.5351760000000 1.0
C      1  0.4304920000000  0.5512470000000  0.5350560000000 1.0
C      1  0.4864380000000  0.5869850000000  0.5354450000000 1.0
C      1  0.5438210000000  0.5595610000000  0.5326970000000 1.0
C      1  0.5741490000000  0.5135150000000  0.5317900000000 1.0
C      1  0.5711340000000  0.4503140000000  0.5365660000000 1.0
C      1  0.5099880000000  0.4294080000000  0.5316930000000 1.0
C      1  0.4555370000000  0.4400860000000  0.5323010000000 1.0
C      1  0.5502970000000  0.4435860000000  0.4466150000000 1.0
C      1  0.4937620000000  0.4239080000000  0.4463410000000 1.0
C      1  0.4410780000000  0.4480110000000  0.4473750000000 1.0
C      1  0.4212590000000  0.5043900000000  0.4471840000000 1.0
C      1  0.4453770000000  0.5576330000000  0.4454380000000 1.0
C      1  0.5079660000000  0.5780080000000  0.4478520000000 1.0
C      1  0.5600450000000  0.5509680000000  0.4482000000000 1.0
C      1  0.5781410000000  0.4956460000000  0.4474560000000 1.0
C      1  0.5004400000000  0.4546930000000  0.5442200000000 1.0
C      1  0.4747750000000  0.4638820000000  0.5347720000000 1.0
C      1  0.4657250000000  0.4911780000000  0.5501350000000 1.0
C      1  0.4717410000000  0.5188250000000  0.5508290000000 1.0
C      1  0.4953350000000  0.5257230000000  0.5380980000000 1.0
C      1  0.5314020000000  0.5344550000000  0.5441360000000 1.0
C      1  0.5439560000000  0.5104500000000  0.5329580000000 1.0
C      1  0.5283990000000  0.4835950000000  0.5458100000000 1.0
C      1  0.4928310000000  0.4067270000000  0.4700550000000 1.0
C      1  0.4301420000000  0.4349820000000  0.4718610000000 1.0
C      1  0.4037860000000  0.5035540000000  0.4713310000000 1.0
C      1  0.4305760000000  0.5715430000000  0.4674150000000 1.0
C      1  0.5022980000000  0.5941030000000  0.4719310000000 1.0
C      1  0.5704140000000  0.5650020000000  0.4720020000000 1.0
C      1  0.5967090000000  0.4982400000000  0.4717240000000 1.0
C      1  0.5642260000000  0.4332180000000  0.4705980000000 1.0
C      1  0.4133590000000  0.5563070000000  0.4833420000000 1.0
C      1  0.4652550000000  0.5955640000000  0.4887020000000 1.0
C      1  0.5455710000000  0.5920890000000  0.4900510000000 1.0
C      1  0.5978530000000  0.5340210000000  0.4896600000000 1.0
C      1  0.5902980000000  0.4571000000000  0.4903510000000 1.0
C      1  0.5364980000000  0.4004480000000  0.4947030000000 1.0
C      1  0.4558020000000  0.4093350000000  0.4885440000000 1.0
C      1  0.4022370000000  0.4679680000000  0.4906970000000 1.0
C      1  0.4895100000000  0.5316360000000  0.5110500000000 1.0
C      1  0.5134170000000  0.5325970000000  0.4995830000000 1.0
C      1  0.5336110000000  0.5131090000000  0.5051340000000 1.0
C      1  0.5292600000000  0.4854530000000  0.4989900000000 1.0
C      1  0.5142700000000  0.4635750000000  0.5020750000000 1.0
C      1  0.4846000000000  0.4665000000000  0.5059950000000 1.0
C      1  0.4682320000000  0.4892340000000  0.4997800000000 1.0
C      1  0.4703150000000  0.5153280000000  0.5019770000000 1.0
C      1  0.4198570000000  0.4615170000000  0.5487920000000 1.0
C      1  0.4201160000000  0.5280120000000  0.5466250000000 1.0
C      1  0.4611810000000  0.5796090000000  0.5446020000000 1.0
C      1  0.5268530000000  0.5791360000000  0.5463660000000 1.0
C      1  0.5788840000000  0.5387090000000  0.5459490000000 1.0
C      1  0.5820050000000  0.4723980000000  0.5480460000000 1.0
C      1  0.5362470000000  0.4278320000000  0.5458070000000 1.0
C      1  0.4702640000000  0.4178060000000  0.5442150000000 1.0
C      1  0.4546870000000  0.5120170000000  0.4232450000000 1.0
C      1  0.4898300000000  0.5514200000000  0.4237800000000 1.0
C      1  0.5188060000000  0.5462230000000  0.4232630000000 1.0
C      1  0.5434770000000  0.5135390000000  0.4247270000000 1.0
C      1  0.5407190000000  0.4834860000000  0.4242470000000 1.0
C      1  0.5120070000000  0.4574880000000  0.4243460000000 1.0
C      1  0.4817760000000  0.4581600000000  0.4223960000000 1.0
C      1  0.4556810000000  0.4816460000000  0.4225260000000 1.0
C      1  0.5680300000000  0.4603180000000  0.4809590000000 1.0
C      1  0.5194570000000  0.4171740000000  0.4802030000000 1.0
C      1  0.4535540000000  0.4327430000000  0.4843300000000 1.0
C      1  0.4220320000000  0.4839170000000  0.4845950000000 1.0
C      1  0.4281250000000  0.5357440000000  0.4939420000000 1.0
C      1  0.4813260000000  0.5759200000000  0.4835640000000 1.0
C      1  0.5434990000000  0.5660640000000  0.4847570000000 1.0
C      1  0.5831250000000  0.5174230000000  0.4808260000000 1.0
C      1  0.4714640000000  0.5668350000000  0.4382500000000 1.0
C      1  0.5334690000000  0.5656140000000  0.4386430000000 1.0
C      1  0.5674060000000  0.5232600000000  0.4378690000000 1.0
C      1  0.5636200000000  0.4716720000000  0.4376820000000 1.0
C      1  0.5237260000000  0.4343820000000  0.4366340000000 1.0
C      1  0.4689150000000  0.4367730000000  0.4366390000000 1.0
C      1  0.4326780000000  0.4740450000000  0.4380390000000 1.0
C      1  0.4344430000000  0.5283020000000  0.4366550000000 1.0
C      1  0.5059350000000  0.4991170000000  0.5447740000000 1.0
END
