TITL C-2441162-9305-168 0.109686842971594 125000 -25634.1046206585 0 0 185 (C1) n - 1
REM
REM in /home/bkarasulu/work/CARBON/AIRSS/Generating-Clusters/ReaxFF-fromJPCA2015/Units_Real/with-SteepDescent/Higher-Symm
REM
REM
REM
REM
REM
REM ./C.cell (1df0a924f5614ab8850e4351716899ee)
REM
REM compiler GCC version 9.2.1 20190827 (Red Hat 9.2.1-1)
REM options -cpp -mtune=generic -march=x86-64 -g -O0 -fpre-include=/usr/include/finclude/math-vector-fortran.h
REM seed 2059471043 -567210047 -122891913 844394559 -441467983 -1269879213 -1867911955 -2036869256 -231729452 527808319 714182581 -776595061 -527363766 1607422367 1432005165 -679589482 1404759586 830140703 -1461099387 -91683686 -2097710446 -536558327 -796638258 -1335542983 -2105739145 -750096108 1718990362 -892456690 745996389 839703398 -944163031 1716148227 776593009
REM
CELL 1.54180   50.00000   50.00000   50.00000   90.00000   90.00000   90.00000
LATT -1
SFAC C  
C      1  0.5130540000000  0.5556780000000  0.3990040000000 1.0
C      1  0.5119260000000  0.5583960000000  0.5971810000000 1.0
C      1  0.5087620000000  0.6018060000000  0.5348370000000 1.0
C      1  0.5127300000000  0.6057060000000  0.4683900000000 1.0
C      1  0.4601970000000  0.5956290000000  0.4722450000000 1.0
C      1  0.4624880000000  0.5899500000000  0.5283070000000 1.0
C      1  0.4555530000000  0.4310400000000  0.5708840000000 1.0
C      1  0.4558280000000  0.4283860000000  0.4289770000000 1.0
C      1  0.5919060000000  0.5513210000000  0.4911620000000 1.0
C      1  0.5768270000000  0.5481010000000  0.5166600000000 1.0
C      1  0.5491180000000  0.5575580000000  0.4213120000000 1.0
C      1  0.5521650000000  0.5577410000000  0.5731610000000 1.0
C      1  0.4078410000000  0.5615700000000  0.4831880000000 1.0
C      1  0.4067230000000  0.5625730000000  0.5164730000000 1.0
C      1  0.5408700000000  0.4914610000000  0.4759830000000 1.0
C      1  0.5448970000000  0.4939530000000  0.5269650000000 1.0
C      1  0.4852120000000  0.6023450000000  0.5172000000000 1.0
C      1  0.4877140000000  0.5995660000000  0.4854930000000 1.0
C      1  0.5250510000000  0.5678540000000  0.5743880000000 1.0
C      1  0.5240920000000  0.5502630000000  0.4223640000000 1.0
C      1  0.4437710000000  0.4131950000000  0.4860110000000 1.0
C      1  0.4425880000000  0.4114110000000  0.5153660000000 1.0
C      1  0.5075820000000  0.4510890000000  0.4865790000000 1.0
C      1  0.4886100000000  0.4420730000000  0.5068770000000 1.0
C      1  0.5153710000000  0.4860130000000  0.5185740000000 1.0
C      1  0.5094790000000  0.4895320000000  0.4907010000000 1.0
C      1  0.5403120000000  0.4038600000000  0.4707610000000 1.0
C      1  0.5406220000000  0.4009110000000  0.5314180000000 1.0
C      1  0.5346100000000  0.4389790000000  0.5188450000000 1.0
C      1  0.5364480000000  0.4481920000000  0.4932970000000 1.0
C      1  0.4570490000000  0.5616180000000  0.5118890000000 1.0
C      1  0.4601530000000  0.5698350000000  0.4855650000000 1.0
C      1  0.4850050000000  0.5545770000000  0.5210520000000 1.0
C      1  0.4886730000000  0.5672760000000  0.4816130000000 1.0
C      1  0.5770570000000  0.4472560000000  0.5289370000000 1.0
C      1  0.5768390000000  0.4424610000000  0.4696310000000 1.0
C      1  0.3951590000000  0.4966150000000  0.5160970000000 1.0
C      1  0.3975550000000  0.4970030000000  0.4866170000000 1.0
C      1  0.5601430000000  0.4754420000000  0.5977490000000 1.0
C      1  0.5583650000000  0.4773240000000  0.4038100000000 1.0
C      1  0.4444000000000  0.5645290000000  0.4416940000000 1.0
C      1  0.4418940000000  0.5630390000000  0.5590230000000 1.0
C      1  0.6009950000000  0.4891220000000  0.4836480000000 1.0
C      1  0.5931210000000  0.4886210000000  0.5133290000000 1.0
C      1  0.5267950000000  0.5364090000000  0.5253530000000 1.0
C      1  0.5262620000000  0.5363760000000  0.4762530000000 1.0
C      1  0.5472540000000  0.4923590000000  0.5547560000000 1.0
C      1  0.5454950000000  0.4901170000000  0.4480340000000 1.0
C      1  0.5181780000000  0.3914300000000  0.5154220000000 1.0
C      1  0.5183650000000  0.3927910000000  0.4862750000000 1.0
C      1  0.5592140000000  0.5320580000000  0.4115200000000 1.0
C      1  0.5588460000000  0.5327880000000  0.5857280000000 1.0
C      1  0.3970480000000  0.4707450000000  0.5284230000000 1.0
C      1  0.4006190000000  0.4734220000000  0.4720620000000 1.0
C      1  0.4771480000000  0.4470380000000  0.4236320000000 1.0
C      1  0.4736970000000  0.4553060000000  0.5802250000000 1.0
C      1  0.4589670000000  0.4847180000000  0.4067520000000 1.0
C      1  0.4619190000000  0.4775090000000  0.5986100000000 1.0
C      1  0.5379670000000  0.4890130000000  0.6083830000000 1.0
C      1  0.5351890000000  0.4866800000000  0.3912240000000 1.0
C      1  0.5591390000000  0.4225350000000  0.4844510000000 1.0
C      1  0.5579870000000  0.4218430000000  0.5168560000000 1.0
C      1  0.4520110000000  0.5366690000000  0.4270260000000 1.0
C      1  0.4540900000000  0.5353900000000  0.5709190000000 1.0
C      1  0.5091340000000  0.5894450000000  0.5614980000000 1.0
C      1  0.5167890000000  0.5912290000000  0.4437190000000 1.0
C      1  0.5304790000000  0.4087820000000  0.4439800000000 1.0
C      1  0.5293260000000  0.4105240000000  0.5568140000000 1.0
C      1  0.4844300000000  0.4884900000000  0.6128480000000 1.0
C      1  0.4826620000000  0.4878460000000  0.3892150000000 1.0
C      1  0.5474470000000  0.5193940000000  0.4850570000000 1.0
C      1  0.5513940000000  0.5233260000000  0.5135670000000 1.0
C      1  0.4507970000000  0.5325100000000  0.5114630000000 1.0
C      1  0.4475210000000  0.5223390000000  0.4854940000000 1.0
C      1  0.4654580000000  0.4011660000000  0.5305840000000 1.0
C      1  0.4658620000000  0.4013260000000  0.4708080000000 1.0
C      1  0.5777520000000  0.4672830000000  0.5769410000000 1.0
C      1  0.5759340000000  0.4677780000000  0.4243520000000 1.0
C      1  0.5797070000000  0.5193250000000  0.4272990000000 1.0
C      1  0.5802900000000  0.5178440000000  0.5740570000000 1.0
C      1  0.4694820000000  0.5131190000000  0.4447080000000 1.0
C      1  0.4690320000000  0.5129220000000  0.5505350000000 1.0
C      1  0.4223810000000  0.4588140000000  0.5768630000000 1.0
C      1  0.4201540000000  0.4603810000000  0.4255560000000 1.0
C      1  0.5447340000000  0.5794650000000  0.4404950000000 1.0
C      1  0.5675040000000  0.5676670000000  0.5511490000000 1.0
C      1  0.6147850000000  0.5343890000000  0.4883590000000 1.0
C      1  0.6264400000000  0.5259210000000  0.5155490000000 1.0
C      1  0.5164290000000  0.5329100000000  0.6072920000000 1.0
C      1  0.5164570000000  0.5297920000000  0.3865310000000 1.0
C      1  0.5068970000000  0.4717220000000  0.3893890000000 1.0
C      1  0.5097060000000  0.4736350000000  0.6114440000000 1.0
C      1  0.6002040000000  0.4584250000000  0.5127290000000 1.0
C      1  0.5980730000000  0.4597890000000  0.4835500000000 1.0
C      1  0.4113560000000  0.4847390000000  0.4156340000000 1.0
C      1  0.4116720000000  0.4838580000000  0.5830950000000 1.0
C      1  0.3960100000000  0.4475000000000  0.5128140000000 1.0
C      1  0.3981920000000  0.4493040000000  0.4846120000000 1.0
C      1  0.4548250000000  0.4861040000000  0.5443870000000 1.0
C      1  0.4624800000000  0.4868700000000  0.4354390000000 1.0
C      1  0.5308980000000  0.5984720000000  0.5166390000000 1.0
C      1  0.5326380000000  0.5991870000000  0.4880530000000 1.0
C      1  0.4729230000000  0.5386420000000  0.5920510000000 1.0
C      1  0.4732390000000  0.5394980000000  0.4071100000000 1.0
C      1  0.4296180000000  0.5210510000000  0.4189830000000 1.0
C      1  0.4337340000000  0.5182590000000  0.5797500000000 1.0
C      1  0.5061840000000  0.4677410000000  0.4498270000000 1.0
C      1  0.5039790000000  0.4709320000000  0.5414050000000 1.0
C      1  0.5697370000000  0.4441530000000  0.4413080000000 1.0
C      1  0.5708710000000  0.4456450000000  0.5579110000000 1.0
C      1  0.4837950000000  0.5858330000000  0.5737190000000 1.0
C      1  0.4902620000000  0.5823360000000  0.4323740000000 1.0
C      1  0.4735950000000  0.5263460000000  0.4704790000000 1.0
C      1  0.4734160000000  0.5160750000000  0.5216610000000 1.0
C      1  0.5085930000000  0.4419660000000  0.4593340000000 1.0
C      1  0.5075480000000  0.4387200000000  0.5302110000000 1.0
C      1  0.6080400000000  0.5109670000000  0.5323630000000 1.0
C      1  0.6074770000000  0.5139560000000  0.4687460000000 1.0
C      1  0.5131660000000  0.5381450000000  0.4459060000000 1.0
C      1  0.5168710000000  0.5339870000000  0.5534120000000 1.0
C      1  0.5024430000000  0.4173130000000  0.4449950000000 1.0
C      1  0.5019710000000  0.4200830000000  0.5538270000000 1.0
C      1  0.4872350000000  0.5505910000000  0.4585400000000 1.0
C      1  0.4918840000000  0.5516660000000  0.5488740000000 1.0
C      1  0.3983850000000  0.5150660000000  0.5390130000000 1.0
C      1  0.3963130000000  0.5126580000000  0.4611240000000 1.0
C      1  0.4598100000000  0.5864080000000  0.5567160000000 1.0
C      1  0.4636010000000  0.5864480000000  0.4445400000000 1.0
C      1  0.4375980000000  0.4933200000000  0.5948800000000 1.0
C      1  0.4340310000000  0.4989540000000  0.4016370000000 1.0
C      1  0.4280340000000  0.4365620000000  0.5639610000000 1.0
C      1  0.4287820000000  0.4391730000000  0.4369870000000 1.0
C      1  0.4745440000000  0.4884070000000  0.5100150000000 1.0
C      1  0.4698100000000  0.4825480000000  0.4822900000000 1.0
C      1  0.4994100000000  0.5303500000000  0.5124240000000 1.0
C      1  0.5020400000000  0.5189490000000  0.4857280000000 1.0
C      1  0.5060980000000  0.4984510000000  0.4207170000000 1.0
C      1  0.5041350000000  0.4980610000000  0.5782720000000 1.0
C      1  0.4979410000000  0.5114730000000  0.5553530000000 1.0
C      1  0.4978230000000  0.5128050000000  0.4411080000000 1.0
C      1  0.5647290000000  0.4769060000000  0.5150770000000 1.0
C      1  0.5546720000000  0.4696590000000  0.4896690000000 1.0
C      1  0.3980310000000  0.5369260000000  0.4752750000000 1.0
C      1  0.3973960000000  0.5375670000000  0.5230980000000 1.0
C      1  0.5357900000000  0.5687450000000  0.5142210000000 1.0
C      1  0.5371240000000  0.5694020000000  0.4848510000000 1.0
C      1  0.4925140000000  0.5169390000000  0.5998190000000 1.0
C      1  0.4916880000000  0.5162950000000  0.3975090000000 1.0
C      1  0.4773490000000  0.4661500000000  0.4480560000000 1.0
C      1  0.4762320000000  0.4684410000000  0.5523490000000 1.0
C      1  0.4430510000000  0.4933040000000  0.4863400000000 1.0
C      1  0.4461300000000  0.4854780000000  0.5158510000000 1.0
C      1  0.5573990000000  0.5698060000000  0.4640770000000 1.0
C      1  0.5592890000000  0.5671650000000  0.5252500000000 1.0
C      1  0.5029190000000  0.4515920000000  0.5944680000000 1.0
C      1  0.5017420000000  0.4476550000000  0.4056190000000 1.0
C      1  0.5243720000000  0.4797010000000  0.5677150000000 1.0
C      1  0.5251730000000  0.4783890000000  0.4306620000000 1.0
C      1  0.5291220000000  0.4478170000000  0.4153450000000 1.0
C      1  0.5283050000000  0.4504650000000  0.5811170000000 1.0
C      1  0.5729250000000  0.4929440000000  0.4397950000000 1.0
C      1  0.5732620000000  0.4931350000000  0.5639700000000 1.0
C      1  0.4870800000000  0.5639730000000  0.4088330000000 1.0
C      1  0.4850790000000  0.5641760000000  0.5936390000000 1.0
C      1  0.4457030000000  0.4416360000000  0.4814200000000 1.0
C      1  0.4409130000000  0.4393630000000  0.5222140000000 1.0
C      1  0.5799920000000  0.5529490000000  0.4658730000000 1.0
C      1  0.5914340000000  0.5535350000000  0.5435090000000 1.0
C      1  0.4735230000000  0.4100730000000  0.4439250000000 1.0
C      1  0.4735020000000  0.4131300000000  0.5563290000000 1.0
C      1  0.5918840000000  0.5312840000000  0.4506310000000 1.0
C      1  0.5988460000000  0.5278630000000  0.5546110000000 1.0
C      1  0.4108020000000  0.5077170000000  0.4348790000000 1.0
C      1  0.4114740000000  0.5084270000000  0.5656320000000 1.0
C      1  0.4244130000000  0.5644340000000  0.5384370000000 1.0
C      1  0.4266070000000  0.5639900000000  0.4621540000000 1.0
C      1  0.4180300000000  0.4509260000000  0.5345530000000 1.0
C      1  0.4228330000000  0.4534940000000  0.4668660000000 1.0
C      1  0.4882160000000  0.3943150000000  0.5148450000000 1.0
C      1  0.4884930000000  0.3954460000000  0.4868010000000 1.0
C      1  0.5405890000000  0.5160150000000  0.3937570000000 1.0
C      1  0.5403460000000  0.5182820000000  0.6028830000000 1.0
C      1  0.5466170000000  0.4320440000000  0.5678020000000 1.0
C      1  0.5460760000000  0.4299900000000  0.4303480000000 1.0
C      1  0.4607500000000  0.4491510000000  0.5048490000000 1.0
END
