TITL C-2441166-8118-575 0.0216024330716184 125000 -10064.0301038109 0 0 73 (C1) n - 1
REM
REM in /home/bkarasulu/work/CARBON/AIRSS/Generating-Clusters/ReaxFF-fromJPCA2015/Units_Real/with-SteepDescent/Higher-Symm
REM
REM
REM
REM
REM
REM ./C.cell (1df0a924f5614ab8850e4351716899ee)
REM
REM compiler GCC version 9.2.1 20190827 (Red Hat 9.2.1-1)
REM options -cpp -mtune=generic -march=x86-64 -g -O0 -fpre-include=/usr/include/finclude/math-vector-fortran.h
REM seed 25512930 2111024033 1504897876 208454766 414508763 1580954477 -1293464948 1988478420 -1583429051 -33994059 1791497993 -1085340046 -154013935 -37746830 373082658 746079722 1310547970 -860751520 -1003389721 -954243861 -366727196 712589050 1334702061 -1161510444 1374122158 678853551 -1486243796 -402249456 401167562 -604234967 563128080 1123999810 -1936083557
REM
CELL 1.54180   50.00000   50.00000   50.00000   90.00000   90.00000   90.00000
LATT -1
SFAC C  
C      1  0.4694120000000  0.4596460000000  0.4384430000000 1.0
C      1  0.4605760000000  0.4593260000000  0.5586840000000 1.0
C      1  0.5688240000000  0.4611930000000  0.5040240000000 1.0
C      1  0.4698820000000  0.5385450000000  0.4383860000000 1.0
C      1  0.4612210000000  0.5390380000000  0.5577480000000 1.0
C      1  0.5691920000000  0.5369550000000  0.5039670000000 1.0
C      1  0.4622080000000  0.4873560000000  0.4742520000000 1.0
C      1  0.4965880000000  0.4867330000000  0.5460170000000 1.0
C      1  0.5447830000000  0.4867130000000  0.4840630000000 1.0
C      1  0.4647390000000  0.5151520000000  0.4763510000000 1.0
C      1  0.4993590000000  0.5140780000000  0.5419490000000 1.0
C      1  0.5422850000000  0.5137520000000  0.4837090000000 1.0
C      1  0.5659370000000  0.5295620000000  0.4757670000000 1.0
C      1  0.4432150000000  0.5371380000000  0.4480960000000 1.0
C      1  0.4837480000000  0.5425570000000  0.5743370000000 1.0
C      1  0.5670730000000  0.4691510000000  0.4757960000000 1.0
C      1  0.4428750000000  0.4591600000000  0.4478400000000 1.0
C      1  0.4854900000000  0.4576690000000  0.5720900000000 1.0
C      1  0.4880370000000  0.5275590000000  0.5193080000000 1.0
C      1  0.5196160000000  0.5277560000000  0.4925920000000 1.0
C      1  0.4904410000000  0.5263200000000  0.4889840000000 1.0
C      1  0.4890590000000  0.4735800000000  0.5223660000000 1.0
C      1  0.5248670000000  0.4733000000000  0.4966650000000 1.0
C      1  0.4855080000000  0.4735380000000  0.4793150000000 1.0
C      1  0.4850640000000  0.5574910000000  0.4816450000000 1.0
C      1  0.4912480000000  0.5568360000000  0.5241340000000 1.0
C      1  0.5262370000000  0.5562580000000  0.4968540000000 1.0
C      1  0.4848740000000  0.4437450000000  0.4802940000000 1.0
C      1  0.4909930000000  0.4438090000000  0.5239980000000 1.0
C      1  0.5256770000000  0.4437620000000  0.4966060000000 1.0
C      1  0.4685110000000  0.4361220000000  0.5416850000000 1.0
C      1  0.5517920000000  0.4378540000000  0.5082770000000 1.0
C      1  0.4820680000000  0.4361210000000  0.4523850000000 1.0
C      1  0.4684220000000  0.5630900000000  0.5413130000000 1.0
C      1  0.5528470000000  0.5608070000000  0.5079090000000 1.0
C      1  0.4814140000000  0.5621710000000  0.4533730000000 1.0
C      1  0.5311710000000  0.4523490000000  0.5449530000000 1.0
C      1  0.5245190000000  0.4520750000000  0.4515120000000 1.0
C      1  0.4480360000000  0.4536900000000  0.5042400000000 1.0
C      1  0.5311720000000  0.5458280000000  0.5439480000000 1.0
C      1  0.5240980000000  0.5469680000000  0.4522280000000 1.0
C      1  0.4464520000000  0.5465310000000  0.5054020000000 1.0
C      1  0.5148420000000  0.4743040000000  0.4361630000000 1.0
C      1  0.4368730000000  0.4740110000000  0.5202850000000 1.0
C      1  0.5496330000000  0.4740160000000  0.5446840000000 1.0
C      1  0.5146290000000  0.5243980000000  0.4372140000000 1.0
C      1  0.4364210000000  0.5249560000000  0.5212260000000 1.0
C      1  0.5501530000000  0.5250070000000  0.5443180000000 1.0
C      1  0.4881260000000  0.4849750000000  0.4321440000000 1.0
C      1  0.4461160000000  0.4845370000000  0.5459480000000 1.0
C      1  0.5665090000000  0.4844310000000  0.5228260000000 1.0
C      1  0.4881710000000  0.5133090000000  0.4323260000000 1.0
C      1  0.4462860000000  0.5131050000000  0.5457550000000 1.0
C      1  0.5667380000000  0.5138810000000  0.5227930000000 1.0
C      1  0.5285130000000  0.5657960000000  0.5244570000000 1.0
C      1  0.5080400000000  0.5677850000000  0.4648760000000 1.0
C      1  0.4654370000000  0.5670860000000  0.5112510000000 1.0
C      1  0.5268740000000  0.4333860000000  0.5243350000000 1.0
C      1  0.5086880000000  0.4321620000000  0.4651960000000 1.0
C      1  0.4663150000000  0.4333450000000  0.5117880000000 1.0
C      1  0.5422710000000  0.5142800000000  0.4345160000000 1.0
C      1  0.4228540000000  0.5135700000000  0.4983020000000 1.0
C      1  0.5375820000000  0.5139960000000  0.5682550000000 1.0
C      1  0.5423280000000  0.4851710000000  0.4343480000000 1.0
C      1  0.4225720000000  0.4852080000000  0.4977130000000 1.0
C      1  0.5381710000000  0.4854360000000  0.5688460000000 1.0
C      1  0.5513510000000  0.4629580000000  0.4518830000000 1.0
C      1  0.4396830000000  0.4684820000000  0.4799430000000 1.0
C      1  0.5137830000000  0.4646660000000  0.5668040000000 1.0
C      1  0.5513890000000  0.5369410000000  0.4515260000000 1.0
C      1  0.4400240000000  0.5311830000000  0.4812700000000 1.0
C      1  0.5137990000000  0.5328500000000  0.5627290000000 1.0
C      1  0.5003800000000  0.4865830000000  0.4993990000000 1.0
END
