TITL C-2441154-10-759 0.225013813926585 125000 -24386.5762447378 0 0 198 (C1) n - 1
REM
REM in /home/bkarasulu/work/CARBON/AIRSS/Generating-Clusters/ReaxFF-fromJPCA2015/Units_Real/with-SteepDescent/Higher-Symm
REM
REM
REM
REM
REM
REM ./C.cell (1df0a924f5614ab8850e4351716899ee)
REM
REM compiler GCC version 9.2.1 20190827 (Red Hat 9.2.1-1)
REM options -cpp -mtune=generic -march=x86-64 -g -O0 -fpre-include=/usr/include/finclude/math-vector-fortran.h
REM seed -426869723 -1234042173 -1569029185 1647423547 222502585 2025090955 -1982452276 -762021136 78834377 -1307969113 -1754996708 1713980230 -704900786 557498852 -1549297474 -1691556400 -1228433619 -1096942766 -1055131739 -819580828 1877775622 -696223302 243615665 -1502882408 -575502663 1851489288 -1577434485 1930176405 1688607722 -171353090 862022012 1780293408 -328779675
REM
CELL 1.54180   50.00000   50.00000   50.00000   90.00000   90.00000   90.00000
LATT -1
SFAC C  
C      1  0.5235120000000  0.5113990000000  0.5516850000000 1.0
C      1  0.5223000000000  0.5410030000000  0.4620460000000 1.0
C      1  0.5227190000000  0.4439780000000  0.4832420000000 1.0
C      1  0.4634990000000  0.5879200000000  0.5441170000000 1.0
C      1  0.4527560000000  0.4919780000000  0.4124040000000 1.0
C      1  0.4643220000000  0.4130040000000  0.5579930000000 1.0
C      1  0.5567380000000  0.5249900000000  0.4391780000000 1.0
C      1  0.5604760000000  0.4310220000000  0.5046180000000 1.0
C      1  0.5548770000000  0.5400680000000  0.5543070000000 1.0
C      1  0.4748710000000  0.4943750000000  0.5774210000000 1.0
C      1  0.4715690000000  0.5674740000000  0.4672810000000 1.0
C      1  0.4712660000000  0.4386120000000  0.4625660000000 1.0
C      1  0.5031390000000  0.4312530000000  0.5583730000000 1.0
C      1  0.5134520000000  0.5907120000000  0.5476480000000 1.0
C      1  0.5020550000000  0.4968570000000  0.4076830000000 1.0
C      1  0.4511090000000  0.4406960000000  0.5623870000000 1.0
C      1  0.4513570000000  0.5757580000000  0.5224360000000 1.0
C      1  0.4697680000000  0.4684310000000  0.4215810000000 1.0
C      1  0.5763980000000  0.4735210000000  0.5707660000000 1.0
C      1  0.5681910000000  0.5724000000000  0.4801100000000 1.0
C      1  0.5678460000000  0.4497740000000  0.4452190000000 1.0
C      1  0.5496850000000  0.5911710000000  0.4481830000000 1.0
C      1  0.5467230000000  0.4159110000000  0.4396550000000 1.0
C      1  0.5497420000000  0.4862440000000  0.5978420000000 1.0
C      1  0.5450450000000  0.4363220000000  0.5507710000000 1.0
C      1  0.5497460000000  0.5850740000000  0.5250350000000 1.0
C      1  0.5482830000000  0.4832000000000  0.4175380000000 1.0
C      1  0.5251110000000  0.4164430000000  0.5564790000000 1.0
C      1  0.5306430000000  0.6054210000000  0.5306520000000 1.0
C      1  0.5294830000000  0.4958930000000  0.3983350000000 1.0
C      1  0.5425820000000  0.5345690000000  0.3983520000000 1.0
C      1  0.5444550000000  0.3925960000000  0.5196320000000 1.0
C      1  0.5410050000000  0.5708850000000  0.5821910000000 1.0
C      1  0.4231450000000  0.5685600000000  0.4657610000000 1.0
C      1  0.4241270000000  0.4465200000000  0.4505380000000 1.0
C      1  0.4260200000000  0.4901500000000  0.5665510000000 1.0
C      1  0.5583370000000  0.5072500000000  0.5790670000000 1.0
C      1  0.5622880000000  0.5663860000000  0.4526460000000 1.0
C      1  0.5618970000000  0.4243030000000  0.4558180000000 1.0
C      1  0.4531060000000  0.5860900000000  0.4333740000000 1.0
C      1  0.4522300000000  0.3986720000000  0.4611580000000 1.0
C      1  0.4538230000000  0.5147180000000  0.6056490000000 1.0
C      1  0.4868830000000  0.5423100000000  0.5354910000000 1.0
C      1  0.4897670000000  0.5026400000000  0.4392080000000 1.0
C      1  0.4826880000000  0.4432660000000  0.5223360000000 1.0
C      1  0.4253840000000  0.5828210000000  0.5123970000000 1.0
C      1  0.4273420000000  0.4778610000000  0.4179850000000 1.0
C      1  0.4232770000000  0.4483200000000  0.5699340000000 1.0
C      1  0.5181810000000  0.4929820000000  0.5732610000000 1.0
C      1  0.5180000000000  0.5679740000000  0.4707320000000 1.0
C      1  0.5166990000000  0.4398170000000  0.4559890000000 1.0
C      1  0.5531720000000  0.5269790000000  0.5958940000000 1.0
C      1  0.5578780000000  0.5752340000000  0.4257240000000 1.0
C      1  0.5602470000000  0.4108880000000  0.4785790000000 1.0
C      1  0.4407600000000  0.5298980000000  0.5848990000000 1.0
C      1  0.4346480000000  0.5632810000000  0.4394680000000 1.0
C      1  0.4395380000000  0.4132250000000  0.4830770000000 1.0
C      1  0.5004210000000  0.4829060000000  0.4577050000000 1.0
C      1  0.5012090000000  0.4684500000000  0.5403110000000 1.0
C      1  0.4954100000000  0.5401330000000  0.5077390000000 1.0
C      1  0.5151240000000  0.6141620000000  0.5066000000000 1.0
C      1  0.5053610000000  0.4495460000000  0.3974010000000 1.0
C      1  0.5043620000000  0.4365260000000  0.5994840000000 1.0
C      1  0.4600260000000  0.5482550000000  0.5265520000000 1.0
C      1  0.4603160000000  0.5018370000000  0.4500790000000 1.0
C      1  0.4565230000000  0.4536680000000  0.5307570000000 1.0
C      1  0.5866250000000  0.4890780000000  0.4392180000000 1.0
C      1  0.5849630000000  0.4502210000000  0.5403730000000 1.0
C      1  0.5841250000000  0.5580640000000  0.5223100000000 1.0
C      1  0.5508270000000  0.4632550000000  0.5783690000000 1.0
C      1  0.5485130000000  0.5850890000000  0.4969410000000 1.0
C      1  0.5463390000000  0.4553400000000  0.4268710000000 1.0
C      1  0.5724760000000  0.5773280000000  0.5398900000000 1.0
C      1  0.5746460000000  0.4959650000000  0.4141840000000 1.0
C      1  0.5720120000000  0.4263250000000  0.5475600000000 1.0
C      1  0.4023830000000  0.4627800000000  0.4580530000000 1.0
C      1  0.4007350000000  0.4847270000000  0.5545540000000 1.0
C      1  0.4035820000000  0.5554250000000  0.4826430000000 1.0
C      1  0.4292860000000  0.4366500000000  0.5183160000000 1.0
C      1  0.4174500000000  0.5604810000000  0.5560910000000 1.0
C      1  0.4154600000000  0.5230160000000  0.4242090000000 1.0
C      1  0.4945810000000  0.3963890000000  0.4964190000000 1.0
C      1  0.4900480000000  0.5482690000000  0.5972640000000 1.0
C      1  0.4980960000000  0.5551080000000  0.4053210000000 1.0
C      1  0.4628930000000  0.4846300000000  0.4739490000000 1.0
C      1  0.4627540000000  0.4819040000000  0.5316760000000 1.0
C      1  0.4568310000000  0.5246210000000  0.5108010000000 1.0
C      1  0.4043360000000  0.5631330000000  0.5102990000000 1.0
C      1  0.4053800000000  0.4816460000000  0.4364950000000 1.0
C      1  0.4022230000000  0.4560120000000  0.5508710000000 1.0
C      1  0.3985120000000  0.4658270000000  0.4873160000000 1.0
C      1  0.4006430000000  0.5056660000000  0.5337050000000 1.0
C      1  0.3998100000000  0.5275220000000  0.4749440000000 1.0
C      1  0.5205130000000  0.3977960000000  0.5349850000000 1.0
C      1  0.5148630000000  0.5739790000000  0.5699490000000 1.0
C      1  0.5177610000000  0.5206830000000  0.3999610000000 1.0
C      1  0.4384720000000  0.5583750000000  0.5749500000000 1.0
C      1  0.4384530000000  0.5399690000000  0.4214340000000 1.0
C      1  0.4430410000000  0.4116180000000  0.5107410000000 1.0
C      1  0.4828050000000  0.5332690000000  0.3988050000000 1.0
C      1  0.4937860000000  0.3945220000000  0.5237600000000 1.0
C      1  0.4887610000000  0.5694380000000  0.5803120000000 1.0
C      1  0.5053020000000  0.5126310000000  0.6105130000000 1.0
C      1  0.5039470000000  0.5836120000000  0.4334100000000 1.0
C      1  0.5043950000000  0.4001950000000  0.4568560000000 1.0
C      1  0.5383230000000  0.5611620000000  0.4093560000000 1.0
C      1  0.5413810000000  0.3925660000000  0.4906100000000 1.0
C      1  0.5415750000000  0.5509390000000  0.6038990000000 1.0
C      1  0.6017180000000  0.4497810000000  0.5180790000000 1.0
C      1  0.6004770000000  0.5389780000000  0.5360010000000 1.0
C      1  0.6016860000000  0.5115860000000  0.4493710000000 1.0
C      1  0.3971240000000  0.5079040000000  0.4403140000000 1.0
C      1  0.3986590000000  0.4460750000000  0.5236830000000 1.0
C      1  0.4019700000000  0.5472550000000  0.5358240000000 1.0
C      1  0.4573300000000  0.4438980000000  0.4123260000000 1.0
C      1  0.4679830000000  0.4495240000000  0.5867170000000 1.0
C      1  0.4564550000000  0.6021930000000  0.4932430000000 1.0
C      1  0.5400250000000  0.4684400000000  0.4842330000000 1.0
C      1  0.5414270000000  0.5017760000000  0.5300000000000 1.0
C      1  0.5402920000000  0.5266120000000  0.4812850000000 1.0
C      1  0.4745310000000  0.4626210000000  0.6114790000000 1.0
C      1  0.4768030000000  0.6139000000000  0.4758660000000 1.0
C      1  0.4734300000000  0.4188330000000  0.4129680000000 1.0
C      1  0.4910470000000  0.4755840000000  0.3873300000000 1.0
C      1  0.4885440000000  0.4120420000000  0.5725120000000 1.0
C      1  0.4887450000000  0.5929470000000  0.5349250000000 1.0
C      1  0.5182290000000  0.4170040000000  0.4373170000000 1.0
C      1  0.5193510000000  0.4884430000000  0.6031640000000 1.0
C      1  0.5198050000000  0.5942060000000  0.4557930000000 1.0
C      1  0.4212600000000  0.5252830000000  0.5382890000000 1.0
C      1  0.4140320000000  0.5229390000000  0.4522640000000 1.0
C      1  0.4080690000000  0.4434270000000  0.4994570000000 1.0
C      1  0.5194030000000  0.4628210000000  0.4409920000000 1.0
C      1  0.5237570000000  0.4698740000000  0.5592660000000 1.0
C      1  0.5220320000000  0.5753970000000  0.4969460000000 1.0
C      1  0.5708600000000  0.4734400000000  0.4595530000000 1.0
C      1  0.5701950000000  0.4758610000000  0.5423270000000 1.0
C      1  0.5698180000000  0.5487000000000  0.4983020000000 1.0
C      1  0.4203170000000  0.4863000000000  0.4930850000000 1.0
C      1  0.4222460000000  0.4903620000000  0.5202960000000 1.0
C      1  0.4203640000000  0.5159720000000  0.4905770000000 1.0
C      1  0.5363980000000  0.4742120000000  0.5138150000000 1.0
C      1  0.5348940000000  0.5234250000000  0.5107800000000 1.0
C      1  0.5366920000000  0.4976840000000  0.4712450000000 1.0
C      1  0.4983810000000  0.5892410000000  0.5079800000000 1.0
C      1  0.4974100000000  0.4607020000000  0.4230940000000 1.0
C      1  0.4956660000000  0.4505120000000  0.5755140000000 1.0
C      1  0.4435460000000  0.4704440000000  0.4860630000000 1.0
C      1  0.4475570000000  0.5002720000000  0.5221510000000 1.0
C      1  0.4455300000000  0.5290020000000  0.4848370000000 1.0
C      1  0.4830380000000  0.4642530000000  0.4709480000000 1.0
C      1  0.4826300000000  0.4902970000000  0.5499400000000 1.0
C      1  0.4825300000000  0.5548840000000  0.4874470000000 1.0
C      1  0.4968350000000  0.4550660000000  0.4985840000000 1.0
C      1  0.4960720000000  0.5178300000000  0.5459400000000 1.0
C      1  0.4947040000000  0.5260920000000  0.4576400000000 1.0
C      1  0.4584160000000  0.5217570000000  0.4089400000000 1.0
C      1  0.4693240000000  0.4123350000000  0.5278390000000 1.0
C      1  0.4634870000000  0.5737120000000  0.5686330000000 1.0
C      1  0.5382490000000  0.5498680000000  0.5310480000000 1.0
C      1  0.5417740000000  0.5015830000000  0.4427630000000 1.0
C      1  0.5410950000000  0.4461610000000  0.5233330000000 1.0
C      1  0.5803290000000  0.5300500000000  0.4558370000000 1.0
C      1  0.5818300000000  0.4489720000000  0.4981100000000 1.0
C      1  0.5794610000000  0.5238740000000  0.5488260000000 1.0
C      1  0.5061000000000  0.4786820000000  0.5141560000000 1.0
C      1  0.5038730000000  0.5113410000000  0.5044970000000 1.0
C      1  0.5050550000000  0.5038010000000  0.4758340000000 1.0
C      1  0.4803930000000  0.5176600000000  0.5943900000000 1.0
C      1  0.4786670000000  0.5716420000000  0.4395760000000 1.0
C      1  0.4798320000000  0.4109690000000  0.4695750000000 1.0
C      1  0.4608950000000  0.6060190000000  0.4527680000000 1.0
C      1  0.4580940000000  0.4096560000000  0.4357360000000 1.0
C      1  0.4562240000000  0.4859120000000  0.5979630000000 1.0
C      1  0.5663860000000  0.5233440000000  0.4114150000000 1.0
C      1  0.5671540000000  0.4096450000000  0.5249040000000 1.0
C      1  0.5640520000000  0.5660530000000  0.5653380000000 1.0
C      1  0.4318830000000  0.5904020000000  0.4847310000000 1.0
C      1  0.4313040000000  0.4495520000000  0.4231760000000 1.0
C      1  0.4330290000000  0.4706700000000  0.5852710000000 1.0
C      1  0.5835720000000  0.5286910000000  0.4841450000000 1.0
C      1  0.5845300000000  0.4706890000000  0.4820870000000 1.0
C      1  0.5835150000000  0.4997150000000  0.5339340000000 1.0
C      1  0.4444450000000  0.4436330000000  0.4723590000000 1.0
C      1  0.4360630000000  0.5161210000000  0.5608100000000 1.0
C      1  0.4618770000000  0.5288620000000  0.4608970000000 1.0
C      1  0.6181840000000  0.4727140000000  0.5112760000000 1.0
C      1  0.6172340000000  0.5228390000000  0.5195440000000 1.0
C      1  0.6179580000000  0.5054880000000  0.4721500000000 1.0
C      1  0.6113690000000  0.4798910000000  0.4839740000000 1.0
C      1  0.6109180000000  0.4959160000000  0.5271390000000 1.0
C      1  0.6107950000000  0.5251510000000  0.4916660000000 1.0
C      1  0.5019550000000  0.4238030000000  0.4098020000000 1.0
C      1  0.5034850000000  0.4613750000000  0.6133170000000 1.0
C      1  0.5076390000000  0.6149200000000  0.4783410000000 1.0
C      1  0.5172270000000  0.4047140000000  0.4825360000000 1.0
C      1  0.5142170000000  0.5388930000000  0.6064760000000 1.0
C      1  0.5164270000000  0.5592260000000  0.4270470000000 1.0
END
