TITL C-2441167-4473-1322 0.312635912140684 125000 -22029.8658799751 0 0 196 (C1) n - 1
REM
REM in /home/bkarasulu/work/CARBON/AIRSS/Generating-Clusters/ReaxFF-fromJPCA2015/Units_Real/with-SteepDescent/Higher-Symm
REM
REM
REM
REM
REM
REM ./C.cell (1df0a924f5614ab8850e4351716899ee)
REM
REM compiler GCC version 9.2.1 20190827 (Red Hat 9.2.1-1)
REM options -cpp -mtune=generic -march=x86-64 -g -O0 -fpre-include=/usr/include/finclude/math-vector-fortran.h
REM seed -1141479086 1747606558 -1155907958 -1820758805 -1447925457 1523683864 -1347568973 -61895689 1769455264 -304081374 1353613083 2081406466 2128281855 -1053569381 -591687170 -889261380 -299825650 243458674 -1036485921 129480420 -1459742147 -1393190462 1525933641 469744627 733689842 -1740937594 831140694 70351696 1437201648 1468302640 1045216545 564226944 -548645289
REM
CELL 1.54180   50.00000   50.00000   50.00000   90.00000   90.00000   90.00000
LATT -1
SFAC C  
C      1  0.4235050000000  0.4856630000000  0.4382440000000 1.0
C      1  0.4867710000000  0.4942000000000  0.6019470000000 1.0
C      1  0.5895730000000  0.4868880000000  0.4680730000000 1.0
C      1  0.5825950000000  0.4997030000000  0.5220770000000 1.0
C      1  0.4813610000000  0.4978310000000  0.4165290000000 1.0
C      1  0.4425470000000  0.4994470000000  0.5519280000000 1.0
C      1  0.4886250000000  0.5216560000000  0.4711290000000 1.0
C      1  0.4685170000000  0.5052440000000  0.5336070000000 1.0
C      1  0.5387470000000  0.5051760000000  0.5199480000000 1.0
C      1  0.3854770000000  0.5153190000000  0.5477050000000 1.0
C      1  0.5931380000000  0.5186420000000  0.5644770000000 1.0
C      1  0.5093280000000  0.5195300000000  0.3858310000000 1.0
C      1  0.4405400000000  0.4827560000000  0.5076860000000 1.0
C      1  0.5320520000000  0.4757090000000  0.5501890000000 1.0
C      1  0.5176790000000  0.4902020000000  0.4420370000000 1.0
C      1  0.4520180000000  0.5379950000000  0.5075280000000 1.0
C      1  0.5457590000000  0.5314850000000  0.5296720000000 1.0
C      1  0.5126700000000  0.5210630000000  0.4379550000000 1.0
C      1  0.5743260000000  0.5873900000000  0.4983400000000 1.0
C      1  0.4623910000000  0.5867310000000  0.4376440000000 1.0
C      1  0.4629110000000  0.5862780000000  0.5641820000000 1.0
C      1  0.5365580000000  0.4236270000000  0.5362960000000 1.0
C      1  0.5100990000000  0.4207710000000  0.4515950000000 1.0
C      1  0.4478000000000  0.4192760000000  0.5137130000000 1.0
C      1  0.4991270000000  0.4108730000000  0.5698470000000 1.0
C      1  0.5589000000000  0.4089080000000  0.4653030000000 1.0
C      1  0.4438190000000  0.4112110000000  0.4628280000000 1.0
C      1  0.4770120000000  0.5529260000000  0.5231430000000 1.0
C      1  0.5253060000000  0.5462100000000  0.5122470000000 1.0
C      1  0.5093490000000  0.5390550000000  0.4608730000000 1.0
C      1  0.5534440000000  0.4350140000000  0.5570140000000 1.0
C      1  0.5187410000000  0.4380930000000  0.4269370000000 1.0
C      1  0.4253890000000  0.4284710000000  0.5239470000000 1.0
C      1  0.4274420000000  0.5592620000000  0.4971040000000 1.0
C      1  0.5314020000000  0.5645390000000  0.5679220000000 1.0
C      1  0.5455400000000  0.5642120000000  0.4379860000000 1.0
C      1  0.4198560000000  0.4235590000000  0.4727910000000 1.0
C      1  0.5183800000000  0.4238200000000  0.5872840000000 1.0
C      1  0.5647420000000  0.4243150000000  0.4420820000000 1.0
C      1  0.4990290000000  0.4381740000000  0.4774260000000 1.0
C      1  0.4911690000000  0.4356470000000  0.5052690000000 1.0
C      1  0.5169120000000  0.4429330000000  0.5179480000000 1.0
C      1  0.4911730000000  0.3913030000000  0.4742980000000 1.0
C      1  0.4801060000000  0.3939370000000  0.5223900000000 1.0
C      1  0.5287030000000  0.3925820000000  0.5071150000000 1.0
C      1  0.5011030000000  0.4666420000000  0.4787440000000 1.0
C      1  0.4804190000000  0.4607510000000  0.5191560000000 1.0
C      1  0.5233630000000  0.4628940000000  0.4969990000000 1.0
C      1  0.5201840000000  0.6027140000000  0.5051860000000 1.0
C      1  0.4983400000000  0.6013260000000  0.4853400000000 1.0
C      1  0.4805380000000  0.6005820000000  0.5123730000000 1.0
C      1  0.3928620000000  0.4871290000000  0.5405730000000 1.0
C      1  0.5878490000000  0.4877920000000  0.5711000000000 1.0
C      1  0.5181270000000  0.4887360000000  0.3873180000000 1.0
C      1  0.4322880000000  0.5078940000000  0.4058240000000 1.0
C      1  0.4476070000000  0.5069530000000  0.6046890000000 1.0
C      1  0.6160340000000  0.5089780000000  0.4892100000000 1.0
C      1  0.4214670000000  0.4759200000000  0.5501990000000 1.0
C      1  0.5840260000000  0.4780650000000  0.5440450000000 1.0
C      1  0.4951060000000  0.4771850000000  0.4013090000000 1.0
C      1  0.4058880000000  0.5311430000000  0.5319050000000 1.0
C      1  0.5628730000000  0.5304980000000  0.5626970000000 1.0
C      1  0.5248900000000  0.5310920000000  0.4127870000000 1.0
C      1  0.4976830000000  0.5174660000000  0.5343390000000 1.0
C      1  0.5275120000000  0.5293620000000  0.4829860000000 1.0
C      1  0.4639210000000  0.5356970000000  0.4779750000000 1.0
C      1  0.5176980000000  0.6008360000000  0.4595670000000 1.0
C      1  0.4520780000000  0.6030110000000  0.5049580000000 1.0
C      1  0.5251410000000  0.6007120000000  0.5335390000000 1.0
C      1  0.5498610000000  0.4108640000000  0.5129700000000 1.0
C      1  0.4833760000000  0.4073560000000  0.4521080000000 1.0
C      1  0.4612710000000  0.4113770000000  0.5361180000000 1.0
C      1  0.6023110000000  0.5132410000000  0.4636340000000 1.0
C      1  0.4173000000000  0.5159180000000  0.4290860000000 1.0
C      1  0.4792370000000  0.5200000000000  0.6106260000000 1.0
C      1  0.5080850000000  0.3918160000000  0.5271170000000 1.0
C      1  0.5188280000000  0.3905750000000  0.4804970000000 1.0
C      1  0.4743740000000  0.3923960000000  0.4954020000000 1.0
C      1  0.4586500000000  0.4501480000000  0.4178890000000 1.0
C      1  0.4474620000000  0.4488530000000  0.5721580000000 1.0
C      1  0.5898470000000  0.4509510000000  0.5053610000000 1.0
C      1  0.5039010000000  0.5915780000000  0.4382450000000 1.0
C      1  0.4427700000000  0.5894010000000  0.5266600000000 1.0
C      1  0.5486890000000  0.5890380000000  0.5312750000000 1.0
C      1  0.4843260000000  0.5536330000000  0.5731780000000 1.0
C      1  0.5733370000000  0.5540210000000  0.4759290000000 1.0
C      1  0.4421210000000  0.5547450000000  0.4485150000000 1.0
C      1  0.4115490000000  0.5447820000000  0.4764530000000 1.0
C      1  0.5268830000000  0.5453640000000  0.5888090000000 1.0
C      1  0.5663760000000  0.5440570000000  0.4365660000000 1.0
C      1  0.4386980000000  0.4932030000000  0.5826830000000 1.0
C      1  0.6082470000000  0.4900890000000  0.5110670000000 1.0
C      1  0.4565970000000  0.4893820000000  0.4059770000000 1.0
C      1  0.5134930000000  0.5820990000000  0.5530580000000 1.0
C      1  0.5407310000000  0.5832090000000  0.4589340000000 1.0
C      1  0.4423530000000  0.5833410000000  0.4852710000000 1.0
C      1  0.5320430000000  0.4019800000000  0.4589670000000 1.0
C      1  0.4506260000000  0.4040720000000  0.4901660000000 1.0
C      1  0.5180560000000  0.4042930000000  0.5495700000000 1.0
C      1  0.5588240000000  0.5585040000000  0.5613920000000 1.0
C      1  0.5271160000000  0.5596620000000  0.4168110000000 1.0
C      1  0.4107770000000  0.5583670000000  0.5220710000000 1.0
C      1  0.4033950000000  0.5234670000000  0.4915910000000 1.0
C      1  0.5480250000000  0.5265240000000  0.5859170000000 1.0
C      1  0.5575650000000  0.5244570000000  0.4177050000000 1.0
C      1  0.4822160000000  0.5246490000000  0.4043570000000 1.0
C      1  0.4290620000000  0.5249360000000  0.5481180000000 1.0
C      1  0.5943510000000  0.5251350000000  0.5316600000000 1.0
C      1  0.4343340000000  0.5855160000000  0.4361170000000 1.0
C      1  0.4768480000000  0.5835390000000  0.5883370000000 1.0
C      1  0.5889820000000  0.5837140000000  0.4744260000000 1.0
C      1  0.6082970000000  0.5323420000000  0.5050310000000 1.0
C      1  0.4492420000000  0.5309210000000  0.4070730000000 1.0
C      1  0.4561130000000  0.5328070000000  0.5971030000000 1.0
C      1  0.5212170000000  0.4639480000000  0.6009650000000 1.0
C      1  0.5747290000000  0.4645990000000  0.4309770000000 1.0
C      1  0.3997760000000  0.4600240000000  0.4682720000000 1.0
C      1  0.5428610000000  0.4777140000000  0.5248040000000 1.0
C      1  0.4926350000000  0.4732870000000  0.4513210000000 1.0
C      1  0.4540220000000  0.4665640000000  0.5230080000000 1.0
C      1  0.4790200000000  0.5726880000000  0.5047420000000 1.0
C      1  0.5252330000000  0.5736300000000  0.4999960000000 1.0
C      1  0.4979940000000  0.5706070000000  0.4832440000000 1.0
C      1  0.4478630000000  0.4960220000000  0.4507790000000 1.0
C      1  0.4804670000000  0.4885250000000  0.5754410000000 1.0
C      1  0.5697320000000  0.4974890000000  0.4891560000000 1.0
C      1  0.5183910000000  0.4961370000000  0.5606050000000 1.0
C      1  0.5433610000000  0.4935300000000  0.4552680000000 1.0
C      1  0.4542010000000  0.4967850000000  0.4917100000000 1.0
C      1  0.5282600000000  0.4652870000000  0.4298140000000 1.0
C      1  0.4215600000000  0.4709720000000  0.4994990000000 1.0
C      1  0.5489340000000  0.4610470000000  0.5631620000000 1.0
C      1  0.5066540000000  0.5053950000000  0.4875820000000 1.0
C      1  0.4734010000000  0.5032720000000  0.5079760000000 1.0
C      1  0.5117110000000  0.5011730000000  0.5160330000000 1.0
C      1  0.5458430000000  0.4295270000000  0.4204600000000 1.0
C      1  0.4100230000000  0.4295380000000  0.4994170000000 1.0
C      1  0.5471510000000  0.4279930000000  0.5840370000000 1.0
C      1  0.5528890000000  0.4585890000000  0.4135140000000 1.0
C      1  0.3972390000000  0.4571410000000  0.4968390000000 1.0
C      1  0.5497530000000  0.4585690000000  0.5910850000000 1.0
C      1  0.4441990000000  0.5454890000000  0.5554660000000 1.0
C      1  0.5731170000000  0.5442550000000  0.5230370000000 1.0
C      1  0.4837240000000  0.5447360000000  0.4255260000000 1.0
C      1  0.5449590000000  0.4816710000000  0.3927730000000 1.0
C      1  0.3839760000000  0.4817480000000  0.5144580000000 1.0
C      1  0.5696280000000  0.4827660000000  0.5921280000000 1.0
C      1  0.3818650000000  0.5057020000000  0.4992600000000 1.0
C      1  0.5555450000000  0.5051820000000  0.6016540000000 1.0
C      1  0.5628370000000  0.5032030000000  0.3975190000000 1.0
C      1  0.4444920000000  0.5148200000000  0.4706470000000 1.0
C      1  0.5063940000000  0.5186530000000  0.5628460000000 1.0
C      1  0.5498220000000  0.5128710000000  0.4739540000000 1.0
C      1  0.5051390000000  0.5782630000000  0.4135180000000 1.0
C      1  0.4219930000000  0.5774070000000  0.5382680000000 1.0
C      1  0.5697090000000  0.5785140000000  0.5452520000000 1.0
C      1  0.5483950000000  0.5740710000000  0.4838000000000 1.0
C      1  0.4606210000000  0.5698740000000  0.4667900000000 1.0
C      1  0.4864250000000  0.5703920000000  0.5494130000000 1.0
C      1  0.5761770000000  0.4481680000000  0.4546160000000 1.0
C      1  0.4270420000000  0.4503530000000  0.4598420000000 1.0
C      1  0.5009000000000  0.4462240000000  0.5908550000000 1.0
C      1  0.5603480000000  0.4714680000000  0.4911700000000 1.0
C      1  0.4666210000000  0.4783200000000  0.4623390000000 1.0
C      1  0.4831400000000  0.4739840000000  0.5572390000000 1.0
C      1  0.4373180000000  0.4528190000000  0.5411490000000 1.0
C      1  0.5628890000000  0.4584470000000  0.5159640000000 1.0
C      1  0.4821400000000  0.4494520000000  0.4347570000000 1.0
C      1  0.5764460000000  0.5030780000000  0.4207620000000 1.0
C      1  0.3914160000000  0.5062290000000  0.4726580000000 1.0
C      1  0.5321440000000  0.5012000000000  0.6120060000000 1.0
C      1  0.4547140000000  0.4532640000000  0.4698770000000 1.0
C      1  0.4927710000000  0.4529270000000  0.5437330000000 1.0
C      1  0.5441900000000  0.4512890000000  0.4797330000000 1.0
C      1  0.6047880000000  0.4656760000000  0.5262100000000 1.0
C      1  0.4687340000000  0.4658850000000  0.3942930000000 1.0
C      1  0.4267530000000  0.4672000000000  0.5785390000000 1.0
C      1  0.4787600000000  0.4280000000000  0.5560550000000 1.0
C      1  0.5553860000000  0.4255880000000  0.4889220000000 1.0
C      1  0.4655550000000  0.4313810000000  0.4541810000000 1.0
C      1  0.5931630000000  0.4572750000000  0.4770200000000 1.0
C      1  0.4339560000000  0.4570070000000  0.4307070000000 1.0
C      1  0.4727540000000  0.4401640000000  0.5814750000000 1.0
C      1  0.5844610000000  0.5355770000000  0.4560370000000 1.0
C      1  0.4185730000000  0.5374700000000  0.4494420000000 1.0
C      1  0.5002720000000  0.5346570000000  0.5872910000000 1.0
C      1  0.5837980000000  0.5720640000000  0.5220880000000 1.0
C      1  0.4768480000000  0.5715480000000  0.4159650000000 1.0
C      1  0.4356230000000  0.5717140000000  0.5620120000000 1.0
C      1  0.5133980000000  0.4891400000000  0.6017670000000 1.0
C      1  0.5704550000000  0.4881880000000  0.4431650000000 1.0
C      1  0.4024890000000  0.4850980000000  0.4586710000000 1.0
C      1  0.5817940000000  0.5404970000000  0.4976380000000 1.0
C      1  0.4578780000000  0.5394210000000  0.4326940000000 1.0
C      1  0.4634530000000  0.5382950000000  0.5701020000000 1.0
C      1  0.4997910000000  0.5391980000000  0.5200860000000 1.0
END
