TITL C-2441158-471-926 0.17897510842344 125000 -15638.3651403605 0 0 134 (C1) n - 1
REM
REM in /home/bkarasulu/work/CARBON/AIRSS/Generating-Clusters/ReaxFF-fromJPCA2015/Units_Real/with-SteepDescent/Higher-Symm
REM
REM
REM
REM
REM
REM ./C.cell (1df0a924f5614ab8850e4351716899ee)
REM
REM compiler GCC version 9.2.1 20190827 (Red Hat 9.2.1-1)
REM options -cpp -mtune=generic -march=x86-64 -g -O0 -fpre-include=/usr/include/finclude/math-vector-fortran.h
REM seed 1731903528 -646393066 1322183101 -49338813 2119473534 -1526074487 57245259 -692118328 -1216024386 538870566 146591890 1223176961 739247259 1016094965 1327414493 97274900 -473794384 -1426088104 -566118215 1299077227 -203623859 1349904000 -383311402 164575097 1009623414 825064173 1885766387 -1324301540 -661743245 -214938445 -478255425 -253940653 962341977
REM
CELL 1.54180   50.00000   50.00000   50.00000   90.00000   90.00000   90.00000
LATT -1
SFAC C  
C      1  0.4319940000000  0.4789310000000  0.4528830000000 1.0
C      1  0.4334130000000  0.4703070000000  0.5425680000000 1.0
C      1  0.4330680000000  0.5517680000000  0.5055000000000 1.0
C      1  0.4903450000000  0.5793810000000  0.4616970000000 1.0
C      1  0.4891160000000  0.4269300000000  0.4502180000000 1.0
C      1  0.4889510000000  0.4935020000000  0.5885420000000 1.0
C      1  0.5817790000000  0.4535430000000  0.4922370000000 1.0
C      1  0.5751880000000  0.5155260000000  0.5468470000000 1.0
C      1  0.5802540000000  0.5325520000000  0.4636880000000 1.0
C      1  0.4605980000000  0.5158110000000  0.5255110000000 1.0
C      1  0.4594930000000  0.5161070000000  0.4744760000000 1.0
C      1  0.4585080000000  0.4698370000000  0.4998560000000 1.0
C      1  0.5353040000000  0.5952290000000  0.4860530000000 1.0
C      1  0.5330210000000  0.4400900000000  0.4220610000000 1.0
C      1  0.5331090000000  0.4666610000000  0.5923990000000 1.0
C      1  0.4911680000000  0.4644830000000  0.4286790000000 1.0
C      1  0.4988190000000  0.4578810000000  0.5636580000000 1.0
C      1  0.4915340000000  0.5842200000000  0.5038960000000 1.0
C      1  0.4520710000000  0.5445640000000  0.5664950000000 1.0
C      1  0.4582240000000  0.5387370000000  0.4318310000000 1.0
C      1  0.4521420000000  0.4216600000000  0.5048560000000 1.0
C      1  0.4419150000000  0.5645200000000  0.5300240000000 1.0
C      1  0.4413880000000  0.4944000000000  0.4301810000000 1.0
C      1  0.4414950000000  0.4427530000000  0.5417280000000 1.0
C      1  0.5359930000000  0.5288830000000  0.4206760000000 1.0
C      1  0.5395250000000  0.4193030000000  0.5114870000000 1.0
C      1  0.5323700000000  0.5555480000000  0.5718960000000 1.0
C      1  0.5434830000000  0.5264210000000  0.4792760000000 1.0
C      1  0.5447900000000  0.4649570000000  0.4738490000000 1.0
C      1  0.5351350000000  0.5064250000000  0.5429740000000 1.0
C      1  0.4789090000000  0.5366850000000  0.5230700000000 1.0
C      1  0.4782580000000  0.5046180000000  0.4562180000000 1.0
C      1  0.4774840000000  0.4583540000000  0.5194370000000 1.0
C      1  0.4957140000000  0.5280030000000  0.4062440000000 1.0
C      1  0.4902830000000  0.4068660000000  0.5232040000000 1.0
C      1  0.4936550000000  0.5662290000000  0.5689650000000 1.0
C      1  0.4819800000000  0.5001590000000  0.4038120000000 1.0
C      1  0.4819080000000  0.4175130000000  0.5502530000000 1.0
C      1  0.4816520000000  0.5853050000000  0.5475520000000 1.0
C      1  0.4303130000000  0.5258900000000  0.5564650000000 1.0
C      1  0.4256640000000  0.5347790000000  0.4557220000000 1.0
C      1  0.4304750000000  0.4384080000000  0.4941430000000 1.0
C      1  0.4777710000000  0.4090360000000  0.4968930000000 1.0
C      1  0.4785960000000  0.5436650000000  0.5801870000000 1.0
C      1  0.4828170000000  0.5507070000000  0.4196110000000 1.0
C      1  0.5006360000000  0.4482100000000  0.5026750000000 1.0
C      1  0.5142010000000  0.5261710000000  0.5381810000000 1.0
C      1  0.5006620000000  0.5269000000000  0.4568310000000 1.0
C      1  0.5519310000000  0.4473730000000  0.5751210000000 1.0
C      1  0.5496010000000  0.5969240000000  0.5128950000000 1.0
C      1  0.5502730000000  0.4634990000000  0.4108290000000 1.0
C      1  0.4614290000000  0.5860120000000  0.5009700000000 1.0
C      1  0.4585690000000  0.4576930000000  0.4230930000000 1.0
C      1  0.4673680000000  0.4576450000000  0.5736740000000 1.0
C      1  0.5728650000000  0.5083350000000  0.4481000000000 1.0
C      1  0.5752360000000  0.4508180000000  0.5204510000000 1.0
C      1  0.5734660000000  0.5424370000000  0.5343650000000 1.0
C      1  0.5002630000000  0.4926790000000  0.5207950000000 1.0
C      1  0.5073630000000  0.5161780000000  0.4889330000000 1.0
C      1  0.5107240000000  0.4723930000000  0.4904000000000 1.0
C      1  0.4436990000000  0.5050040000000  0.5714490000000 1.0
C      1  0.4395340000000  0.5594570000000  0.4612580000000 1.0
C      1  0.4431210000000  0.4357710000000  0.4683080000000 1.0
C      1  0.4846280000000  0.4758980000000  0.4542630000000 1.0
C      1  0.4861250000000  0.4797710000000  0.5380200000000 1.0
C      1  0.4830760000000  0.5441200000000  0.4975870000000 1.0
C      1  0.4556050000000  0.4815520000000  0.4087470000000 1.0
C      1  0.4574270000000  0.4329950000000  0.5636330000000 1.0
C      1  0.4561320000000  0.5888450000000  0.5288340000000 1.0
C      1  0.5402780000000  0.4263640000000  0.4456060000000 1.0
C      1  0.5437540000000  0.4932750000000  0.5906470000000 1.0
C      1  0.5455720000000  0.5822410000000  0.4624150000000 1.0
C      1  0.5702090000000  0.5186720000000  0.4885890000000 1.0
C      1  0.5655570000000  0.4790930000000  0.4902370000000 1.0
C      1  0.5622150000000  0.5013040000000  0.5244290000000 1.0
C      1  0.5813120000000  0.5417920000000  0.5054430000000 1.0
C      1  0.5781620000000  0.4829160000000  0.4626330000000 1.0
C      1  0.5752140000000  0.4763080000000  0.5330520000000 1.0
C      1  0.5663940000000  0.5009580000000  0.5716890000000 1.0
C      1  0.5688500000000  0.5614100000000  0.4631790000000 1.0
C      1  0.5709420000000  0.4351320000000  0.4714530000000 1.0
C      1  0.4873320000000  0.4510450000000  0.4677470000000 1.0
C      1  0.4831520000000  0.4956160000000  0.5599390000000 1.0
C      1  0.4879080000000  0.5517080000000  0.4708890000000 1.0
C      1  0.5042640000000  0.4679190000000  0.5900590000000 1.0
C      1  0.5063030000000  0.5921110000000  0.4815260000000 1.0
C      1  0.5044440000000  0.4388810000000  0.4291150000000 1.0
C      1  0.5643930000000  0.4578460000000  0.4535670000000 1.0
C      1  0.5586040000000  0.4751560000000  0.5572280000000 1.0
C      1  0.5641140000000  0.5608170000000  0.4922810000000 1.0
C      1  0.5092270000000  0.5209840000000  0.4306630000000 1.0
C      1  0.5117910000000  0.4248780000000  0.5151010000000 1.0
C      1  0.5133540000000  0.5524710000000  0.5535210000000 1.0
C      1  0.4624000000000  0.4354630000000  0.5255940000000 1.0
C      1  0.4661720000000  0.5541720000000  0.5437880000000 1.0
C      1  0.4644050000000  0.5118510000000  0.4319600000000 1.0
C      1  0.5476040000000  0.5543390000000  0.5290160000000 1.0
C      1  0.5455250000000  0.5049010000000  0.4376530000000 1.0
C      1  0.5496810000000  0.4391810000000  0.5282900000000 1.0
C      1  0.5040590000000  0.4834890000000  0.4117490000000 1.0
C      1  0.5070530000000  0.4309070000000  0.5583070000000 1.0
C      1  0.5045350000000  0.5854010000000  0.5290210000000 1.0
C      1  0.4625210000000  0.5420540000000  0.4612600000000 1.0
C      1  0.4646600000000  0.4505830000000  0.4804360000000 1.0
C      1  0.4657060000000  0.5111090000000  0.5524890000000 1.0
C      1  0.4959500000000  0.5215060000000  0.5906780000000 1.0
C      1  0.4976820000000  0.5695510000000  0.4363100000000 1.0
C      1  0.4969060000000  0.4133760000000  0.4738670000000 1.0
C      1  0.5450780000000  0.5322670000000  0.5773930000000 1.0
C      1  0.5458230000000  0.5505400000000  0.4365090000000 1.0
C      1  0.5489080000000  0.4210410000000  0.4852280000000 1.0
C      1  0.4156740000000  0.5167080000000  0.4757350000000 1.0
C      1  0.4194280000000  0.4678810000000  0.4989150000000 1.0
C      1  0.4193680000000  0.5143540000000  0.5297860000000 1.0
C      1  0.5183740000000  0.5297000000000  0.5103900000000 1.0
C      1  0.5287210000000  0.5069280000000  0.4752900000000 1.0
C      1  0.5249940000000  0.4787550000000  0.5160290000000 1.0
C      1  0.4453860000000  0.4764690000000  0.5677490000000 1.0
C      1  0.4422390000000  0.5692370000000  0.4866360000000 1.0
C      1  0.4406580000000  0.4533880000000  0.4455120000000 1.0
C      1  0.4175700000000  0.4863770000000  0.4760880000000 1.0
C      1  0.4183300000000  0.4853530000000  0.5235290000000 1.0
C      1  0.4172910000000  0.5277560000000  0.5042400000000 1.0
C      1  0.5265060000000  0.5668770000000  0.4462130000000 1.0
C      1  0.5254670000000  0.4228800000000  0.4698570000000 1.0
C      1  0.5246130000000  0.5148630000000  0.5847600000000 1.0
C      1  0.5345320000000  0.5806380000000  0.5326460000000 1.0
C      1  0.5331960000000  0.4864130000000  0.4175590000000 1.0
C      1  0.5351460000000  0.4324050000000  0.5525440000000 1.0
C      1  0.5252190000000  0.4815930000000  0.4640370000000 1.0
C      1  0.5281030000000  0.4783930000000  0.5459030000000 1.0
C      1  0.5345620000000  0.5498250000000  0.4962760000000 1.0
C      1  0.4565710000000  0.5012260000000  0.4994770000000 1.0
C      1  0.4915600000000  0.4958810000000  0.4968170000000 1.0
END
