TITL C-2441169-1362-25 0.0113514591618114 125000 -12558.8485549021 0 0 89 (C1) n - 1
REM
REM in /home/bkarasulu/work/CARBON/AIRSS/Generating-Clusters/ReaxFF-fromJPCA2015/Units_Real/with-SteepDescent/Higher-Symm
REM
REM
REM
REM
REM
REM ./C.cell (1df0a924f5614ab8850e4351716899ee)
REM
REM compiler GCC version 9.2.1 20190827 (Red Hat 9.2.1-1)
REM options -cpp -mtune=generic -march=x86-64 -g -O0 -fpre-include=/usr/include/finclude/math-vector-fortran.h
REM seed -1932444727 -1578648567 -766194394 -331829383 -545427084 1232121988 1145356422 -1469680227 2072302037 1368391189 -8166509 -1934857353 -1064515731 756902615 1295406836 -1071808599 1934554164 -209642050 1518625345 1267885075 -142349110 621522259 -973619460 -954141987 -126707295 -922000206 -968612260 524672302 -780689958 -1388244647 388601787 -993554605 -2118374729
REM
CELL 1.54180   50.00000   50.00000   50.00000   90.00000   90.00000   90.00000
LATT -1
SFAC C  
C      1  0.4576660000000  0.4824410000000  0.4338060000000 1.0
C      1  0.4718300000000  0.5334770000000  0.4311610000000 1.0
C      1  0.5234720000000  0.5397690000000  0.4308890000000 1.0
C      1  0.5485890000000  0.4869500000000  0.4335940000000 1.0
C      1  0.5050730000000  0.4558450000000  0.4330690000000 1.0
C      1  0.4564700000000  0.5131580000000  0.5725860000000 1.0
C      1  0.4758880000000  0.4622800000000  0.5703250000000 1.0
C      1  0.5314260000000  0.4709000000000  0.5785300000000 1.0
C      1  0.5443590000000  0.5168030000000  0.5727450000000 1.0
C      1  0.5053460000000  0.5460210000000  0.5722030000000 1.0
C      1  0.4437730000000  0.4850870000000  0.5291190000000 1.0
C      1  0.4697260000000  0.5472740000000  0.5273450000000 1.0
C      1  0.5359480000000  0.5428690000000  0.5276590000000 1.0
C      1  0.5540000000000  0.4795840000000  0.5284350000000 1.0
C      1  0.4952850000000  0.4410120000000  0.5288640000000 1.0
C      1  0.4489080000000  0.5120430000000  0.4720070000000 1.0
C      1  0.4739020000000  0.4536410000000  0.4719000000000 1.0
C      1  0.5357910000000  0.4600170000000  0.4725520000000 1.0
C      1  0.5474640000000  0.5202290000000  0.4720830000000 1.0
C      1  0.4964520000000  0.5508600000000  0.4716140000000 1.0
C      1  0.4903280000000  0.4764490000000  0.4870130000000 1.0
C      1  0.4751010000000  0.5020290000000  0.4871040000000 1.0
C      1  0.4947390000000  0.5245600000000  0.4851610000000 1.0
C      1  0.5224820000000  0.5122540000000  0.4861330000000 1.0
C      1  0.5193440000000  0.4823730000000  0.4872410000000 1.0
C      1  0.4880480000000  0.5242490000000  0.5192720000000 1.0
C      1  0.4735820000000  0.4978920000000  0.5175960000000 1.0
C      1  0.4939550000000  0.4751020000000  0.5186300000000 1.0
C      1  0.5218150000000  0.4871290000000  0.5186350000000 1.0
C      1  0.5185350000000  0.5175980000000  0.5191350000000 1.0
C      1  0.4562230000000  0.5117770000000  0.4425840000000 1.0
C      1  0.4968070000000  0.5476850000000  0.4420120000000 1.0
C      1  0.5390550000000  0.5152440000000  0.4440940000000 1.0
C      1  0.5318400000000  0.4637130000000  0.4428710000000 1.0
C      1  0.4770100000000  0.4614390000000  0.4431560000000 1.0
C      1  0.4549210000000  0.4821930000000  0.5606720000000 1.0
C      1  0.4980980000000  0.4475470000000  0.5584710000000 1.0
C      1  0.5493280000000  0.4877130000000  0.5617220000000 1.0
C      1  0.5309270000000  0.5387220000000  0.5595380000000 1.0
C      1  0.4787680000000  0.5292200000000  0.5611200000000 1.0
C      1  0.5563300000000  0.5640220000000  0.4887260000000 1.0
C      1  0.5656560000000  0.4593790000000  0.4788330000000 1.0
C      1  0.4811830000000  0.4240960000000  0.4776570000000 1.0
C      1  0.4228910000000  0.4949430000000  0.4765280000000 1.0
C      1  0.4575990000000  0.5746380000000  0.4884070000000 1.0
C      1  0.5630880000000  0.4479600000000  0.5281540000000 1.0
C      1  0.5679880000000  0.5406980000000  0.5265040000000 1.0
C      1  0.4811080000000  0.5752980000000  0.5278580000000 1.0
C      1  0.4192660000000  0.5051260000000  0.5266980000000 1.0
C      1  0.4681820000000  0.4223920000000  0.5271470000000 1.0
C      1  0.5787710000000  0.4723580000000  0.4575700000000 1.0
C      1  0.4989320000000  0.4133610000000  0.4590820000000 1.0
C      1  0.4236120000000  0.4761460000000  0.4573770000000 1.0
C      1  0.4527140000000  0.5664700000000  0.4619640000000 1.0
C      1  0.5478770000000  0.5671990000000  0.4616050000000 1.0
C      1  0.5759070000000  0.5246620000000  0.5468560000000 1.0
C      1  0.4982560000000  0.5797020000000  0.5490330000000 1.0
C      1  0.4247870000000  0.5225400000000  0.5470090000000 1.0
C      1  0.4545070000000  0.4345900000000  0.5474290000000 1.0
C      1  0.5463520000000  0.4403290000000  0.5484220000000 1.0
C      1  0.5089630000000  0.5707790000000  0.4898010000000 1.0
C      1  0.5719150000000  0.5140910000000  0.4881560000000 1.0
C      1  0.5367960000000  0.4321760000000  0.4928230000000 1.0
C      1  0.4473840000000  0.4447170000000  0.4919150000000 1.0
C      1  0.4338960000000  0.5329150000000  0.4910360000000 1.0
C      1  0.5168730000000  0.4339620000000  0.5107170000000 1.0
C      1  0.5661290000000  0.4958770000000  0.5092510000000 1.0
C      1  0.5327520000000  0.5638210000000  0.5059620000000 1.0
C      1  0.4492100000000  0.5522360000000  0.5063150000000 1.0
C      1  0.4433550000000  0.4636340000000  0.5105680000000 1.0
C      1  0.5721200000000  0.5082180000000  0.5680840000000 1.0
C      1  0.5257980000000  0.4436780000000  0.5678270000000 1.0
C      1  0.4480180000000  0.4529860000000  0.5668930000000 1.0
C      1  0.4374140000000  0.5321450000000  0.5655530000000 1.0
C      1  0.5111510000000  0.5732480000000  0.5684950000000 1.0
C      1  0.5767750000000  0.4846670000000  0.4378090000000 1.0
C      1  0.5354860000000  0.5624410000000  0.4408950000000 1.0
C      1  0.4545080000000  0.5529620000000  0.4411290000000 1.0
C      1  0.4359520000000  0.4653690000000  0.4390970000000 1.0
C      1  0.5092670000000  0.4299120000000  0.4420680000000 1.0
C      1  0.5744820000000  0.5420710000000  0.4978210000000 1.0
C      1  0.4610740000000  0.4197730000000  0.4992040000000 1.0
C      1  0.4146760000000  0.5128650000000  0.4990930000000 1.0
C      1  0.5644210000000  0.4391840000000  0.5003780000000 1.0
C      1  0.4840410000000  0.5829050000000  0.4993220000000 1.0
C      1  0.5084300000000  0.4879260000000  0.5865900000000 1.0
C      1  0.4967790000000  0.4976810000000  0.4143770000000 1.0
C      1  0.4965580000000  0.5052030000000  0.5648260000000 1.0
C      1  0.5076280000000  0.5020790000000  0.4390810000000 1.0
END
