TITL C-2441154-10-592 0.0316683000126984 125000 -28508.8243462033 0 0 196 (C1) n - 1
REM
REM in /home/bkarasulu/work/CARBON/AIRSS/Generating-Clusters/ReaxFF-fromJPCA2015/Units_Real/with-SteepDescent/Higher-Symm
REM
REM
REM
REM
REM
REM ./C.cell (1df0a924f5614ab8850e4351716899ee)
REM
REM compiler GCC version 9.2.1 20190827 (Red Hat 9.2.1-1)
REM options -cpp -mtune=generic -march=x86-64 -g -O0 -fpre-include=/usr/include/finclude/math-vector-fortran.h
REM seed -1597704711 -1835808424 -2139897598 -1871439944 -1319661763 2029104690 -671599540 1296261714 -360750713 -978176386 -457419727 -806645323 1185239875 1762717422 712854942 601383036 -1606351406 1834300679 -1719391421 2114738965 -1374268640 -148750177 -1717452263 -2133219698 501304923 -2117557051 -2075603601 -1056607658 -1785363615 -1630665810 -2081969650 498072396 -607094005
REM
CELL 1.54180   50.00000   50.00000   50.00000   90.00000   90.00000   90.00000
LATT -1
SFAC C  
C      1  0.5157430000000  0.5410820000000  0.4608100000000 1.0
C      1  0.4906660000000  0.5455520000000  0.4475270000000 1.0
C      1  0.4673630000000  0.5308120000000  0.4492100000000 1.0
C      1  0.4601730000000  0.5085140000000  0.4651550000000 1.0
C      1  0.4577820000000  0.4833500000000  0.4540680000000 1.0
C      1  0.4763110000000  0.4624980000000  0.4632870000000 1.0
C      1  0.5032880000000  0.4570990000000  0.4533410000000 1.0
C      1  0.5278430000000  0.4575650000000  0.4703920000000 1.0
C      1  0.5434920000000  0.4757380000000  0.4531400000000 1.0
C      1  0.5470780000000  0.5041890000000  0.4606620000000 1.0
C      1  0.5381330000000  0.5291260000000  0.4486050000000 1.0
C      1  0.4480600000000  0.4278020000000  0.5405960000000 1.0
C      1  0.4898810000000  0.4102290000000  0.5409730000000 1.0
C      1  0.5384200000000  0.4276450000000  0.5336370000000 1.0
C      1  0.5770560000000  0.4568900000000  0.5358900000000 1.0
C      1  0.5889700000000  0.5118310000000  0.5292140000000 1.0
C      1  0.5854930000000  0.5741640000000  0.5406910000000 1.0
C      1  0.5310270000000  0.5829940000000  0.5387060000000 1.0
C      1  0.4792150000000  0.5867710000000  0.5328710000000 1.0
C      1  0.4148030000000  0.5723220000000  0.5337480000000 1.0
C      1  0.3892110000000  0.5152400000000  0.5502210000000 1.0
C      1  0.4020410000000  0.4538990000000  0.5327330000000 1.0
C      1  0.5695730000000  0.4607760000000  0.5875270000000 1.0
C      1  0.5794550000000  0.5148830000000  0.5729730000000 1.0
C      1  0.5575310000000  0.5502360000000  0.5863020000000 1.0
C      1  0.5241140000000  0.5822660000000  0.5879580000000 1.0
C      1  0.4755980000000  0.5739380000000  0.5871130000000 1.0
C      1  0.4217670000000  0.5728260000000  0.5830860000000 1.0
C      1  0.4252830000000  0.5164240000000  0.5869760000000 1.0
C      1  0.4325770000000  0.4660680000000  0.5818970000000 1.0
C      1  0.4435260000000  0.4185340000000  0.5875140000000 1.0
C      1  0.4987450000000  0.4231270000000  0.5913870000000 1.0
C      1  0.5467300000000  0.4122280000000  0.5807290000000 1.0
C      1  0.5108280000000  0.5460070000000  0.6024250000000 1.0
C      1  0.4833230000000  0.5499500000000  0.6031060000000 1.0
C      1  0.4720660000000  0.5221320000000  0.6074040000000 1.0
C      1  0.4475750000000  0.5076110000000  0.6036530000000 1.0
C      1  0.4518140000000  0.4776000000000  0.6022680000000 1.0
C      1  0.4765230000000  0.4650280000000  0.6046690000000 1.0
C      1  0.5013180000000  0.4507460000000  0.6058460000000 1.0
C      1  0.5251460000000  0.4664420000000  0.6068860000000 1.0
C      1  0.5501460000000  0.4787330000000  0.6063030000000 1.0
C      1  0.5427500000000  0.5059580000000  0.6051530000000 1.0
C      1  0.5372530000000  0.5345660000000  0.6028160000000 1.0
C      1  0.4270810000000  0.5809510000000  0.4429710000000 1.0
C      1  0.4023500000000  0.5401140000000  0.4459320000000 1.0
C      1  0.3986610000000  0.4690700000000  0.4487920000000 1.0
C      1  0.4230900000000  0.4380820000000  0.4384720000000 1.0
C      1  0.4897710000000  0.4009140000000  0.4462250000000 1.0
C      1  0.5386100000000  0.4018820000000  0.4473010000000 1.0
C      1  0.5754670000000  0.4309800000000  0.4473290000000 1.0
C      1  0.6053980000000  0.4978450000000  0.4475610000000 1.0
C      1  0.5976310000000  0.5497640000000  0.4453390000000 1.0
C      1  0.5432340000000  0.5933410000000  0.4561530000000 1.0
C      1  0.4964680000000  0.6030590000000  0.4501800000000 1.0
C      1  0.4852280000000  0.3855420000000  0.5238420000000 1.0
C      1  0.5477170000000  0.4014170000000  0.5236160000000 1.0
C      1  0.5966320000000  0.4377960000000  0.5239810000000 1.0
C      1  0.6125810000000  0.5012380000000  0.5161860000000 1.0
C      1  0.6086240000000  0.5698760000000  0.5222430000000 1.0
C      1  0.5433620000000  0.5972550000000  0.5162290000000 1.0
C      1  0.4822140000000  0.6102590000000  0.5162140000000 1.0
C      1  0.4306860000000  0.5966160000000  0.5300950000000 1.0
C      1  0.3876620000000  0.5306350000000  0.5253710000000 1.0
C      1  0.3805850000000  0.4634640000000  0.5153300000000 1.0
C      1  0.4330850000000  0.4103230000000  0.5226600000000 1.0
C      1  0.6251980000000  0.5236270000000  0.5031440000000 1.0
C      1  0.5889370000000  0.5885570000000  0.5163470000000 1.0
C      1  0.5315800000000  0.6219120000000  0.5104510000000 1.0
C      1  0.4603680000000  0.6175500000000  0.5001150000000 1.0
C      1  0.4075600000000  0.5708120000000  0.5083550000000 1.0
C      1  0.3738350000000  0.5067870000000  0.5286270000000 1.0
C      1  0.3933910000000  0.4415920000000  0.5073440000000 1.0
C      1  0.4445560000000  0.3841490000000  0.5240540000000 1.0
C      1  0.5043730000000  0.3841900000000  0.5047260000000 1.0
C      1  0.5694030000000  0.4015490000000  0.5056720000000 1.0
C      1  0.6190800000000  0.4545700000000  0.5287070000000 1.0
C      1  0.4078270000000  0.4426790000000  0.5576240000000 1.0
C      1  0.4545020000000  0.4124240000000  0.5631710000000 1.0
C      1  0.5031750000000  0.3967490000000  0.5590920000000 1.0
C      1  0.5526530000000  0.4266820000000  0.5576820000000 1.0
C      1  0.5806540000000  0.4683550000000  0.5626190000000 1.0
C      1  0.5917540000000  0.5294920000000  0.5517940000000 1.0
C      1  0.5698770000000  0.5807370000000  0.5623930000000 1.0
C      1  0.5187110000000  0.5952200000000  0.5620850000000 1.0
C      1  0.4543990000000  0.5900000000000  0.5469840000000 1.0
C      1  0.4172540000000  0.5550400000000  0.5602780000000 1.0
C      1  0.4083610000000  0.5016820000000  0.5675750000000 1.0
C      1  0.4043300000000  0.5151080000000  0.4358890000000 1.0
C      1  0.4185060000000  0.4638680000000  0.4281480000000 1.0
C      1  0.4488560000000  0.4267690000000  0.4362750000000 1.0
C      1  0.5024460000000  0.4141340000000  0.4246460000000 1.0
C      1  0.5303670000000  0.4155030000000  0.4232390000000 1.0
C      1  0.5833550000000  0.4544860000000  0.4382640000000 1.0
C      1  0.5898970000000  0.5048770000000  0.4264700000000 1.0
C      1  0.5751540000000  0.5583600000000  0.4313280000000 1.0
C      1  0.5317500000000  0.5832530000000  0.4338820000000 1.0
C      1  0.4749790000000  0.5931330000000  0.4386200000000 1.0
C      1  0.4352710000000  0.5591540000000  0.4292440000000 1.0
C      1  0.5232270000000  0.5549240000000  0.5365310000000 1.0
C      1  0.4914920000000  0.5585740000000  0.5283950000000 1.0
C      1  0.4705820000000  0.5357720000000  0.5316920000000 1.0
C      1  0.4541510000000  0.5183110000000  0.5475710000000 1.0
C      1  0.4484000000000  0.4905120000000  0.5396090000000 1.0
C      1  0.4641390000000  0.4521270000000  0.5351590000000 1.0
C      1  0.4907380000000  0.4405860000000  0.5383300000000 1.0
C      1  0.5153010000000  0.4423690000000  0.5232010000000 1.0
C      1  0.5576350000000  0.4739280000000  0.5206260000000 1.0
C      1  0.5622890000000  0.4997680000000  0.5347180000000 1.0
C      1  0.5421140000000  0.5337390000000  0.5330170000000 1.0
C      1  0.5167250000000  0.5427480000000  0.4887060000000 1.0
C      1  0.4917440000000  0.5514890000000  0.5000700000000 1.0
C      1  0.4703200000000  0.5334120000000  0.5043350000000 1.0
C      1  0.4582770000000  0.5105770000000  0.4927920000000 1.0
C      1  0.4515820000000  0.4882700000000  0.5104940000000 1.0
C      1  0.4628730000000  0.4629240000000  0.5085680000000 1.0
C      1  0.4816060000000  0.4528180000000  0.4900190000000 1.0
C      1  0.5075480000000  0.4398330000000  0.4950640000000 1.0
C      1  0.5453080000000  0.4760000000000  0.4948440000000 1.0
C      1  0.5470940000000  0.5042210000000  0.4895690000000 1.0
C      1  0.5374720000000  0.5290270000000  0.5049640000000 1.0
C      1  0.5180220000000  0.4032750000000  0.5823100000000 1.0
C      1  0.5526410000000  0.4396300000000  0.5817700000000 1.0
C      1  0.5672310000000  0.4922250000000  0.5627470000000 1.0
C      1  0.5649230000000  0.5369210000000  0.5618960000000 1.0
C      1  0.5529820000000  0.5773110000000  0.5837370000000 1.0
C      1  0.4981250000000  0.5899860000000  0.5802580000000 1.0
C      1  0.4507020000000  0.5806700000000  0.5745960000000 1.0
C      1  0.4370140000000  0.5333630000000  0.5661970000000 1.0
C      1  0.4258790000000  0.4802450000000  0.5568160000000 1.0
C      1  0.4219710000000  0.4384640000000  0.5820110000000 1.0
C      1  0.4713910000000  0.4204290000000  0.5835530000000 1.0
C      1  0.5308150000000  0.3876740000000  0.5040290000000 1.0
C      1  0.5946910000000  0.4338030000000  0.4940600000000 1.0
C      1  0.6175600000000  0.4730300000000  0.5071110000000 1.0
C      1  0.6174090000000  0.5510830000000  0.5027350000000 1.0
C      1  0.5663170000000  0.5894890000000  0.5003690000000 1.0
C      1  0.5045890000000  0.6264610000000  0.5107130000000 1.0
C      1  0.4353890000000  0.6076480000000  0.5040030000000 1.0
C      1  0.3946080000000  0.5306800000000  0.4973250000000 1.0
C      1  0.3785860000000  0.4897020000000  0.5067140000000 1.0
C      1  0.4304930000000  0.4163790000000  0.4933840000000 1.0
C      1  0.4622980000000  0.3849490000000  0.5030030000000 1.0
C      1  0.5193110000000  0.6127300000000  0.4618660000000 1.0
C      1  0.4497280000000  0.5965450000000  0.4530340000000 1.0
C      1  0.4043540000000  0.5654490000000  0.4561050000000 1.0
C      1  0.3956050000000  0.4965710000000  0.4573780000000 1.0
C      1  0.4043870000000  0.4418020000000  0.4595840000000 1.0
C      1  0.4625650000000  0.4086310000000  0.4545470000000 1.0
C      1  0.5139200000000  0.3976540000000  0.4611520000000 1.0
C      1  0.5664460000000  0.4077170000000  0.4558030000000 1.0
C      1  0.5998950000000  0.4697450000000  0.4571060000000 1.0
C      1  0.6039550000000  0.5257520000000  0.4591430000000 1.0
C      1  0.5844420000000  0.5722860000000  0.4544440000000 1.0
C      1  0.5154490000000  0.5745200000000  0.4130350000000 1.0
C      1  0.4878600000000  0.5653190000000  0.4252670000000 1.0
C      1  0.4482260000000  0.5356950000000  0.4262590000000 1.0
C      1  0.4314270000000  0.5115060000000  0.4196100000000 1.0
C      1  0.4417630000000  0.4830490000000  0.4289940000000 1.0
C      1  0.4658530000000  0.4394400000000  0.4174110000000 1.0
C      1  0.4940490000000  0.4406310000000  0.4234310000000 1.0
C      1  0.5408010000000  0.4406500000000  0.4126870000000 1.0
C      1  0.5544040000000  0.4644460000000  0.4264710000000 1.0
C      1  0.5724250000000  0.5165310000000  0.4095630000000 1.0
C      1  0.5529690000000  0.5392200000000  0.4256390000000 1.0
C      1  0.4504680000000  0.5989200000000  0.4818730000000 1.0
C      1  0.3989470000000  0.5579410000000  0.4865470000000 1.0
C      1  0.3903570000000  0.5049350000000  0.4848790000000 1.0
C      1  0.4097960000000  0.4342680000000  0.4860520000000 1.0
C      1  0.4523020000000  0.4031010000000  0.4806470000000 1.0
C      1  0.5120470000000  0.4060930000000  0.4884230000000 1.0
C      1  0.5831930000000  0.4083790000000  0.4827420000000 1.0
C      1  0.6046470000000  0.4587070000000  0.4831490000000 1.0
C      1  0.6054060000000  0.5324470000000  0.4862830000000 1.0
C      1  0.5658390000000  0.5839510000000  0.4726380000000 1.0
C      1  0.5187510000000  0.6291430000000  0.4867150000000 1.0
C      1  0.4701730000000  0.4591410000000  0.3968570000000 1.0
C      1  0.4986880000000  0.4542680000000  0.3976600000000 1.0
C      1  0.5271350000000  0.4583630000000  0.3938120000000 1.0
C      1  0.5449040000000  0.4805640000000  0.4005600000000 1.0
C      1  0.5489970000000  0.5081500000000  0.3933210000000 1.0
C      1  0.5357770000000  0.5340370000000  0.3992820000000 1.0
C      1  0.5131380000000  0.5507200000000  0.3946290000000 1.0
C      1  0.4842590000000  0.5500960000000  0.3999840000000 1.0
C      1  0.4614900000000  0.5337110000000  0.4000960000000 1.0
C      1  0.4476790000000  0.5089720000000  0.3939350000000 1.0
C      1  0.4548550000000  0.4825220000000  0.4014350000000 1.0
C      1  0.5043960000000  0.4959920000000  0.5467370000000 1.0
C      1  0.5023670000000  0.4968930000000  0.4702000000000 1.0
C      1  0.5033520000000  0.4961550000000  0.4960920000000 1.0
C      1  0.5017350000000  0.4984770000000  0.5711580000000 1.0
C      1  0.5014550000000  0.4971860000000  0.4440240000000 1.0
C      1  0.5007240000000  0.5009910000000  0.4184610000000 1.0
C      1  0.5000650000000  0.5036530000000  0.3941370000000 1.0
C      1  0.4952750000000  0.5037770000000  0.5995830000000 1.0
C      1  0.5043530000000  0.4955860000000  0.5215520000000 1.0
END
