TITL C-2441163-1170-149 0.031093347112056 125000 -12739.8763402891 0 0 94 (C1) n - 1
REM
REM in /home/bkarasulu/work/CARBON/AIRSS/Generating-Clusters/ReaxFF-fromJPCA2015/Units_Real/with-SteepDescent/Higher-Symm
REM
REM
REM
REM
REM
REM ./C.cell (1df0a924f5614ab8850e4351716899ee)
REM
REM compiler GCC version 9.2.1 20190827 (Red Hat 9.2.1-1)
REM options -cpp -mtune=generic -march=x86-64 -g -O0 -fpre-include=/usr/include/finclude/math-vector-fortran.h
REM seed 5311985 -889056506 -712193187 764563976 612795213 -1243479797 -189373686 646831420 1362281976 1324611224 98719562 426820351 -196075311 -471345221 -1699499161 1682382498 322158336 1186264331 1431972184 -1539175622 -732590247 2141203395 -674827124 1487373672 1625904532 1404598991 -2032999765 -1803784422 1159677258 -1432967454 192941584 -2032770194 -1015402840
REM
CELL 1.54180   50.00000   50.00000   50.00000   90.00000   90.00000   90.00000
LATT -1
SFAC C  
C      1  0.5172710000000  0.4105620000000  0.5139040000000 1.0
C      1  0.5175900000000  0.5820810000000  0.5118110000000 1.0
C      1  0.5423400000000  0.4383430000000  0.5595760000000 1.0
C      1  0.5397540000000  0.5595190000000  0.5562030000000 1.0
C      1  0.4748400000000  0.5663600000000  0.5369540000000 1.0
C      1  0.4763660000000  0.4337380000000  0.5327140000000 1.0
C      1  0.4398240000000  0.4640710000000  0.5500410000000 1.0
C      1  0.4344920000000  0.5414420000000  0.5542640000000 1.0
C      1  0.4714430000000  0.5776570000000  0.4477170000000 1.0
C      1  0.4749620000000  0.4230450000000  0.4475610000000 1.0
C      1  0.5196410000000  0.4363370000000  0.4614020000000 1.0
C      1  0.5267180000000  0.5697090000000  0.4528600000000 1.0
C      1  0.4460140000000  0.5633800000000  0.4487080000000 1.0
C      1  0.4484470000000  0.4358920000000  0.4481750000000 1.0
C      1  0.4703450000000  0.5260840000000  0.5083080000000 1.0
C      1  0.4718750000000  0.4758920000000  0.5086320000000 1.0
C      1  0.4281340000000  0.4796210000000  0.4832370000000 1.0
C      1  0.4281310000000  0.5206930000000  0.4843820000000 1.0
C      1  0.4397660000000  0.5276380000000  0.5106330000000 1.0
C      1  0.4380040000000  0.4759790000000  0.5106830000000 1.0
C      1  0.4504360000000  0.5154540000000  0.4651730000000 1.0
C      1  0.4507790000000  0.4852060000000  0.4649610000000 1.0
C      1  0.5270910000000  0.4901390000000  0.4894970000000 1.0
C      1  0.5274480000000  0.5183630000000  0.4893370000000 1.0
C      1  0.5537220000000  0.5314060000000  0.4374600000000 1.0
C      1  0.5514950000000  0.4666520000000  0.4396000000000 1.0
C      1  0.5322500000000  0.5139080000000  0.4263050000000 1.0
C      1  0.5320510000000  0.4849740000000  0.4266360000000 1.0
C      1  0.4764710000000  0.5161370000000  0.4817500000000 1.0
C      1  0.4767750000000  0.4869890000000  0.4818860000000 1.0
C      1  0.5328020000000  0.5169770000000  0.5553630000000 1.0
C      1  0.5354390000000  0.4791010000000  0.5548160000000 1.0
C      1  0.4768740000000  0.5297500000000  0.4238230000000 1.0
C      1  0.4764110000000  0.4714580000000  0.4232460000000 1.0
C      1  0.5140220000000  0.4398430000000  0.5652120000000 1.0
C      1  0.5129760000000  0.5571300000000  0.5671330000000 1.0
C      1  0.5168950000000  0.4835180000000  0.5774800000000 1.0
C      1  0.5148820000000  0.5124460000000  0.5780070000000 1.0
C      1  0.5042990000000  0.4867890000000  0.4707400000000 1.0
C      1  0.5039810000000  0.5175510000000  0.4703300000000 1.0
C      1  0.5800480000000  0.4849450000000  0.5189700000000 1.0
C      1  0.5789000000000  0.5181290000000  0.5191540000000 1.0
C      1  0.4583880000000  0.4444120000000  0.5561020000000 1.0
C      1  0.4565990000000  0.5581260000000  0.5606090000000 1.0
C      1  0.4856030000000  0.4865880000000  0.5319780000000 1.0
C      1  0.4821960000000  0.5155860000000  0.5337280000000 1.0
C      1  0.5598720000000  0.4622370000000  0.5615870000000 1.0
C      1  0.5562660000000  0.5357100000000  0.5614870000000 1.0
C      1  0.4267380000000  0.4850800000000  0.5379610000000 1.0
C      1  0.4315000000000  0.5154860000000  0.5420670000000 1.0
C      1  0.5149620000000  0.4485950000000  0.4367960000000 1.0
C      1  0.5183420000000  0.5520650000000  0.4325570000000 1.0
C      1  0.5581830000000  0.4857680000000  0.4823710000000 1.0
C      1  0.5589880000000  0.5150730000000  0.4817220000000 1.0
C      1  0.5470500000000  0.4446070000000  0.4621300000000 1.0
C      1  0.5522420000000  0.5556850000000  0.4558670000000 1.0
C      1  0.4891900000000  0.5431020000000  0.5241230000000 1.0
C      1  0.4847730000000  0.4514660000000  0.5108920000000 1.0
C      1  0.4543270000000  0.5149790000000  0.4333880000000 1.0
C      1  0.4541670000000  0.4862450000000  0.4333510000000 1.0
C      1  0.4741730000000  0.4192240000000  0.4767500000000 1.0
C      1  0.4713900000000  0.5797380000000  0.4771080000000 1.0
C      1  0.5572950000000  0.5555660000000  0.4850540000000 1.0
C      1  0.5535890000000  0.4455490000000  0.4908230000000 1.0
C      1  0.4678150000000  0.4442050000000  0.4273280000000 1.0
C      1  0.4658890000000  0.5561220000000  0.4276910000000 1.0
C      1  0.4997100000000  0.4144590000000  0.4904750000000 1.0
C      1  0.4979040000000  0.5808230000000  0.4893600000000 1.0
C      1  0.4623900000000  0.5116980000000  0.5587890000000 1.0
C      1  0.4748600000000  0.4852720000000  0.5587240000000 1.0
C      1  0.5674630000000  0.5356340000000  0.5357710000000 1.0
C      1  0.5730890000000  0.4685170000000  0.5379370000000 1.0
C      1  0.4309600000000  0.5477000000000  0.4930920000000 1.0
C      1  0.4309240000000  0.4526530000000  0.4926030000000 1.0
C      1  0.5314260000000  0.4386570000000  0.5095520000000 1.0
C      1  0.5315190000000  0.5577060000000  0.4982840000000 1.0
C      1  0.5248280000000  0.4534360000000  0.5400140000000 1.0
C      1  0.5200100000000  0.5413110000000  0.5417200000000 1.0
C      1  0.5067070000000  0.4425370000000  0.4917880000000 1.0
C      1  0.5139800000000  0.5624880000000  0.4770710000000 1.0
C      1  0.4718330000000  0.4615830000000  0.5760350000000 1.0
C      1  0.4694850000000  0.5360910000000  0.5754610000000 1.0
C      1  0.5053860000000  0.5263880000000  0.4366460000000 1.0
C      1  0.5042270000000  0.4757870000000  0.4375660000000 1.0
C      1  0.4958110000000  0.5829840000000  0.5298160000000 1.0
C      1  0.4953090000000  0.4140990000000  0.5305000000000 1.0
C      1  0.4484060000000  0.4346160000000  0.4779640000000 1.0
C      1  0.4470900000000  0.5641040000000  0.4778520000000 1.0
C      1  0.5680810000000  0.4850170000000  0.4535520000000 1.0
C      1  0.5685900000000  0.5130270000000  0.4537580000000 1.0
C      1  0.5735020000000  0.4656880000000  0.4977880000000 1.0
C      1  0.5759360000000  0.5354720000000  0.4959840000000 1.0
C      1  0.5008340000000  0.4593200000000  0.5820320000000 1.0
C      1  0.4981980000000  0.5368140000000  0.5817520000000 1.0
END
