TITL C-2441166-8118-209 0.0905222297763003 125000 -26013.190825467 0 0 187 (C1) n - 1
REM
REM in /home/bkarasulu/work/CARBON/AIRSS/Generating-Clusters/ReaxFF-fromJPCA2015/Units_Real/with-SteepDescent/Higher-Symm
REM
REM
REM
REM
REM
REM ./C.cell (1df0a924f5614ab8850e4351716899ee)
REM
REM compiler GCC version 9.2.1 20190827 (Red Hat 9.2.1-1)
REM options -cpp -mtune=generic -march=x86-64 -g -O0 -fpre-include=/usr/include/finclude/math-vector-fortran.h
REM seed -1939555111 -999727308 1023702316 -1618345214 -853655510 -1871629629 1904129698 1252483440 -2140581547 -984498028 562171153 1974087035 602713183 283720593 911027565 -1792274400 -463752173 -1024186436 1557768010 -1726795426 1867569017 -1522784576 -1417878404 -679689649 508363931 -974363485 518502415 523418585 1658677030 2076698280 1970483762 -249329266 -1021725328
REM
CELL 1.54180   50.00000   50.00000   50.00000   90.00000   90.00000   90.00000
LATT -1
SFAC C  
C      1  0.4559280000000  0.4209130000000  0.5252530000000 1.0
C      1  0.5885730000000  0.4587630000000  0.4908300000000 1.0
C      1  0.5407650000000  0.5857430000000  0.5240240000000 1.0
C      1  0.4120340000000  0.5539390000000  0.4716520000000 1.0
C      1  0.5194110000000  0.5195920000000  0.5155410000000 1.0
C      1  0.4897640000000  0.5172140000000  0.4827690000000 1.0
C      1  0.4793420000000  0.4785480000000  0.5154870000000 1.0
C      1  0.5167580000000  0.4782930000000  0.4905560000000 1.0
C      1  0.5069800000000  0.5389780000000  0.5325310000000 1.0
C      1  0.4647330000000  0.5153680000000  0.4631390000000 1.0
C      1  0.4910330000000  0.4573030000000  0.5327850000000 1.0
C      1  0.5309520000000  0.4932150000000  0.4700880000000 1.0
C      1  0.5721060000000  0.4704130000000  0.5778190000000 1.0
C      1  0.5268160000000  0.5662970000000  0.4138920000000 1.0
C      1  0.4287130000000  0.5292340000000  0.5827370000000 1.0
C      1  0.4755690000000  0.4334810000000  0.4149450000000 1.0
C      1  0.5269410000000  0.4719220000000  0.5999060000000 1.0
C      1  0.5239660000000  0.5181530000000  0.3957770000000 1.0
C      1  0.4719470000000  0.5360550000000  0.6043040000000 1.0
C      1  0.4584210000000  0.4790430000000  0.3951980000000 1.0
C      1  0.4451260000000  0.4840400000000  0.5448950000000 1.0
C      1  0.5172680000000  0.4493580000000  0.4497830000000 1.0
C      1  0.5531270000000  0.5079850000000  0.5528080000000 1.0
C      1  0.4926120000000  0.5471890000000  0.4463560000000 1.0
C      1  0.5358120000000  0.4859110000000  0.5451850000000 1.0
C      1  0.5164930000000  0.5310700000000  0.4423510000000 1.0
C      1  0.4717690000000  0.5156560000000  0.5505450000000 1.0
C      1  0.4694410000000  0.4648630000000  0.4564200000000 1.0
C      1  0.3950970000000  0.5367810000000  0.5173070000000 1.0
C      1  0.4645980000000  0.3975230000000  0.4763990000000 1.0
C      1  0.6072000000000  0.4737890000000  0.5078080000000 1.0
C      1  0.5334610000000  0.6039700000000  0.4759090000000 1.0
C      1  0.4366390000000  0.5164940000000  0.5071860000000 1.0
C      1  0.4750520000000  0.4319150000000  0.5055860000000 1.0
C      1  0.5618190000000  0.4612740000000  0.5039160000000 1.0
C      1  0.5196130000000  0.5744700000000  0.5064420000000 1.0
C      1  0.5477510000000  0.4566300000000  0.5867900000000 1.0
C      1  0.5366310000000  0.5370550000000  0.4173940000000 1.0
C      1  0.4510010000000  0.5468120000000  0.5880990000000 1.0
C      1  0.4559310000000  0.4545080000000  0.4112390000000 1.0
C      1  0.6006530000000  0.5112240000000  0.4501630000000 1.0
C      1  0.4865230000000  0.6051730000000  0.5351150000000 1.0
C      1  0.3979690000000  0.4819340000000  0.4570080000000 1.0
C      1  0.5118310000000  0.3955600000000  0.5318410000000 1.0
C      1  0.4832200000000  0.4856680000000  0.6034790000000 1.0
C      1  0.5192070000000  0.4594660000000  0.3968350000000 1.0
C      1  0.5269590000000  0.5128740000000  0.6008460000000 1.0
C      1  0.4806350000000  0.5489830000000  0.3956820000000 1.0
C      1  0.5914170000000  0.4289700000000  0.4876770000000 1.0
C      1  0.5702510000000  0.5818550000000  0.5230930000000 1.0
C      1  0.4223060000000  0.5777270000000  0.4822410000000 1.0
C      1  0.4271310000000  0.4219110000000  0.5241820000000 1.0
C      1  0.5227990000000  0.6030020000000  0.4492850000000 1.0
C      1  0.3923920000000  0.5293580000000  0.5457530000000 1.0
C      1  0.4813430000000  0.3984060000000  0.4523820000000 1.0
C      1  0.6048700000000  0.4771050000000  0.5361180000000 1.0
C      1  0.4886970000000  0.4823690000000  0.4448410000000 1.0
C      1  0.5134300000000  0.4975920000000  0.5314480000000 1.0
C      1  0.5146390000000  0.5169180000000  0.4654380000000 1.0
C      1  0.4857680000000  0.4969390000000  0.5349680000000 1.0
C      1  0.5329940000000  0.3994440000000  0.5096800000000 1.0
C      1  0.5922800000000  0.5457830000000  0.5010690000000 1.0
C      1  0.4658950000000  0.5989090000000  0.5112940000000 1.0
C      1  0.4187120000000  0.4577380000000  0.5035450000000 1.0
C      1  0.4396850000000  0.5881240000000  0.5092870000000 1.0
C      1  0.4249410000000  0.4297100000000  0.4967130000000 1.0
C      1  0.5597270000000  0.4056570000000  0.5201980000000 1.0
C      1  0.5783150000000  0.5712710000000  0.4980660000000 1.0
C      1  0.5722300000000  0.4464260000000  0.4465640000000 1.0
C      1  0.5433080000000  0.5543740000000  0.5522950000000 1.0
C      1  0.4489290000000  0.5407450000000  0.4569270000000 1.0
C      1  0.4549570000000  0.4344050000000  0.5669130000000 1.0
C      1  0.4136710000000  0.4305060000000  0.4421010000000 1.0
C      1  0.5576030000000  0.4217950000000  0.5447280000000 1.0
C      1  0.5699140000000  0.5522700000000  0.4507800000000 1.0
C      1  0.4396340000000  0.5787680000000  0.5366770000000 1.0
C      1  0.4029930000000  0.4586700000000  0.5260050000000 1.0
C      1  0.5495610000000  0.4204960000000  0.4757750000000 1.0
C      1  0.5816920000000  0.5439400000000  0.5287130000000 1.0
C      1  0.4621570000000  0.5830030000000  0.4733020000000 1.0
C      1  0.4431050000000  0.4645080000000  0.4370310000000 1.0
C      1  0.5317230000000  0.4395250000000  0.5704910000000 1.0
C      1  0.5666910000000  0.5368110000000  0.4260270000000 1.0
C      1  0.4635780000000  0.5638580000000  0.5676300000000 1.0
C      1  0.4451660000000  0.4965970000000  0.4729100000000 1.0
C      1  0.5157160000000  0.4450130000000  0.5257100000000 1.0
C      1  0.5556500000000  0.5145320000000  0.4803380000000 1.0
C      1  0.4903880000000  0.5586330000000  0.5187720000000 1.0
C      1  0.4443910000000  0.4203480000000  0.4752690000000 1.0
C      1  0.5850210000000  0.4202450000000  0.5143630000000 1.0
C      1  0.5563200000000  0.5848380000000  0.4768190000000 1.0
C      1  0.4089260000000  0.5613100000000  0.5158470000000 1.0
C      1  0.4299260000000  0.4479210000000  0.5670430000000 1.0
C      1  0.5525480000000  0.4405620000000  0.4254440000000 1.0
C      1  0.5681730000000  0.5546190000000  0.5674540000000 1.0
C      1  0.4524320000000  0.5626020000000  0.4333720000000 1.0
C      1  0.4148070000000  0.5644340000000  0.5436790000000 1.0
C      1  0.4373400000000  0.4153790000000  0.4457000000000 1.0
C      1  0.5838910000000  0.4346250000000  0.5409580000000 1.0
C      1  0.5624020000000  0.5802660000000  0.4482570000000 1.0
C      1  0.5693170000000  0.4961210000000  0.5908050000000 1.0
C      1  0.4987660000000  0.5694390000000  0.4065720000000 1.0
C      1  0.4381590000000  0.5016490000000  0.5889010000000 1.0
C      1  0.5048890000000  0.4380870000000  0.4101510000000 1.0
C      1  0.3909360000000  0.4967630000000  0.4796770000000 1.0
C      1  0.4912110000000  0.3804860000000  0.5173350000000 1.0
C      1  0.6243100000000  0.5025710000000  0.4618110000000 1.0
C      1  0.5071460000000  0.6198520000000  0.5226240000000 1.0
C      1  0.5372570000000  0.5364730000000  0.5890790000000 1.0
C      1  0.4549770000000  0.5426950000000  0.4110640000000 1.0
C      1  0.4762180000000  0.4566940000000  0.6049440000000 1.0
C      1  0.5478870000000  0.4606910000000  0.4047640000000 1.0
C      1  0.5543470000000  0.5403450000000  0.5276940000000 1.0
C      1  0.4601330000000  0.5556090000000  0.4805050000000 1.0
C      1  0.4401180000000  0.4717630000000  0.5175560000000 1.0
C      1  0.5451570000000  0.4439460000000  0.4913260000000 1.0
C      1  0.4618820000000  0.5585150000000  0.5388420000000 1.0
C      1  0.4148330000000  0.4565370000000  0.4504780000000 1.0
C      1  0.5357310000000  0.4394050000000  0.5441280000000 1.0
C      1  0.5522980000000  0.5421950000000  0.4716890000000 1.0
C      1  0.5806630000000  0.4685970000000  0.4629810000000 1.0
C      1  0.5290910000000  0.5816100000000  0.5499870000000 1.0
C      1  0.4193900000000  0.5333980000000  0.4554990000000 1.0
C      1  0.4685820000000  0.4158970000000  0.5506290000000 1.0
C      1  0.6086610000000  0.4981170000000  0.4916960000000 1.0
C      1  0.5099430000000  0.6016560000000  0.4950570000000 1.0
C      1  0.4055160000000  0.5098330000000  0.5042100000000 1.0
C      1  0.4826320000000  0.4037270000000  0.4985740000000 1.0
C      1  0.4645470000000  0.4130780000000  0.4332750000000 1.0
C      1  0.5888240000000  0.4602050000000  0.5541860000000 1.0
C      1  0.5393960000000  0.5862030000000  0.4309520000000 1.0
C      1  0.4109920000000  0.5425120000000  0.5633500000000 1.0
C      1  0.6082870000000  0.5215600000000  0.5096510000000 1.0
C      1  0.4801110000000  0.6014980000000  0.4873200000000 1.0
C      1  0.3982610000000  0.4861880000000  0.5239660000000 1.0
C      1  0.5293600000000  0.3997580000000  0.4803870000000 1.0
C      1  0.4915300000000  0.4655720000000  0.5614570000000 1.0
C      1  0.5201340000000  0.4780470000000  0.4452740000000 1.0
C      1  0.4964590000000  0.5299750000000  0.5574090000000 1.0
C      1  0.4793470000000  0.5097640000000  0.4395530000000 1.0
C      1  0.4223080000000  0.5023260000000  0.4545000000000 1.0
C      1  0.4968140000000  0.4106850000000  0.5535140000000 1.0
C      1  0.5818060000000  0.4969750000000  0.4700400000000 1.0
C      1  0.5017040000000  0.5891610000000  0.5564200000000 1.0
C      1  0.5083660000000  0.4229530000000  0.5779180000000 1.0
C      1  0.5854570000000  0.5153320000000  0.4229640000000 1.0
C      1  0.4870770000000  0.5765160000000  0.5785290000000 1.0
C      1  0.4279830000000  0.4896380000000  0.4283820000000 1.0
C      1  0.5831740000000  0.5672960000000  0.5464070000000 1.0
C      1  0.4380470000000  0.5813010000000  0.4572170000000 1.0
C      1  0.4147040000000  0.4396580000000  0.5440790000000 1.0
C      1  0.5760710000000  0.4227990000000  0.4640620000000 1.0
C      1  0.4482320000000  0.5275020000000  0.5328910000000 1.0
C      1  0.4709490000000  0.4435670000000  0.4770250000000 1.0
C      1  0.5567230000000  0.4765800000000  0.5263520000000 1.0
C      1  0.5302330000000  0.5610090000000  0.4808060000000 1.0
C      1  0.4343900000000  0.4772110000000  0.5714420000000 1.0
C      1  0.5253880000000  0.4293890000000  0.4302350000000 1.0
C      1  0.5632230000000  0.5226750000000  0.5761970000000 1.0
C      1  0.4814600000000  0.5746310000000  0.4312320000000 1.0
C      1  0.4715010000000  0.4535450000000  0.5756880000000 1.0
C      1  0.5439750000000  0.4832920000000  0.4232200000000 1.0
C      1  0.5103280000000  0.5419810000000  0.5792550000000 1.0
C      1  0.4609830000000  0.5181560000000  0.4196560000000 1.0
C      1  0.5191540000000  0.4496840000000  0.4966820000000 1.0
C      1  0.5465260000000  0.5219990000000  0.5083000000000 1.0
C      1  0.4793190000000  0.5430210000000  0.4967960000000 1.0
C      1  0.4476450000000  0.4930920000000  0.5001420000000 1.0
C      1  0.5054820000000  0.5656140000000  0.4639380000000 1.0
C      1  0.4306420000000  0.5091310000000  0.5483480000000 1.0
C      1  0.5017230000000  0.4358540000000  0.4700850000000 1.0
C      1  0.5716300000000  0.4999230000000  0.5343770000000 1.0
C      1  0.5660720000000  0.4958760000000  0.4175070000000 1.0
C      1  0.4934880000000  0.5540480000000  0.5964770000000 1.0
C      1  0.4431340000000  0.5033510000000  0.4072680000000 1.0
C      1  0.4945830000000  0.4336550000000  0.6021110000000 1.0
C      1  0.4852740000000  0.4843820000000  0.3936140000000 1.0
C      1  0.5458410000000  0.4932800000000  0.6086590000000 1.0
C      1  0.5008620000000  0.5301990000000  0.3917230000000 1.0
C      1  0.4636720000000  0.5074430000000  0.6022020000000 1.0
C      1  0.4961760000000  0.5906870000000  0.4524280000000 1.0
C      1  0.4024240000000  0.5024790000000  0.5470980000000 1.0
C      1  0.5081610000000  0.4077070000000  0.4610700000000 1.0
C      1  0.6003010000000  0.5057470000000  0.5330490000000 1.0
C      1  0.5116020000000  0.4891350000000  0.3932490000000 1.0
C      1  0.5041560000000  0.4823940000000  0.5829070000000 1.0
C      1  0.4934630000000  0.4900280000000  0.4945390000000 1.0
END
