TITL C-2441159-1093-1403 0.0190252997152013 125000 -635.908274374894 0 0 8 (Oh) n - 1
REM
REM in /home/bkarasulu/work/CARBON/AIRSS/Generating-Clusters/ReaxFF-fromJPCA2015/Units_Real/with-SteepDescent/Higher-Symm
REM
REM
REM
REM
REM
REM ./C.cell (1df0a924f5614ab8850e4351716899ee)
REM
REM compiler GCC version 9.2.1 20190827 (Red Hat 9.2.1-1)
REM options -cpp -mtune=generic -march=x86-64 -g -O0 -fpre-include=/usr/include/finclude/math-vector-fortran.h
REM seed 553714338 -440534317 369904820 -237289428 -1824646492 1378543995 -465105075 -1139527844 -488599333 1887640417 56580887 2045342992 -1252507624 427370059 2127069466 -735680129 1088364605 -2019834363 -601280006 -1333441669 367102004 -652356626 -1234256466 684378979 766336790 -2147430223 -907660407 -162464412 117815878 -2085630886 1598148227 -1702273089 1504697380
REM
CELL 1.54180   50.00000   50.00000   50.00000   90.00000   90.00000   90.00000
LATT -1
SFAC C  
C      1  0.5151320000000  0.5171440000000  0.4833220000000 1.0
C      1  0.4858010000000  0.4869850000000  0.5134820000000 1.0
C      1  0.5151320000000  0.4869850000000  0.5134820000000 1.0
C      1  0.4858010000000  0.5171440000000  0.5134820000000 1.0
C      1  0.4858010000000  0.5171440000000  0.4833220000000 1.0
C      1  0.5151320000000  0.4869850000000  0.4833220000000 1.0
C      1  0.4858010000000  0.4869850000000  0.4833220000000 1.0
C      1  0.5151320000000  0.5171440000000  0.5134820000000 1.0
END
