TITL C-2441166-8118-1404 0.158668544678556 125000 -21585.498244397 0 0 172 (C1) n - 1
REM
REM in /home/bkarasulu/work/CARBON/AIRSS/Generating-Clusters/ReaxFF-fromJPCA2015/Units_Real/with-SteepDescent/Higher-Symm
REM
REM
REM
REM
REM
REM ./C.cell (1df0a924f5614ab8850e4351716899ee)
REM
REM compiler GCC version 9.2.1 20190827 (Red Hat 9.2.1-1)
REM options -cpp -mtune=generic -march=x86-64 -g -O0 -fpre-include=/usr/include/finclude/math-vector-fortran.h
REM seed -946273208 -740451440 485890057 -1275554253 -2032503572 144133376 -1207412341 -734826601 -976531199 1576154934 443353311 1009077525 -242558446 -1334614595 548332449 342184281 -299516954 -2085618745 439103838 49542256 163828983 -537009874 -1309882532 1666804827 251436399 1315020974 194024891 -568459242 -807414386 1619328090 -595691935 1644013564 -72041662
REM
CELL 1.54180   50.00000   50.00000   50.00000   90.00000   90.00000   90.00000
LATT -1
SFAC C  
C      1  0.5274580000000  0.4807950000000  0.5970380000000 1.0
C      1  0.5320000000000  0.5094610000000  0.5965580000000 1.0
C      1  0.5128540000000  0.5311100000000  0.5965020000000 1.0
C      1  0.4835290000000  0.5291260000000  0.5963130000000 1.0
C      1  0.4671930000000  0.5051540000000  0.5970990000000 1.0
C      1  0.4753720000000  0.4772770000000  0.5978150000000 1.0
C      1  0.5022710000000  0.4659990000000  0.5967740000000 1.0
C      1  0.5025020000000  0.5589880000000  0.5256930000000 1.0
C      1  0.4594220000000  0.5369490000000  0.5205830000000 1.0
C      1  0.4428150000000  0.4884980000000  0.5385330000000 1.0
C      1  0.4730480000000  0.4562120000000  0.5220130000000 1.0
C      1  0.5250190000000  0.4478410000000  0.5293760000000 1.0
C      1  0.5530630000000  0.4902450000000  0.5320270000000 1.0
C      1  0.5457480000000  0.5317350000000  0.5336310000000 1.0
C      1  0.5253160000000  0.5953150000000  0.4541510000000 1.0
C      1  0.4583210000000  0.5840640000000  0.4640230000000 1.0
C      1  0.4064430000000  0.5231080000000  0.4618380000000 1.0
C      1  0.4279270000000  0.4381580000000  0.4629510000000 1.0
C      1  0.5138460000000  0.4032130000000  0.4546040000000 1.0
C      1  0.5857470000000  0.4497560000000  0.4567290000000 1.0
C      1  0.5875810000000  0.5304650000000  0.4522990000000 1.0
C      1  0.5493110000000  0.5334860000000  0.4678310000000 1.0
C      1  0.5038840000000  0.5624290000000  0.4747030000000 1.0
C      1  0.4496820000000  0.5409170000000  0.4773740000000 1.0
C      1  0.4351540000000  0.4862560000000  0.4732120000000 1.0
C      1  0.4714800000000  0.4439250000000  0.4769700000000 1.0
C      1  0.5253540000000  0.4404450000000  0.4804310000000 1.0
C      1  0.5611930000000  0.4825130000000  0.4757820000000 1.0
C      1  0.4510910000000  0.4097780000000  0.5084500000000 1.0
C      1  0.5415920000000  0.4009780000000  0.5088370000000 1.0
C      1  0.6000050000000  0.4634800000000  0.5074520000000 1.0
C      1  0.5831290000000  0.5556200000000  0.5072590000000 1.0
C      1  0.5057990000000  0.6021950000000  0.5060200000000 1.0
C      1  0.4213920000000  0.5730890000000  0.5098690000000 1.0
C      1  0.3929570000000  0.4884680000000  0.5054850000000 1.0
C      1  0.5035180000000  0.4417080000000  0.5832360000000 1.0
C      1  0.5483100000000  0.4670460000000  0.5842370000000 1.0
C      1  0.5561840000000  0.5160430000000  0.5834350000000 1.0
C      1  0.5246200000000  0.5529710000000  0.5836590000000 1.0
C      1  0.4704870000000  0.5498780000000  0.5830830000000 1.0
C      1  0.4423410000000  0.5098330000000  0.5843640000000 1.0
C      1  0.4556070000000  0.4613940000000  0.5855620000000 1.0
C      1  0.5553140000000  0.5920100000000  0.5154220000000 1.0
C      1  0.4606590000000  0.6000520000000  0.5179490000000 1.0
C      1  0.4122690000000  0.5463900000000  0.5107050000000 1.0
C      1  0.4101750000000  0.4406810000000  0.5127350000000 1.0
C      1  0.4967240000000  0.3872820000000  0.5095430000000 1.0
C      1  0.5620130000000  0.4208940000000  0.5076790000000 1.0
C      1  0.6068400000000  0.5153100000000  0.5068640000000 1.0
C      1  0.4999850000000  0.5905450000000  0.4401070000000 1.0
C      1  0.4355700000000  0.5539230000000  0.4348020000000 1.0
C      1  0.4170010000000  0.4839750000000  0.4373990000000 1.0
C      1  0.4550630000000  0.4235940000000  0.4353210000000 1.0
C      1  0.5366000000000  0.4113950000000  0.4392240000000 1.0
C      1  0.5890960000000  0.4755780000000  0.4445790000000 1.0
C      1  0.5747490000000  0.5535720000000  0.4400840000000 1.0
C      1  0.5046940000000  0.5373650000000  0.5077710000000 1.0
C      1  0.4677520000000  0.5109830000000  0.5063730000000 1.0
C      1  0.4455940000000  0.4946200000000  0.5128070000000 1.0
C      1  0.4906930000000  0.4725400000000  0.5066020000000 1.0
C      1  0.5159540000000  0.4685140000000  0.5133440000000 1.0
C      1  0.5351330000000  0.4865980000000  0.5101160000000 1.0
C      1  0.5291840000000  0.5274960000000  0.5088780000000 1.0
C      1  0.6019280000000  0.4892050000000  0.4948480000000 1.0
C      1  0.5594480000000  0.5691400000000  0.4968250000000 1.0
C      1  0.4864200000000  0.5788780000000  0.5098840000000 1.0
C      1  0.4351010000000  0.5324470000000  0.5021670000000 1.0
C      1  0.4032740000000  0.4646900000000  0.4955970000000 1.0
C      1  0.4818440000000  0.4147900000000  0.5099280000000 1.0
C      1  0.5444320000000  0.4437040000000  0.5056490000000 1.0
C      1  0.5938030000000  0.5345440000000  0.4880930000000 1.0
C      1  0.5266330000000  0.5967760000000  0.4856030000000 1.0
C      1  0.4454740000000  0.5824930000000  0.4941710000000 1.0
C      1  0.3993470000000  0.5104840000000  0.4874410000000 1.0
C      1  0.4345510000000  0.4291460000000  0.4930510000000 1.0
C      1  0.5174180000000  0.3966040000000  0.4889900000000 1.0
C      1  0.5873440000000  0.4449560000000  0.4873970000000 1.0
C      1  0.4153480000000  0.4647650000000  0.4675780000000 1.0
C      1  0.4727100000000  0.4206210000000  0.4591690000000 1.0
C      1  0.5460250000000  0.4274710000000  0.4616190000000 1.0
C      1  0.5873410000000  0.4933470000000  0.4682190000000 1.0
C      1  0.5581610000000  0.5630020000000  0.4628600000000 1.0
C      1  0.4865720000000  0.5868450000000  0.4665030000000 1.0
C      1  0.4247260000000  0.5459600000000  0.4608200000000 1.0
C      1  0.5975040000000  0.4611110000000  0.5377520000000 1.0
C      1  0.5859940000000  0.5511370000000  0.5353010000000 1.0
C      1  0.5112360000000  0.6031040000000  0.5352120000000 1.0
C      1  0.4264980000000  0.5756080000000  0.5384890000000 1.0
C      1  0.3945840000000  0.4909340000000  0.5362740000000 1.0
C      1  0.4445450000000  0.4126060000000  0.5366320000000 1.0
C      1  0.5338120000000  0.4014360000000  0.5367230000000 1.0
C      1  0.5789610000000  0.5140090000000  0.4325760000000 1.0
C      1  0.5378110000000  0.5715370000000  0.4440340000000 1.0
C      1  0.4590600000000  0.5716610000000  0.4379550000000 1.0
C      1  0.4181230000000  0.5122030000000  0.4366390000000 1.0
C      1  0.4369980000000  0.4454310000000  0.4377810000000 1.0
C      1  0.4965180000000  0.4231700000000  0.4420450000000 1.0
C      1  0.5603460000000  0.4451220000000  0.4440240000000 1.0
C      1  0.3915550000000  0.5157560000000  0.5477190000000 1.0
C      1  0.4199460000000  0.4274610000000  0.5387000000000 1.0
C      1  0.5061260000000  0.3930180000000  0.5365110000000 1.0
C      1  0.5801990000000  0.4437370000000  0.5495500000000 1.0
C      1  0.5968630000000  0.5245430000000  0.5324290000000 1.0
C      1  0.5400150000000  0.6009590000000  0.5387310000000 1.0
C      1  0.4445110000000  0.5957560000000  0.5407900000000 1.0
C      1  0.5293210000000  0.5370770000000  0.4128420000000 1.0
C      1  0.4965740000000  0.5459610000000  0.4115450000000 1.0
C      1  0.4647120000000  0.5304990000000  0.4084740000000 1.0
C      1  0.4605000000000  0.4798980000000  0.4108860000000 1.0
C      1  0.4805100000000  0.4585710000000  0.4091120000000 1.0
C      1  0.5312720000000  0.4607180000000  0.4124450000000 1.0
C      1  0.5458670000000  0.4857310000000  0.4107230000000 1.0
C      1  0.5509730000000  0.5440670000000  0.5753510000000 1.0
C      1  0.4972410000000  0.5636760000000  0.5716570000000 1.0
C      1  0.4451220000000  0.5388280000000  0.5745180000000 1.0
C      1  0.4355920000000  0.4814980000000  0.5786220000000 1.0
C      1  0.4749840000000  0.4408250000000  0.5719210000000 1.0
C      1  0.5312180000000  0.4431060000000  0.5715480000000 1.0
C      1  0.5663810000000  0.4881020000000  0.5763240000000 1.0
C      1  0.5274700000000  0.5198430000000  0.4813940000000 1.0
C      1  0.4971760000000  0.5345010000000  0.4807590000000 1.0
C      1  0.4701110000000  0.5190200000000  0.4779140000000 1.0
C      1  0.4629860000000  0.4900890000000  0.4667970000000 1.0
C      1  0.4870220000000  0.4681660000000  0.4763730000000 1.0
C      1  0.5162460000000  0.4672140000000  0.4703460000000 1.0
C      1  0.5333610000000  0.4911510000000  0.4815770000000 1.0
C      1  0.4377340000000  0.5302200000000  0.4182230000000 1.0
C      1  0.4352430000000  0.4700480000000  0.4200490000000 1.0
C      1  0.4786910000000  0.4305270000000  0.4190300000000 1.0
C      1  0.5431890000000  0.4365790000000  0.4210770000000 1.0
C      1  0.5736020000000  0.4890690000000  0.4220930000000 1.0
C      1  0.5493490000000  0.5548700000000  0.4227670000000 1.0
C      1  0.4858560000000  0.5711100000000  0.4235480000000 1.0
C      1  0.4945870000000  0.5902350000000  0.5553860000000 1.0
C      1  0.4267210000000  0.5520720000000  0.5558890000000 1.0
C      1  0.4167830000000  0.4752640000000  0.5517490000000 1.0
C      1  0.4671610000000  0.4180170000000  0.5540920000000 1.0
C      1  0.5460740000000  0.4209580000000  0.5548700000000 1.0
C      1  0.5889720000000  0.4826090000000  0.5572280000000 1.0
C      1  0.5668130000000  0.5599130000000  0.5556830000000 1.0
C      1  0.4975450000000  0.5442190000000  0.5505150000000 1.0
C      1  0.4759710000000  0.5225060000000  0.5464030000000 1.0
C      1  0.4664920000000  0.4906040000000  0.5546030000000 1.0
C      1  0.4809090000000  0.4651890000000  0.5489230000000 1.0
C      1  0.5161470000000  0.4640220000000  0.5516240000000 1.0
C      1  0.5317110000000  0.4894280000000  0.5519450000000 1.0
C      1  0.5241070000000  0.5182150000000  0.5517600000000 1.0
C      1  0.4644350000000  0.5599830000000  0.5012810000000 1.0
C      1  0.4270530000000  0.5041190000000  0.4949800000000 1.0
C      1  0.4557560000000  0.4493980000000  0.5000960000000 1.0
C      1  0.5044130000000  0.4226690000000  0.4904350000000 1.0
C      1  0.5631270000000  0.4601870000000  0.4917570000000 1.0
C      1  0.5653880000000  0.5218980000000  0.4899710000000 1.0
C      1  0.5257260000000  0.5684510000000  0.4931030000000 1.0
C      1  0.4983860000000  0.5352480000000  0.4384600000000 1.0
C      1  0.4727470000000  0.5250730000000  0.4345800000000 1.0
C      1  0.4648640000000  0.4979880000000  0.4345630000000 1.0
C      1  0.4951190000000  0.4669250000000  0.4321190000000 1.0
C      1  0.5213430000000  0.4685150000000  0.4413320000000 1.0
C      1  0.5352860000000  0.4945760000000  0.4358040000000 1.0
C      1  0.5293850000000  0.5228760000000  0.4388920000000 1.0
C      1  0.4687310000000  0.5876130000000  0.5457410000000 1.0
C      1  0.4083080000000  0.5367330000000  0.5386740000000 1.0
C      1  0.4210530000000  0.4526810000000  0.5370430000000 1.0
C      1  0.4887870000000  0.4145230000000  0.5379180000000 1.0
C      1  0.5664830000000  0.4252600000000  0.5362000000000 1.0
C      1  0.5784080000000  0.5030360000000  0.5391130000000 1.0
C      1  0.5511840000000  0.5767260000000  0.5397830000000 1.0
C      1  0.4898100000000  0.4980560000000  0.5132400000000 1.0
C      1  0.4909160000000  0.4911740000000  0.4349990000000 1.0
C      1  0.4989360000000  0.5064070000000  0.5367010000000 1.0
C      1  0.5024520000000  0.5023050000000  0.4577110000000 1.0
END
