TITL C-2441163-1170-1176 0.134384398523678 125000 -18193.9350433643 0 0 144 (C1) n - 1
REM
REM in /home/bkarasulu/work/CARBON/AIRSS/Generating-Clusters/ReaxFF-fromJPCA2015/Units_Real/with-SteepDescent/Higher-Symm
REM
REM
REM
REM
REM
REM ./C.cell (1df0a924f5614ab8850e4351716899ee)
REM
REM compiler GCC version 9.2.1 20190827 (Red Hat 9.2.1-1)
REM options -cpp -mtune=generic -march=x86-64 -g -O0 -fpre-include=/usr/include/finclude/math-vector-fortran.h
REM seed 1784250983 -129069241 417130384 -1779420045 -39270147 -812072272 -1294526955 2113615232 1274707111 457420988 -943846709 1605770395 1613028046 284612157 -39757763 1521619038 -584872847 1944134977 230127950 806362693 -500658736 461416539 368949820 2017277973 -1221500759 595411718 493846501 2133140527 -1847253798 -568247238 -1596228215 -1154977575 2144672252
REM
CELL 1.54180   50.00000   50.00000   50.00000   90.00000   90.00000   90.00000
LATT -1
SFAC C  
C      1  0.4492630000000  0.5138960000000  0.4459510000000 1.0
C      1  0.5507280000000  0.5122420000000  0.5531790000000 1.0
C      1  0.4486060000000  0.5135030000000  0.5540340000000 1.0
C      1  0.5506660000000  0.5127780000000  0.4462470000000 1.0
C      1  0.4398930000000  0.4326660000000  0.5154760000000 1.0
C      1  0.5590220000000  0.4333640000000  0.4847260000000 1.0
C      1  0.4427160000000  0.4345110000000  0.4861480000000 1.0
C      1  0.5600980000000  0.4332570000000  0.5140600000000 1.0
C      1  0.5786070000000  0.5576940000000  0.5397670000000 1.0
C      1  0.4204400000000  0.5554820000000  0.4590390000000 1.0
C      1  0.5791940000000  0.5569780000000  0.4607520000000 1.0
C      1  0.4196530000000  0.5557420000000  0.5405760000000 1.0
C      1  0.4063520000000  0.5289860000000  0.4594480000000 1.0
C      1  0.5929450000000  0.5308960000000  0.5413920000000 1.0
C      1  0.4059520000000  0.5289980000000  0.5407880000000 1.0
C      1  0.5924070000000  0.5303820000000  0.4589590000000 1.0
C      1  0.4398580000000  0.4521390000000  0.4497590000000 1.0
C      1  0.5565730000000  0.4534570000000  0.5510510000000 1.0
C      1  0.4420470000000  0.4523330000000  0.5515590000000 1.0
C      1  0.5579020000000  0.4530100000000  0.4487010000000 1.0
C      1  0.4869680000000  0.5232940000000  0.5763110000000 1.0
C      1  0.5137460000000  0.5235710000000  0.4238130000000 1.0
C      1  0.4867140000000  0.5237370000000  0.4240120000000 1.0
C      1  0.5138780000000  0.5246410000000  0.5769570000000 1.0
C      1  0.5596780000000  0.4689220000000  0.5750080000000 1.0
C      1  0.4397820000000  0.4684850000000  0.4257520000000 1.0
C      1  0.5590210000000  0.4692430000000  0.4244240000000 1.0
C      1  0.4412350000000  0.4689460000000  0.5752790000000 1.0
C      1  0.4767410000000  0.4997850000000  0.4506110000000 1.0
C      1  0.5230110000000  0.4976590000000  0.5496780000000 1.0
C      1  0.4781480000000  0.4996320000000  0.5500010000000 1.0
C      1  0.5224770000000  0.4982870000000  0.4504630000000 1.0
C      1  0.4569000000000  0.4905490000000  0.4866720000000 1.0
C      1  0.5434520000000  0.4911030000000  0.5132440000000 1.0
C      1  0.4564220000000  0.4913820000000  0.5145720000000 1.0
C      1  0.5441520000000  0.4917050000000  0.4854680000000 1.0
C      1  0.4854140000000  0.5344700000000  0.5152700000000 1.0
C      1  0.5145000000000  0.5344560000000  0.4845360000000 1.0
C      1  0.4838630000000  0.5331440000000  0.4852540000000 1.0
C      1  0.5155630000000  0.5335060000000  0.5147440000000 1.0
C      1  0.5531700000000  0.5120660000000  0.4149310000000 1.0
C      1  0.4471310000000  0.5115660000000  0.5850790000000 1.0
C      1  0.5543880000000  0.5118100000000  0.5838390000000 1.0
C      1  0.4472190000000  0.5117810000000  0.4152820000000 1.0
C      1  0.5338060000000  0.4387080000000  0.4360770000000 1.0
C      1  0.4652940000000  0.4376110000000  0.5635380000000 1.0
C      1  0.5340660000000  0.4384250000000  0.5636910000000 1.0
C      1  0.4637280000000  0.4366220000000  0.4372870000000 1.0
C      1  0.5277240000000  0.5067260000000  0.5934030000000 1.0
C      1  0.4732330000000  0.5055990000000  0.4047330000000 1.0
C      1  0.5266130000000  0.5063380000000  0.4055610000000 1.0
C      1  0.4735150000000  0.5061770000000  0.5949330000000 1.0
C      1  0.5819960000000  0.5059580000000  0.5532780000000 1.0
C      1  0.4201370000000  0.5065620000000  0.4460100000000 1.0
C      1  0.5810200000000  0.5070240000000  0.4453570000000 1.0
C      1  0.4190020000000  0.5064350000000  0.5549270000000 1.0
C      1  0.4440270000000  0.5580040000000  0.4413990000000 1.0
C      1  0.5555260000000  0.5589830000000  0.5585520000000 1.0
C      1  0.4434080000000  0.5582370000000  0.5588190000000 1.0
C      1  0.5559280000000  0.5588380000000  0.4418710000000 1.0
C      1  0.4708500000000  0.5690430000000  0.5584820000000 1.0
C      1  0.5286910000000  0.5693160000000  0.4411070000000 1.0
C      1  0.4713260000000  0.5696650000000  0.4411920000000 1.0
C      1  0.5282200000000  0.5697600000000  0.5587040000000 1.0
C      1  0.4776800000000  0.5081290000000  0.5234270000000 1.0
C      1  0.5222740000000  0.5074030000000  0.4768760000000 1.0
C      1  0.4786660000000  0.5058290000000  0.4778820000000 1.0
C      1  0.5222760000000  0.5065960000000  0.5229570000000 1.0
C      1  0.5154230000000  0.4227800000000  0.5246550000000 1.0
C      1  0.4844950000000  0.4219470000000  0.4758130000000 1.0
C      1  0.5148590000000  0.4222660000000  0.4747370000000 1.0
C      1  0.4845250000000  0.4221490000000  0.5242850000000 1.0
C      1  0.5408290000000  0.4111990000000  0.5141820000000 1.0
C      1  0.4593740000000  0.4107870000000  0.4862550000000 1.0
C      1  0.5398820000000  0.4110910000000  0.4855520000000 1.0
C      1  0.4589230000000  0.4104590000000  0.5145800000000 1.0
C      1  0.5536730000000  0.5795940000000  0.5147630000000 1.0
C      1  0.4466950000000  0.5801960000000  0.4854810000000 1.0
C      1  0.5539870000000  0.5791050000000  0.4851760000000 1.0
C      1  0.4475280000000  0.5795780000000  0.5143530000000 1.0
C      1  0.5591580000000  0.4727790000000  0.5296210000000 1.0
C      1  0.4400780000000  0.4752390000000  0.4688050000000 1.0
C      1  0.5613400000000  0.4741090000000  0.4690620000000 1.0
C      1  0.4389500000000  0.4737780000000  0.5308100000000 1.0
C      1  0.4853950000000  0.5538020000000  0.5779290000000 1.0
C      1  0.5145110000000  0.5535440000000  0.4216850000000 1.0
C      1  0.4859550000000  0.5539030000000  0.4217580000000 1.0
C      1  0.5140400000000  0.5545130000000  0.5788360000000 1.0
C      1  0.5320850000000  0.4613990000000  0.4179060000000 1.0
C      1  0.4708940000000  0.4626250000000  0.5780470000000 1.0
C      1  0.5331690000000  0.4599580000000  0.5842950000000 1.0
C      1  0.4694280000000  0.4619850000000  0.4233330000000 1.0
C      1  0.5144060000000  0.4549440000000  0.4804560000000 1.0
C      1  0.4854500000000  0.4538730000000  0.5149490000000 1.0
C      1  0.5143980000000  0.4548890000000  0.5185560000000 1.0
C      1  0.4856600000000  0.4537500000000  0.4852860000000 1.0
C      1  0.4399950000000  0.5509820000000  0.4810340000000 1.0
C      1  0.5584310000000  0.5502460000000  0.5193610000000 1.0
C      1  0.4399930000000  0.5508410000000  0.5191980000000 1.0
C      1  0.5588850000000  0.5497070000000  0.4811510000000 1.0
C      1  0.5143300000000  0.4803350000000  0.4065680000000 1.0
C      1  0.4863510000000  0.4807000000000  0.5942560000000 1.0
C      1  0.5148120000000  0.4809700000000  0.5931220000000 1.0
C      1  0.4858280000000  0.4797390000000  0.4059610000000 1.0
C      1  0.4124710000000  0.4736820000000  0.4750580000000 1.0
C      1  0.5875660000000  0.4714000000000  0.5250350000000 1.0
C      1  0.4108590000000  0.4717780000000  0.5233600000000 1.0
C      1  0.5895050000000  0.4723580000000  0.4759000000000 1.0
C      1  0.5743350000000  0.4932620000000  0.4203600000000 1.0
C      1  0.4257590000000  0.4928260000000  0.5799040000000 1.0
C      1  0.5752970000000  0.4927910000000  0.5785260000000 1.0
C      1  0.4260090000000  0.4931370000000  0.4210940000000 1.0
C      1  0.4759770000000  0.5867490000000  0.5139020000000 1.0
C      1  0.5256510000000  0.5867280000000  0.4851140000000 1.0
C      1  0.4748060000000  0.5872030000000  0.4851100000000 1.0
C      1  0.5252930000000  0.5872480000000  0.5140350000000 1.0
C      1  0.3967760000000  0.4968780000000  0.5151330000000 1.0
C      1  0.6026380000000  0.4956350000000  0.4877000000000 1.0
C      1  0.3973610000000  0.4970450000000  0.4845840000000 1.0
C      1  0.6023360000000  0.4968580000000  0.5178800000000 1.0
C      1  0.4128390000000  0.5213360000000  0.4863000000000 1.0
C      1  0.5873060000000  0.5221480000000  0.5146900000000 1.0
C      1  0.4131490000000  0.5208310000000  0.5141300000000 1.0
C      1  0.5885190000000  0.5208580000000  0.4859940000000 1.0
C      1  0.5870410000000  0.4443040000000  0.4857090000000 1.0
C      1  0.4125850000000  0.4450100000000  0.5112600000000 1.0
C      1  0.5874220000000  0.4439770000000  0.5148510000000 1.0
C      1  0.4150160000000  0.4453330000000  0.4816220000000 1.0
C      1  0.4854320000000  0.4212380000000  0.5532480000000 1.0
C      1  0.5137560000000  0.4209480000000  0.4456790000000 1.0
C      1  0.4850890000000  0.4210220000000  0.4470870000000 1.0
C      1  0.5139820000000  0.4208060000000  0.5538560000000 1.0
C      1  0.4860900000000  0.5652620000000  0.5315520000000 1.0
C      1  0.5134600000000  0.5677090000000  0.4673810000000 1.0
C      1  0.4863880000000  0.5722270000000  0.4655350000000 1.0
C      1  0.5141500000000  0.5683700000000  0.5328910000000 1.0
C      1  0.5443070000000  0.5376060000000  0.5410890000000 1.0
C      1  0.4560760000000  0.5378310000000  0.4603050000000 1.0
C      1  0.5446610000000  0.5375580000000  0.4592090000000 1.0
C      1  0.4547960000000  0.5377650000000  0.5405190000000 1.0
C      1  0.4844390000000  0.4715290000000  0.4523790000000 1.0
C      1  0.5134460000000  0.4707390000000  0.5435930000000 1.0
C      1  0.4849560000000  0.4713320000000  0.5480870000000 1.0
C      1  0.5132170000000  0.4708780000000  0.4556430000000 1.0
END
