TITL C-2441159-1093-173 0.0316504639039595 125000 -13958.9336014122 0 0 100 (C1) n - 1
REM
REM in /home/bkarasulu/work/CARBON/AIRSS/Generating-Clusters/ReaxFF-fromJPCA2015/Units_Real/with-SteepDescent/Higher-Symm
REM
REM
REM
REM
REM
REM ./C.cell (1df0a924f5614ab8850e4351716899ee)
REM
REM compiler GCC version 9.2.1 20190827 (Red Hat 9.2.1-1)
REM options -cpp -mtune=generic -march=x86-64 -g -O0 -fpre-include=/usr/include/finclude/math-vector-fortran.h
REM seed 1554895301 54519034 1265618734 1965666900 -1761983002 14992092 -204360848 1721566721 -1188035928 1683489288 271902196 1912438816 1097703498 1849868261 -465069663 263741520 1203852991 2097855748 758082044 -2100106540 -1963358950 -576123705 -1280329266 -538754028 1998496573 -402108499 -1453645717 1549167801 -1162942026 244634517 586348339 -1214480959 -300732506
REM
CELL 1.54180   50.00000   50.00000   50.00000   90.00000   90.00000   90.00000
LATT -1
SFAC C  
C      1  0.4504790000000  0.5641750000000  0.5052500000000 1.0
C      1  0.4952790000000  0.5330160000000  0.5079620000000 1.0
C      1  0.5018930000000  0.5139780000000  0.5882660000000 1.0
C      1  0.5301940000000  0.4556710000000  0.5017770000000 1.0
C      1  0.5711430000000  0.5166080000000  0.5499760000000 1.0
C      1  0.4665000000000  0.4562160000000  0.5647570000000 1.0
C      1  0.5215990000000  0.4413320000000  0.4501260000000 1.0
C      1  0.4853520000000  0.5791050000000  0.5255320000000 1.0
C      1  0.5738840000000  0.4602450000000  0.4975050000000 1.0
C      1  0.5360240000000  0.5548110000000  0.5643670000000 1.0
C      1  0.4158700000000  0.5043580000000  0.5342410000000 1.0
C      1  0.5370130000000  0.5760490000000  0.5007900000000 1.0
C      1  0.4213320000000  0.5327780000000  0.4566550000000 1.0
C      1  0.4606940000000  0.4768330000000  0.5830030000000 1.0
C      1  0.5086720000000  0.4685890000000  0.5185990000000 1.0
C      1  0.5681930000000  0.5147620000000  0.4399600000000 1.0
C      1  0.5552440000000  0.5628390000000  0.5436230000000 1.0
C      1  0.4284910000000  0.5327440000000  0.5377470000000 1.0
C      1  0.5369000000000  0.5413270000000  0.4724740000000 1.0
C      1  0.4840590000000  0.4930310000000  0.4073580000000 1.0
C      1  0.4631380000000  0.5769240000000  0.4823080000000 1.0
C      1  0.4891740000000  0.4367710000000  0.4430010000000 1.0
C      1  0.5001820000000  0.4787140000000  0.5569310000000 1.0
C      1  0.4389740000000  0.4894220000000  0.4485180000000 1.0
C      1  0.5491460000000  0.4478630000000  0.5269840000000 1.0
C      1  0.4777720000000  0.4884270000000  0.5408940000000 1.0
C      1  0.5289550000000  0.5022330000000  0.5830890000000 1.0
C      1  0.5711860000000  0.5079610000000  0.4884970000000 1.0
C      1  0.5528040000000  0.4693380000000  0.5462750000000 1.0
C      1  0.4556200000000  0.5356530000000  0.5457120000000 1.0
C      1  0.5179750000000  0.4414790000000  0.5652880000000 1.0
C      1  0.5485350000000  0.5342810000000  0.4281180000000 1.0
C      1  0.5103010000000  0.4683160000000  0.4586500000000 1.0
C      1  0.4324350000000  0.4676180000000  0.4907130000000 1.0
C      1  0.5129930000000  0.5583140000000  0.4675290000000 1.0
C      1  0.4396650000000  0.4587360000000  0.5174910000000 1.0
C      1  0.5107590000000  0.4181620000000  0.5210430000000 1.0
C      1  0.5511540000000  0.5105210000000  0.5689140000000 1.0
C      1  0.5127450000000  0.5797480000000  0.4870020000000 1.0
C      1  0.4176920000000  0.5049440000000  0.4602750000000 1.0
C      1  0.4311350000000  0.5415980000000  0.5091520000000 1.0
C      1  0.5073310000000  0.4748840000000  0.4096670000000 1.0
C      1  0.4974620000000  0.5203860000000  0.4829050000000 1.0
C      1  0.4959250000000  0.5092310000000  0.5282830000000 1.0
C      1  0.4698790000000  0.5152450000000  0.4761210000000 1.0
C      1  0.5718810000000  0.4896460000000  0.5378980000000 1.0
C      1  0.5240040000000  0.4746220000000  0.4807420000000 1.0
C      1  0.4442790000000  0.4649470000000  0.4638520000000 1.0
C      1  0.5775400000000  0.4855270000000  0.5088040000000 1.0
C      1  0.5713120000000  0.5356330000000  0.5030940000000 1.0
C      1  0.4887020000000  0.4171560000000  0.4807050000000 1.0
C      1  0.5307810000000  0.4291090000000  0.5391300000000 1.0
C      1  0.5544010000000  0.5548370000000  0.4896910000000 1.0
C      1  0.4763490000000  0.4860850000000  0.4786080000000 1.0
C      1  0.4130400000000  0.4902120000000  0.4877290000000 1.0
C      1  0.5259430000000  0.5354530000000  0.5152520000000 1.0
C      1  0.5322050000000  0.4808860000000  0.4233010000000 1.0
C      1  0.5278100000000  0.5336050000000  0.5452250000000 1.0
C      1  0.5406730000000  0.5132270000000  0.4731180000000 1.0
C      1  0.5081040000000  0.5625820000000  0.5678130000000 1.0
C      1  0.5034710000000  0.5320110000000  0.4219440000000 1.0
C      1  0.5190880000000  0.4952680000000  0.5182950000000 1.0
C      1  0.5157240000000  0.4152920000000  0.4923900000000 1.0
C      1  0.5441200000000  0.4598630000000  0.4378050000000 1.0
C      1  0.5350430000000  0.4315090000000  0.4765530000000 1.0
C      1  0.5233690000000  0.5479700000000  0.4292200000000 1.0
C      1  0.4649430000000  0.5648940000000  0.4550040000000 1.0
C      1  0.4872350000000  0.4529360000000  0.4192630000000 1.0
C      1  0.5193980000000  0.5011450000000  0.4884960000000 1.0
C      1  0.5659000000000  0.4673770000000  0.4563740000000 1.0
C      1  0.5291960000000  0.4743180000000  0.5645230000000 1.0
C      1  0.4888740000000  0.4879010000000  0.5835210000000 1.0
C      1  0.4914390000000  0.5587990000000  0.4487940000000 1.0
C      1  0.5087490000000  0.5784540000000  0.5429430000000 1.0
C      1  0.4798740000000  0.5180850000000  0.4221990000000 1.0
C      1  0.4582670000000  0.5166060000000  0.4441250000000 1.0
C      1  0.4850560000000  0.4682920000000  0.5004490000000 1.0
C      1  0.5703610000000  0.5403310000000  0.5313280000000 1.0
C      1  0.4295760000000  0.4760880000000  0.5390730000000 1.0
C      1  0.4394040000000  0.4871260000000  0.5649220000000 1.0
C      1  0.4122850000000  0.5012270000000  0.5107500000000 1.0
C      1  0.5389300000000  0.5080710000000  0.4401140000000 1.0
C      1  0.4626750000000  0.4113390000000  0.4978170000000 1.0
C      1  0.4923920000000  0.5380550000000  0.5734670000000 1.0
C      1  0.4852250000000  0.4801040000000  0.4520330000000 1.0
C      1  0.4866870000000  0.4380230000000  0.5574970000000 1.0
C      1  0.5031500000000  0.5251530000000  0.5502380000000 1.0
C      1  0.5752400000000  0.4958990000000  0.4607710000000 1.0
C      1  0.4573750000000  0.4321400000000  0.5176820000000 1.0
C      1  0.5353010000000  0.5782250000000  0.5291990000000 1.0
C      1  0.4444520000000  0.5430700000000  0.4457220000000 1.0
C      1  0.4803630000000  0.4453700000000  0.4837000000000 1.0
C      1  0.4716910000000  0.5521950000000  0.5241340000000 1.0
C      1  0.4585750000000  0.5074020000000  0.5526540000000 1.0
C      1  0.4653810000000  0.4440010000000  0.4590980000000 1.0
C      1  0.4836260000000  0.4261760000000  0.5315620000000 1.0
C      1  0.4866640000000  0.5866980000000  0.4971520000000 1.0
C      1  0.4691860000000  0.4756690000000  0.4264880000000 1.0
C      1  0.5636060000000  0.4457030000000  0.4762150000000 1.0
C      1  0.4493320000000  0.5224550000000  0.4981940000000 1.0
END
