TITL C-2441168-9922-945 0.00844555294139791 125000 -11143.5105699515 0 0 80 (C1) n - 1
REM
REM in /home/bkarasulu/work/CARBON/AIRSS/Generating-Clusters/ReaxFF-fromJPCA2015/Units_Real/with-SteepDescent/Higher-Symm
REM
REM
REM
REM
REM
REM ./C.cell (1df0a924f5614ab8850e4351716899ee)
REM
REM compiler GCC version 9.2.1 20190827 (Red Hat 9.2.1-1)
REM options -cpp -mtune=generic -march=x86-64 -g -O0 -fpre-include=/usr/include/finclude/math-vector-fortran.h
REM seed -103530302 631469481 1232527760 -392473441 197946228 1963773906 986186689 -962986110 -1983265634 -1049911575 1280488596 -1364105174 405067830 1189343305 1184008876 -557305053 -1748950254 1317252952 1955263849 1902738112 110457255 138363692 1007628891 -1255690401 -366344303 988941097 552513418 82429513 593273093 -1159480788 2135529453 -1273231540 -2111996271
REM
CELL 1.54180   50.00000   50.00000   50.00000   90.00000   90.00000   90.00000
LATT -1
SFAC C  
C      1  0.5630610000000  0.5381760000000  0.4764880000000 1.0
C      1  0.4802230000000  0.5675120000000  0.4796190000000 1.0
C      1  0.4262500000000  0.5058150000000  0.4770340000000 1.0
C      1  0.4712580000000  0.4317060000000  0.4764660000000 1.0
C      1  0.5551660000000  0.4571520000000  0.4798990000000 1.0
C      1  0.4479460000000  0.4746000000000  0.4926740000000 1.0
C      1  0.5081110000000  0.4433470000000  0.4919840000000 1.0
C      1  0.5571250000000  0.4852990000000  0.4910110000000 1.0
C      1  0.5263660000000  0.5501080000000  0.4923170000000 1.0
C      1  0.4624300000000  0.5461150000000  0.4903490000000 1.0
C      1  0.5459230000000  0.5203230000000  0.5493440000000 1.0
C      1  0.4953840000000  0.5488030000000  0.5512450000000 1.0
C      1  0.4509150000000  0.5114200000000  0.5503620000000 1.0
C      1  0.4746780000000  0.4560100000000  0.5502760000000 1.0
C      1  0.5327220000000  0.4628130000000  0.5518660000000 1.0
C      1  0.5553890000000  0.4942290000000  0.4426460000000 1.0
C      1  0.5219640000000  0.5497290000000  0.4450040000000 1.0
C      1  0.4583850000000  0.5360310000000  0.4427550000000 1.0
C      1  0.4522840000000  0.4728910000000  0.4437680000000 1.0
C      1  0.5115610000000  0.4464680000000  0.4445860000000 1.0
C      1  0.4870280000000  0.4797710000000  0.4694600000000 1.0
C      1  0.5149690000000  0.4817390000000  0.4687280000000 1.0
C      1  0.5228300000000  0.5089170000000  0.4690250000000 1.0
C      1  0.4988260000000  0.5238320000000  0.4689340000000 1.0
C      1  0.4767170000000  0.5062970000000  0.4696190000000 1.0
C      1  0.4253920000000  0.4496390000000  0.5267880000000 1.0
C      1  0.5321230000000  0.4192100000000  0.5242110000000 1.0
C      1  0.5915900000000  0.4957700000000  0.5258390000000 1.0
C      1  0.5211290000000  0.5842840000000  0.5241020000000 1.0
C      1  0.4289390000000  0.5542620000000  0.5259130000000 1.0
C      1  0.5154970000000  0.5412930000000  0.5324970000000 1.0
C      1  0.4653810000000  0.5280050000000  0.5318530000000 1.0
C      1  0.4629840000000  0.4757030000000  0.5328270000000 1.0
C      1  0.5117780000000  0.4569570000000  0.5331700000000 1.0
C      1  0.5441140000000  0.4973610000000  0.5321040000000 1.0
C      1  0.4749550000000  0.4873100000000  0.5088830000000 1.0
C      1  0.5055270000000  0.4723650000000  0.5087780000000 1.0
C      1  0.5267200000000  0.4948740000000  0.5089400000000 1.0
C      1  0.5117270000000  0.5244830000000  0.5086490000000 1.0
C      1  0.4810330000000  0.5180680000000  0.5095640000000 1.0
C      1  0.4542180000000  0.5549060000000  0.5382580000000 1.0
C      1  0.4328970000000  0.4739860000000  0.5387400000000 1.0
C      1  0.5068530000000  0.4280240000000  0.5361620000000 1.0
C      1  0.5693960000000  0.4825140000000  0.5372030000000 1.0
C      1  0.5361560000000  0.5619980000000  0.5357620000000 1.0
C      1  0.5308200000000  0.4264280000000  0.4966570000000 1.0
C      1  0.5786870000000  0.5051160000000  0.5029020000000 1.0
C      1  0.5175540000000  0.5770430000000  0.4966990000000 1.0
C      1  0.4332450000000  0.5428770000000  0.5010320000000 1.0
C      1  0.4391670000000  0.4475870000000  0.5020470000000 1.0
C      1  0.4342060000000  0.4786510000000  0.4672800000000 1.0
C      1  0.4994990000000  0.4307060000000  0.4669820000000 1.0
C      1  0.5679860000000  0.4780500000000  0.4636000000000 1.0
C      1  0.5406320000000  0.5555990000000  0.4675520000000 1.0
C      1  0.4579260000000  0.5575500000000  0.4629250000000 1.0
C      1  0.5502870000000  0.5158770000000  0.4610380000000 1.0
C      1  0.4984380000000  0.5517350000000  0.4615320000000 1.0
C      1  0.4501280000000  0.5164750000000  0.4622770000000 1.0
C      1  0.4694510000000  0.4579190000000  0.4612390000000 1.0
C      1  0.5314680000000  0.4591930000000  0.4609870000000 1.0
C      1  0.5045400000000  0.4728030000000  0.4284780000000 1.0
C      1  0.5271880000000  0.4955540000000  0.4278320000000 1.0
C      1  0.5125870000000  0.5242220000000  0.4288020000000 1.0
C      1  0.4808530000000  0.5190850000000  0.4281560000000 1.0
C      1  0.4757750000000  0.4873610000000  0.4282110000000 1.0
C      1  0.4886550000000  0.4774180000000  0.5658000000000 1.0
C      1  0.5175200000000  0.4831310000000  0.5668130000000 1.0
C      1  0.5226160000000  0.5119180000000  0.5657530000000 1.0
C      1  0.4958240000000  0.5237710000000  0.5667050000000 1.0
C      1  0.4749190000000  0.5031680000000  0.5659600000000 1.0
C      1  0.4786370000000  0.4334790000000  0.5308120000000 1.0
C      1  0.5556240000000  0.4572020000000  0.5355130000000 1.0
C      1  0.5559310000000  0.5409350000000  0.5306240000000 1.0
C      1  0.4801370000000  0.5673710000000  0.5357060000000 1.0
C      1  0.4298070000000  0.5026770000000  0.5319300000000 1.0
C      1  0.5537190000000  0.4376340000000  0.5135650000000 1.0
C      1  0.5688900000000  0.5332630000000  0.5049520000000 1.0
C      1  0.4928230000000  0.5822610000000  0.5136490000000 1.0
C      1  0.4241680000000  0.5145820000000  0.5052890000000 1.0
C      1  0.4643710000000  0.4312400000000  0.5050020000000 1.0
END
