TITL C-2441156-4686-1482 0.000574930581174949 125000 -4710.29957487479 0 0 33 (C1) n - 1
REM
REM in /home/bkarasulu/work/CARBON/AIRSS/Generating-Clusters/ReaxFF-fromJPCA2015/Units_Real/with-SteepDescent/Higher-Symm
REM
REM
REM
REM
REM
REM ./C.cell (1df0a924f5614ab8850e4351716899ee)
REM
REM compiler GCC version 9.2.1 20190827 (Red Hat 9.2.1-1)
REM options -cpp -mtune=generic -march=x86-64 -g -O0 -fpre-include=/usr/include/finclude/math-vector-fortran.h
REM seed 135531596 1501172384 -871820070 309797664 -813836864 259915742 -1006860683 -1319495009 -940774490 1543288159 -592149373 -1846492195 -799122191 1106982366 -1589818439 1992729330 1307843942 1568758 -2058970363 -538230320 1035950177 2073712263 698423168 -931249050 315805947 1864103099 -2021033527 -97933993 -697912314 -527631632 199882205 -907107416 -1206313637
REM
CELL 1.54180   50.00000   50.00000   50.00000   90.00000   90.00000   90.00000
LATT -1
SFAC C  
C      1  0.5177490000000  0.4425520000000  0.5027920000000 1.0
C      1  0.5172880000000  0.5551400000000  0.4974440000000 1.0
C      1  0.4910590000000  0.4506820000000  0.5080270000000 1.0
C      1  0.4903990000000  0.5475260000000  0.4929020000000 1.0
C      1  0.4761100000000  0.5045220000000  0.5519780000000 1.0
C      1  0.4761340000000  0.4945150000000  0.4491100000000 1.0
C      1  0.5260530000000  0.5040950000000  0.5517440000000 1.0
C      1  0.5262570000000  0.4948950000000  0.4491740000000 1.0
C      1  0.5590800000000  0.4856860000000  0.5170870000000 1.0
C      1  0.5592000000000  0.5130570000000  0.4840630000000 1.0
C      1  0.4427650000000  0.4861320000000  0.5173770000000 1.0
C      1  0.4429190000000  0.5130160000000  0.4838220000000 1.0
C      1  0.4673570000000  0.4730120000000  0.4691420000000 1.0
C      1  0.4671830000000  0.5261150000000  0.5321480000000 1.0
C      1  0.5356250000000  0.4733490000000  0.4680700000000 1.0
C      1  0.5356210000000  0.5255670000000  0.5328610000000 1.0
C      1  0.4460020000000  0.4835910000000  0.4865690000000 1.0
C      1  0.4458690000000  0.5155610000000  0.5146610000000 1.0
C      1  0.5561580000000  0.4835240000000  0.4860400000000 1.0
C      1  0.5562700000000  0.5152360000000  0.5150810000000 1.0
C      1  0.4596950000000  0.5137360000000  0.4610390000000 1.0
C      1  0.4594950000000  0.4853700000000  0.5401870000000 1.0
C      1  0.5419070000000  0.5144100000000  0.4617620000000 1.0
C      1  0.5418220000000  0.4844940000000  0.5394190000000 1.0
C      1  0.5169370000000  0.5481020000000  0.5251880000000 1.0
C      1  0.5169630000000  0.4505790000000  0.4752990000000 1.0
C      1  0.4860000000000  0.5460320000000  0.5223240000000 1.0
C      1  0.4860950000000  0.4529360000000  0.4787030000000 1.0
C      1  0.5002390000000  0.4789200000000  0.5185410000000 1.0
C      1  0.5001890000000  0.5194910000000  0.4823670000000 1.0
C      1  0.5009260000000  0.5100240000000  0.4532540000000 1.0
C      1  0.5007920000000  0.4888920000000  0.5475330000000 1.0
C      1  0.5001700000000  0.4992200000000  0.5005150000000 1.0
END
