TITL C-2441160-1326-1474 0.0473076228507632 125000 -20413.5463611887 0 0 143 (C1) n - 1
REM
REM in /home/bkarasulu/work/CARBON/AIRSS/Generating-Clusters/ReaxFF-fromJPCA2015/Units_Real/with-SteepDescent/Higher-Symm
REM
REM
REM
REM
REM
REM ./C.cell (1df0a924f5614ab8850e4351716899ee)
REM
REM compiler GCC version 9.2.1 20190827 (Red Hat 9.2.1-1)
REM options -cpp -mtune=generic -march=x86-64 -g -O0 -fpre-include=/usr/include/finclude/math-vector-fortran.h
REM seed 1591857163 -607291217 119541538 -1021526842 -1484675564 1985998300 1889629275 250208361 -1064863345 1533039114 865993157 -834484850 1301836169 -1711572500 -1385330580 823359645 555219419 -223682563 -962158952 1767296042 952007076 1548582207 2037551537 374514475 -1600631607 2022102884 -709216905 563722449 1717070209 -1605951470 43504038 -1165087894 703323023
REM
CELL 1.54180   50.00000   50.00000   50.00000   90.00000   90.00000   90.00000
LATT -1
SFAC C  
C      1  0.5975920000000  0.4442600000000  0.5029570000000 1.0
C      1  0.5840650000000  0.4466810000000  0.4563330000000 1.0
C      1  0.5449050000000  0.4484440000000  0.4128630000000 1.0
C      1  0.4942230000000  0.4476750000000  0.4070810000000 1.0
C      1  0.4442210000000  0.4456080000000  0.4225930000000 1.0
C      1  0.4085350000000  0.4429680000000  0.4685150000000 1.0
C      1  0.4080680000000  0.4475690000000  0.5174040000000 1.0
C      1  0.4325590000000  0.4423150000000  0.5706160000000 1.0
C      1  0.4778170000000  0.4482440000000  0.5911010000000 1.0
C      1  0.5359660000000  0.4458310000000  0.5879620000000 1.0
C      1  0.5744720000000  0.4428940000000  0.5562360000000 1.0
C      1  0.5416830000000  0.4761310000000  0.4056200000000 1.0
C      1  0.4912830000000  0.4759010000000  0.4011650000000 1.0
C      1  0.4402040000000  0.4736320000000  0.4154820000000 1.0
C      1  0.4033410000000  0.4704700000000  0.4729380000000 1.0
C      1  0.4005800000000  0.4762190000000  0.5192260000000 1.0
C      1  0.4351440000000  0.4694830000000  0.5778920000000 1.0
C      1  0.4770510000000  0.4761440000000  0.5998200000000 1.0
C      1  0.5399380000000  0.4735550000000  0.5931400000000 1.0
C      1  0.5781610000000  0.4706200000000  0.5622030000000 1.0
C      1  0.6014800000000  0.4725000000000  0.5004420000000 1.0
C      1  0.5918710000000  0.4752540000000  0.4527370000000 1.0
C      1  0.4564530000000  0.4563750000000  0.5164870000000 1.0
C      1  0.4688030000000  0.4701910000000  0.5381510000000 1.0
C      1  0.4950660000000  0.4548650000000  0.5411510000000 1.0
C      1  0.5190680000000  0.4688260000000  0.5378850000000 1.0
C      1  0.5408010000000  0.4580560000000  0.5229560000000 1.0
C      1  0.5480280000000  0.4711660000000  0.4985850000000 1.0
C      1  0.5325790000000  0.4574130000000  0.4753910000000 1.0
C      1  0.5184450000000  0.4732520000000  0.4546010000000 1.0
C      1  0.4846150000000  0.4708800000000  0.4519660000000 1.0
C      1  0.4671720000000  0.4570740000000  0.4714520000000 1.0
C      1  0.4499050000000  0.4692970000000  0.4915690000000 1.0
C      1  0.4552090000000  0.5348900000000  0.5048220000000 1.0
C      1  0.4612690000000  0.5462420000000  0.5299130000000 1.0
C      1  0.4846940000000  0.5353280000000  0.5411490000000 1.0
C      1  0.5095410000000  0.5465450000000  0.5468800000000 1.0
C      1  0.5308060000000  0.5358430000000  0.5317180000000 1.0
C      1  0.5473650000000  0.5463500000000  0.5116580000000 1.0
C      1  0.5412010000000  0.5368500000000  0.4862330000000 1.0
C      1  0.5297510000000  0.5472260000000  0.4628340000000 1.0
C      1  0.5039740000000  0.5380380000000  0.4570730000000 1.0
C      1  0.4778030000000  0.5465120000000  0.4568620000000 1.0
C      1  0.4607620000000  0.5347030000000  0.4759640000000 1.0
C      1  0.5063980000000  0.5811840000000  0.4477490000000 1.0
C      1  0.4779450000000  0.5865060000000  0.4539810000000 1.0
C      1  0.4550610000000  0.5812820000000  0.4719120000000 1.0
C      1  0.4476240000000  0.5809550000000  0.5009000000000 1.0
C      1  0.4581080000000  0.5862620000000  0.5278850000000 1.0
C      1  0.4792470000000  0.5815100000000  0.5478830000000 1.0
C      1  0.5082160000000  0.5866870000000  0.5499710000000 1.0
C      1  0.5350200000000  0.5821040000000  0.5383160000000 1.0
C      1  0.5495060000000  0.5865330000000  0.5128120000000 1.0
C      1  0.5500740000000  0.5814610000000  0.4837850000000 1.0
C      1  0.5327100000000  0.5868190000000  0.4602130000000 1.0
C      1  0.4588850000000  0.5057210000000  0.4775170000000 1.0
C      1  0.4569260000000  0.5068570000000  0.5063090000000 1.0
C      1  0.4702690000000  0.4947870000000  0.5264170000000 1.0
C      1  0.4884740000000  0.5081400000000  0.5412030000000 1.0
C      1  0.5137520000000  0.4954270000000  0.5437220000000 1.0
C      1  0.5339550000000  0.5082980000000  0.5294240000000 1.0
C      1  0.5415280000000  0.4966380000000  0.5056500000000 1.0
C      1  0.5399240000000  0.5099260000000  0.4835270000000 1.0
C      1  0.5264870000000  0.4992210000000  0.4626110000000 1.0
C      1  0.5036960000000  0.5120250000000  0.4576310000000 1.0
C      1  0.4813970000000  0.4965030000000  0.4635350000000 1.0
C      1  0.4244910000000  0.4838310000000  0.4860560000000 1.0
C      1  0.4176960000000  0.4805590000000  0.5417810000000 1.0
C      1  0.4546500000000  0.4845160000000  0.5648260000000 1.0
C      1  0.5050590000000  0.4804430000000  0.5903220000000 1.0
C      1  0.5606160000000  0.4851320000000  0.5767510000000 1.0
C      1  0.5811380000000  0.4777150000000  0.5348940000000 1.0
C      1  0.5773200000000  0.4833680000000  0.4909300000000 1.0
C      1  0.5678890000000  0.4796940000000  0.4382820000000 1.0
C      1  0.5237020000000  0.4811770000000  0.4259330000000 1.0
C      1  0.4709620000000  0.4808760000000  0.4219620000000 1.0
C      1  0.4278620000000  0.4800940000000  0.4416420000000 1.0
C      1  0.4076490000000  0.5045920000000  0.5035250000000 1.0
C      1  0.4225880000000  0.5094040000000  0.5520510000000 1.0
C      1  0.4662850000000  0.5015760000000  0.5868670000000 1.0
C      1  0.5159370000000  0.5085930000000  0.5921240000000 1.0
C      1  0.5618260000000  0.5120440000000  0.5693460000000 1.0
C      1  0.5879220000000  0.5061680000000  0.5249150000000 1.0
C      1  0.5872440000000  0.5016810000000  0.4692070000000 1.0
C      1  0.5592790000000  0.5071040000000  0.4278930000000 1.0
C      1  0.5084220000000  0.5012210000000  0.4052850000000 1.0
C      1  0.4599960000000  0.5094450000000  0.4179380000000 1.0
C      1  0.4193290000000  0.5079150000000  0.4515400000000 1.0
C      1  0.4392330000000  0.5617590000000  0.5423210000000 1.0
C      1  0.4695240000000  0.5631890000000  0.5709160000000 1.0
C      1  0.5122180000000  0.5621850000000  0.5723790000000 1.0
C      1  0.5520420000000  0.5648600000000  0.5568810000000 1.0
C      1  0.5716530000000  0.5622930000000  0.5184590000000 1.0
C      1  0.5740710000000  0.5631540000000  0.4766240000000 1.0
C      1  0.5467550000000  0.5609820000000  0.4416820000000 1.0
C      1  0.5094820000000  0.5621160000000  0.4233030000000 1.0
C      1  0.4673730000000  0.5617920000000  0.4333960000000 1.0
C      1  0.4333680000000  0.5644830000000  0.4598440000000 1.0
C      1  0.4228670000000  0.5642160000000  0.5018350000000 1.0
C      1  0.4830820000000  0.4240560000000  0.4476580000000 1.0
C      1  0.4662170000000  0.4291490000000  0.4722480000000 1.0
C      1  0.4468000000000  0.4213740000000  0.4938410000000 1.0
C      1  0.4583190000000  0.4287960000000  0.5200610000000 1.0
C      1  0.4717750000000  0.4213930000000  0.5466240000000 1.0
C      1  0.5005260000000  0.4278090000000  0.5450980000000 1.0
C      1  0.5301260000000  0.4214260000000  0.5441070000000 1.0
C      1  0.5430090000000  0.4302670000000  0.5190220000000 1.0
C      1  0.5518880000000  0.4238790000000  0.4904980000000 1.0
C      1  0.5303140000000  0.4311660000000  0.4711040000000 1.0
C      1  0.5122180000000  0.4258090000000  0.4466340000000 1.0
C      1  0.5361540000000  0.5177900000000  0.4130820000000 1.0
C      1  0.4842600000000  0.5210120000000  0.4093540000000 1.0
C      1  0.4372410000000  0.5221820000000  0.4334880000000 1.0
C      1  0.4093960000000  0.5207320000000  0.4763100000000 1.0
C      1  0.4136310000000  0.5222420000000  0.5277360000000 1.0
C      1  0.4398800000000  0.5210740000000  0.5720040000000 1.0
C      1  0.4901860000000  0.5207730000000  0.5900100000000 1.0
C      1  0.5397470000000  0.5235770000000  0.5827900000000 1.0
C      1  0.5782880000000  0.5227060000000  0.5475990000000 1.0
C      1  0.5930440000000  0.5196800000000  0.4993550000000 1.0
C      1  0.5744640000000  0.5203470000000  0.4490610000000 1.0
C      1  0.4860980000000  0.5490720000000  0.4142980000000 1.0
C      1  0.4404730000000  0.5505930000000  0.4361530000000 1.0
C      1  0.4154760000000  0.5496980000000  0.4777110000000 1.0
C      1  0.4175130000000  0.5505840000000  0.5262980000000 1.0
C      1  0.4448740000000  0.5490940000000  0.5687920000000 1.0
C      1  0.4890750000000  0.5489870000000  0.5853370000000 1.0
C      1  0.5384610000000  0.5516720000000  0.5779580000000 1.0
C      1  0.5740460000000  0.5510260000000  0.5453660000000 1.0
C      1  0.5884560000000  0.5482180000000  0.4968390000000 1.0
C      1  0.5725990000000  0.5491290000000  0.4515710000000 1.0
C      1  0.5331880000000  0.5464280000000  0.4183090000000 1.0
C      1  0.4609750000000  0.4335980000000  0.5714330000000 1.0
C      1  0.5066910000000  0.4500220000000  0.5862690000000 1.0
C      1  0.5480220000000  0.4326000000000  0.5641790000000 1.0
C      1  0.5834210000000  0.4488580000000  0.5285000000000 1.0
C      1  0.5785880000000  0.4340010000000  0.4824020000000 1.0
C      1  0.5614510000000  0.4510470000000  0.4372420000000 1.0
C      1  0.5185260000000  0.4369040000000  0.4204780000000 1.0
C      1  0.4721080000000  0.4356740000000  0.4229900000000 1.0
C      1  0.4291100000000  0.4506050000000  0.4481500000000 1.0
C      1  0.4196280000000  0.4327030000000  0.4941440000000 1.0
C      1  0.4225390000000  0.4509020000000  0.5436000000000 1.0
END
