TITL C-2441156-4686-404 0.00116201479999068 125000 -1308.44911638142 0 0 11 (C2) n - 1
REM
REM in /home/bkarasulu/work/CARBON/AIRSS/Generating-Clusters/ReaxFF-fromJPCA2015/Units_Real/with-SteepDescent/Higher-Symm
REM
REM
REM
REM
REM
REM ./C.cell (1df0a924f5614ab8850e4351716899ee)
REM
REM compiler GCC version 9.2.1 20190827 (Red Hat 9.2.1-1)
REM options -cpp -mtune=generic -march=x86-64 -g -O0 -fpre-include=/usr/include/finclude/math-vector-fortran.h
REM seed 1726777344 -2006847506 539917522 -1972315620 1795435743 166635614 1848264621 557236009 -204359651 -114163755 -280224949 -1180642761 -1112265544 -1254690249 1684980787 2058331799 -1020882736 1349425704 1280899495 1883554214 153576066 1631257050 -304848455 -858771307 -837572886 1785703694 499529912 -487461668 560783687 1397164399 -1039542854 -1734385603 697916951
REM
CELL 1.54180   50.00000   50.00000   50.00000   90.00000   90.00000   90.00000
LATT -1
SFAC C  
C      1  0.5391430000000  0.4679500000000  0.5096610000000 1.0
C      1  0.5339230000000  0.5226190000000  0.5100490000000 1.0
C      1  0.4496490000000  0.5530070000000  0.5026900000000 1.0
C      1  0.4630830000000  0.4767220000000  0.5081640000000 1.0
C      1  0.4752550000000  0.4632470000000  0.4892500000000 1.0
C      1  0.4670110000000  0.5400750000000  0.4879170000000 1.0
C      1  0.5217100000000  0.5348590000000  0.4875100000000 1.0
C      1  0.5520680000000  0.4506100000000  0.4948640000000 1.0
C      1  0.4929390000000  0.5212630000000  0.4827110000000 1.0
C      1  0.5202900000000  0.4938630000000  0.5148510000000 1.0
C      1  0.4932380000000  0.4940780000000  0.4986550000000 1.0
END
