TITL C-2441161-5029-1015 0.0799387284356632 125000 -19235.898789906 0 0 141 (C1) n - 1
REM
REM in /home/bkarasulu/work/CARBON/AIRSS/Generating-Clusters/ReaxFF-fromJPCA2015/Units_Real/with-SteepDescent/Higher-Symm
REM
REM
REM
REM
REM
REM ./C.cell (1df0a924f5614ab8850e4351716899ee)
REM
REM compiler GCC version 9.2.1 20190827 (Red Hat 9.2.1-1)
REM options -cpp -mtune=generic -march=x86-64 -g -O0 -fpre-include=/usr/include/finclude/math-vector-fortran.h
REM seed -1759463222 1466856192 -1017262164 172611567 -118930335 1622289527 -2058631446 2047485592 1840114724 -2146238236 148123244 1680883962 -1989149918 -896522326 1748034909 1731815724 -1316499191 -1768668443 766504454 -685706559 -527409579 -1619133055 1714029112 -1869172244 -1691895325 281391344 836139296 1794217478 -2106350796 -187796970 -557367657 241620534 -710234640
REM
CELL 1.54180   50.00000   50.00000   50.00000   90.00000   90.00000   90.00000
LATT -1
SFAC C  
C      1  0.4709720000000  0.4603290000000  0.5675080000000 1.0
C      1  0.4709050000000  0.4247940000000  0.4814670000000 1.0
C      1  0.4695450000000  0.4946280000000  0.4203430000000 1.0
C      1  0.4707720000000  0.5719210000000  0.4815180000000 1.0
C      1  0.4732080000000  0.5420230000000  0.5571670000000 1.0
C      1  0.5320090000000  0.5426190000000  0.5686640000000 1.0
C      1  0.5317770000000  0.5782500000000  0.4795380000000 1.0
C      1  0.5313080000000  0.5060070000000  0.4193550000000 1.0
C      1  0.5317770000000  0.4239210000000  0.4691980000000 1.0
C      1  0.5281310000000  0.4510960000000  0.5603540000000 1.0
C      1  0.4417260000000  0.5707500000000  0.5330750000000 1.0
C      1  0.4313320000000  0.4869700000000  0.5703470000000 1.0
C      1  0.4325980000000  0.4283020000000  0.5068620000000 1.0
C      1  0.4307880000000  0.4725490000000  0.4336420000000 1.0
C      1  0.4293680000000  0.5557080000000  0.4569930000000 1.0
C      1  0.5684210000000  0.4355420000000  0.5363090000000 1.0
C      1  0.5698430000000  0.5105730000000  0.5735360000000 1.0
C      1  0.5717800000000  0.5739560000000  0.5095390000000 1.0
C      1  0.5722830000000  0.5317480000000  0.4319470000000 1.0
C      1  0.5702140000000  0.4461780000000  0.4484340000000 1.0
C      1  0.4773990000000  0.5578170000000  0.5830340000000 1.0
C      1  0.4792790000000  0.4380690000000  0.5842260000000 1.0
C      1  0.4794620000000  0.4008660000000  0.4677800000000 1.0
C      1  0.4800570000000  0.4998660000000  0.3937790000000 1.0
C      1  0.4798210000000  0.5980140000000  0.4691250000000 1.0
C      1  0.5194800000000  0.4394020000000  0.5846880000000 1.0
C      1  0.5182680000000  0.5640380000000  0.5842120000000 1.0
C      1  0.5200250000000  0.5998260000000  0.4637470000000 1.0
C      1  0.5204650000000  0.4991060000000  0.3931090000000 1.0
C      1  0.5197400000000  0.3974640000000  0.4676460000000 1.0
C      1  0.4883940000000  0.4290370000000  0.5044570000000 1.0
C      1  0.4875410000000  0.4742840000000  0.4312410000000 1.0
C      1  0.4945830000000  0.5540630000000  0.4560170000000 1.0
C      1  0.4909640000000  0.5599000000000  0.5338710000000 1.0
C      1  0.4891460000000  0.4844970000000  0.5703460000000 1.0
C      1  0.5172000000000  0.5729670000000  0.5046360000000 1.0
C      1  0.5155590000000  0.5272680000000  0.4312740000000 1.0
C      1  0.5159870000000  0.4423880000000  0.4522060000000 1.0
C      1  0.5133330000000  0.4401510000000  0.5393040000000 1.0
C      1  0.5166040000000  0.5178830000000  0.5712690000000 1.0
C      1  0.4958620000000  0.4539200000000  0.4117340000000 1.0
C      1  0.4938990000000  0.5678840000000  0.4299350000000 1.0
C      1  0.4896820000000  0.5908260000000  0.5412570000000 1.0
C      1  0.4952470000000  0.4862740000000  0.5991370000000 1.0
C      1  0.4956370000000  0.4026870000000  0.5169890000000 1.0
C      1  0.5038070000000  0.5447930000000  0.4124150000000 1.0
C      1  0.5044000000000  0.4299920000000  0.4291500000000 1.0
C      1  0.5052020000000  0.4123410000000  0.5440170000000 1.0
C      1  0.5048220000000  0.5149470000000  0.5975090000000 1.0
C      1  0.5054680000000  0.5969530000000  0.5135520000000 1.0
C      1  0.4075770000000  0.4841750000000  0.4797620000000 1.0
C      1  0.4046740000000  0.5132490000000  0.4797920000000 1.0
C      1  0.4004700000000  0.5190640000000  0.5081640000000 1.0
C      1  0.4030470000000  0.4953510000000  0.5251780000000 1.0
C      1  0.4066480000000  0.4734540000000  0.5067490000000 1.0
C      1  0.5989600000000  0.5103570000000  0.4760830000000 1.0
C      1  0.5988970000000  0.4800170000000  0.4829250000000 1.0
C      1  0.5977490000000  0.4785360000000  0.5125740000000 1.0
C      1  0.5979170000000  0.5055160000000  0.5244430000000 1.0
C      1  0.5986210000000  0.5258240000000  0.5015610000000 1.0
C      1  0.5509960000000  0.5213720000000  0.4837960000000 1.0
C      1  0.5524840000000  0.5211830000000  0.5165280000000 1.0
C      1  0.5532000000000  0.4920360000000  0.5249900000000 1.0
C      1  0.5527390000000  0.4745150000000  0.4964200000000 1.0
C      1  0.5582690000000  0.4941450000000  0.4748420000000 1.0
C      1  0.4573970000000  0.4818080000000  0.4796240000000 1.0
C      1  0.4498780000000  0.4792300000000  0.5070730000000 1.0
C      1  0.4487450000000  0.5045420000000  0.5204170000000 1.0
C      1  0.4496830000000  0.5256590000000  0.5004590000000 1.0
C      1  0.4503090000000  0.5096620000000  0.4723890000000 1.0
C      1  0.5680540000000  0.4755270000000  0.5452330000000 1.0
C      1  0.5637940000000  0.4442140000000  0.4955570000000 1.0
C      1  0.5616830000000  0.4875550000000  0.4469260000000 1.0
C      1  0.5619390000000  0.5470750000000  0.4693640000000 1.0
C      1  0.5629970000000  0.5426470000000  0.5355670000000 1.0
C      1  0.4232580000000  0.5297310000000  0.5462290000000 1.0
C      1  0.4335960000000  0.5557510000000  0.5060690000000 1.0
C      1  0.4348700000000  0.5180190000000  0.4421320000000 1.0
C      1  0.4307950000000  0.4420130000000  0.4608500000000 1.0
C      1  0.4314690000000  0.4459700000000  0.5435910000000 1.0
C      1  0.4494480000000  0.4506730000000  0.4402170000000 1.0
C      1  0.4501210000000  0.5461990000000  0.4337910000000 1.0
C      1  0.4600660000000  0.5933700000000  0.5345270000000 1.0
C      1  0.4505790000000  0.5049980000000  0.5826390000000 1.0
C      1  0.4508760000000  0.4295010000000  0.5297340000000 1.0
C      1  0.5479540000000  0.5514160000000  0.4417310000000 1.0
C      1  0.5486630000000  0.4637470000000  0.4384720000000 1.0
C      1  0.5484160000000  0.4306560000000  0.5155670000000 1.0
C      1  0.5477940000000  0.4919920000000  0.5785820000000 1.0
C      1  0.5483990000000  0.5705290000000  0.5322430000000 1.0
C      1  0.5561180000000  0.4518580000000  0.5575200000000 1.0
C      1  0.5608130000000  0.4289000000000  0.4707160000000 1.0
C      1  0.5604010000000  0.5062440000000  0.4238950000000 1.0
C      1  0.5608610000000  0.5736770000000  0.4820430000000 1.0
C      1  0.5605110000000  0.5383440000000  0.5643490000000 1.0
C      1  0.4449710000000  0.5482200000000  0.5521820000000 1.0
C      1  0.4411450000000  0.5680470000000  0.4798510000000 1.0
C      1  0.4417980000000  0.4960590000000  0.4264050000000 1.0
C      1  0.4433820000000  0.4299120000000  0.4821810000000 1.0
C      1  0.4432960000000  0.4625470000000  0.5618720000000 1.0
C      1  0.4995780000000  0.3923790000000  0.4897510000000 1.0
C      1  0.5004560000000  0.4763000000000  0.3931850000000 1.0
C      1  0.4973420000000  0.5929120000000  0.4451990000000 1.0
C      1  0.4955890000000  0.5775910000000  0.5718750000000 1.0
C      1  0.4990120000000  0.4568200000000  0.5982640000000 1.0
C      1  0.5016040000000  0.6076570000000  0.4867430000000 1.0
C      1  0.5001420000000  0.5219180000000  0.3933130000000 1.0
C      1  0.4994820000000  0.4053640000000  0.4458740000000 1.0
C      1  0.5002510000000  0.4203840000000  0.5719860000000 1.0
C      1  0.4992680000000  0.5446440000000  0.5981980000000 1.0
C      1  0.4156100000000  0.4482570000000  0.5188050000000 1.0
C      1  0.4153790000000  0.4668090000000  0.4576560000000 1.0
C      1  0.4136580000000  0.5311530000000  0.4585110000000 1.0
C      1  0.4118350000000  0.5419690000000  0.5219870000000 1.0
C      1  0.4156010000000  0.5020280000000  0.5506820000000 1.0
C      1  0.5895880000000  0.5524750000000  0.5051760000000 1.0
C      1  0.5889590000000  0.5202550000000  0.4516390000000 1.0
C      1  0.5881390000000  0.4604250000000  0.4655440000000 1.0
C      1  0.5875460000000  0.4586410000000  0.5314330000000 1.0
C      1  0.5888430000000  0.5099850000000  0.5513680000000 1.0
C      1  0.5117650000000  0.4829880000000  0.4747810000000 1.0
C      1  0.5198080000000  0.5163090000000  0.4752980000000 1.0
C      1  0.5214840000000  0.5224600000000  0.5195890000000 1.0
C      1  0.5249780000000  0.4940960000000  0.5292130000000 1.0
C      1  0.5225920000000  0.4726550000000  0.5036660000000 1.0
C      1  0.4779130000000  0.5141850000000  0.4671150000000 1.0
C      1  0.4838370000000  0.4721470000000  0.4734460000000 1.0
C      1  0.4739770000000  0.4727140000000  0.5219930000000 1.0
C      1  0.4719230000000  0.4982910000000  0.5353170000000 1.0
C      1  0.4775380000000  0.5321620000000  0.5038060000000 1.0
C      1  0.5214830000000  0.4437040000000  0.5123670000000 1.0
C      1  0.5226440000000  0.4703260000000  0.4492590000000 1.0
C      1  0.5181340000000  0.5376820000000  0.4559160000000 1.0
C      1  0.5196150000000  0.5529380000000  0.5263680000000 1.0
C      1  0.5226800000000  0.4908760000000  0.5593690000000 1.0
C      1  0.4785870000000  0.5596230000000  0.5075390000000 1.0
C      1  0.4762750000000  0.5335730000000  0.4487610000000 1.0
C      1  0.4753410000000  0.4599590000000  0.4500240000000 1.0
C      1  0.4763960000000  0.4439660000000  0.5254470000000 1.0
C      1  0.4741240000000  0.5089180000000  0.5619920000000 1.0
C      1  0.5015880000000  0.5176870000000  0.4977490000000 1.0
END
