TITL C-2441160-1326-698 0.00616530067867428 125000 -13246.1268129762 0 0 89 (C1) n - 1
REM
REM in /home/bkarasulu/work/CARBON/AIRSS/Generating-Clusters/ReaxFF-fromJPCA2015/Units_Real/with-SteepDescent/Higher-Symm
REM
REM
REM
REM
REM
REM ./C.cell (1df0a924f5614ab8850e4351716899ee)
REM
REM compiler GCC version 9.2.1 20190827 (Red Hat 9.2.1-1)
REM options -cpp -mtune=generic -march=x86-64 -g -O0 -fpre-include=/usr/include/finclude/math-vector-fortran.h
REM seed -692823182 1852940640 1488533954 -2037231225 2014082694 -1352146455 -1918272292 -1210511191 1616670317 -689071376 -132294192 -1885583433 -511011336 1829520169 -1017814286 -447153611 -498131932 1407754852 -1413845617 -1564960540 -1488415137 1666138333 890176494 -205827814 -610245591 1427222568 1336341481 -2006329915 1800622317 728251462 -1339985843 545960532 -1397180950
REM
CELL 1.54180   50.00000   50.00000   50.00000   90.00000   90.00000   90.00000
LATT -1
SFAC C  
C      1  0.5534500000000  0.4588560000000  0.4450280000000 1.0
C      1  0.5525950000000  0.5431530000000  0.5519870000000 1.0
C      1  0.4451030000000  0.4597410000000  0.5518410000000 1.0
C      1  0.4471120000000  0.5397530000000  0.4463210000000 1.0
C      1  0.5356640000000  0.5004960000000  0.4314590000000 1.0
C      1  0.5686780000000  0.5002830000000  0.5347990000000 1.0
C      1  0.4622750000000  0.5015720000000  0.5679730000000 1.0
C      1  0.4329140000000  0.4987640000000  0.4670180000000 1.0
C      1  0.4412060000000  0.5609160000000  0.4873080000000 1.0
C      1  0.5119740000000  0.4389890000000  0.4408970000000 1.0
C      1  0.5562720000000  0.5614050000000  0.5148730000000 1.0
C      1  0.4862690000000  0.4387980000000  0.5578060000000 1.0
C      1  0.4954470000000  0.4224560000000  0.4597400000000 1.0
C      1  0.5319870000000  0.5641960000000  0.4983540000000 1.0
C      1  0.5034040000000  0.4224130000000  0.5393870000000 1.0
C      1  0.4585180000000  0.5790710000000  0.5043820000000 1.0
C      1  0.5666250000000  0.4693130000000  0.4951560000000 1.0
C      1  0.5016090000000  0.5323520000000  0.5638670000000 1.0
C      1  0.4354860000000  0.4747120000000  0.5003280000000 1.0
C      1  0.4937500000000  0.5295610000000  0.4356660000000 1.0
C      1  0.5800080000000  0.5056780000000  0.4616330000000 1.0
C      1  0.5354440000000  0.4973940000000  0.5762870000000 1.0
C      1  0.4193270000000  0.5060040000000  0.5374130000000 1.0
C      1  0.4614710000000  0.4965410000000  0.4210940000000 1.0
C      1  0.5098450000000  0.5771890000000  0.5095350000000 1.0
C      1  0.4914030000000  0.4207050000000  0.5116220000000 1.0
C      1  0.4863610000000  0.5791780000000  0.4936320000000 1.0
C      1  0.5074490000000  0.4205540000000  0.4871530000000 1.0
C      1  0.5361740000000  0.4719810000000  0.4257460000000 1.0
C      1  0.5732220000000  0.5292830000000  0.5355600000000 1.0
C      1  0.4622010000000  0.4721690000000  0.5718230000000 1.0
C      1  0.4273190000000  0.5275090000000  0.4644070000000 1.0
C      1  0.5431280000000  0.5135120000000  0.4886440000000 1.0
C      1  0.5101380000000  0.4899590000000  0.5355500000000 1.0
C      1  0.4606510000000  0.5163990000000  0.5150200000000 1.0
C      1  0.4903560000000  0.4881260000000  0.4588710000000 1.0
C      1  0.4973600000000  0.5278420000000  0.4840130000000 1.0
C      1  0.5227300000000  0.4676680000000  0.4896280000000 1.0
C      1  0.5197710000000  0.5308800000000  0.5030120000000 1.0
C      1  0.4758230000000  0.4693960000000  0.5116670000000 1.0
C      1  0.5850750000000  0.5242090000000  0.4840880000000 1.0
C      1  0.5137300000000  0.4787280000000  0.5818710000000 1.0
C      1  0.4135860000000  0.5233450000000  0.5149350000000 1.0
C      1  0.4842050000000  0.4779240000000  0.4143570000000 1.0
C      1  0.5771410000000  0.5394120000000  0.5084100000000 1.0
C      1  0.4900800000000  0.4613550000000  0.5762420000000 1.0
C      1  0.4211420000000  0.5396100000000  0.4910480000000 1.0
C      1  0.5073800000000  0.4614670000000  0.4218280000000 1.0
C      1  0.4663050000000  0.5253310000000  0.4293660000000 1.0
C      1  0.5646620000000  0.4773570000000  0.4669530000000 1.0
C      1  0.5295930000000  0.5245830000000  0.5584590000000 1.0
C      1  0.4336990000000  0.4781380000000  0.5298940000000 1.0
C      1  0.4653270000000  0.5594070000000  0.5473080000000 1.0
C      1  0.4564840000000  0.4442440000000  0.4657130000000 1.0
C      1  0.5324390000000  0.5562270000000  0.4554760000000 1.0
C      1  0.5438160000000  0.4448450000000  0.5330200000000 1.0
C      1  0.4524560000000  0.4504930000000  0.4962340000000 1.0
C      1  0.5010000000000  0.5479970000000  0.4591630000000 1.0
C      1  0.5466980000000  0.4489980000000  0.5014030000000 1.0
C      1  0.4943080000000  0.5578800000000  0.5534430000000 1.0
C      1  0.5207020000000  0.5161450000000  0.5294260000000 1.0
C      1  0.4647120000000  0.4906410000000  0.5276250000000 1.0
C      1  0.4809460000000  0.5044070000000  0.4800900000000 1.0
C      1  0.5351820000000  0.4888970000000  0.4750680000000 1.0
C      1  0.4564020000000  0.5813220000000  0.5324040000000 1.0
C      1  0.4672330000000  0.4198540000000  0.4577190000000 1.0
C      1  0.5395390000000  0.5792630000000  0.4707660000000 1.0
C      1  0.5315690000000  0.4213560000000  0.5416890000000 1.0
C      1  0.4880390000000  0.5082100000000  0.5558990000000 1.0
C      1  0.4489170000000  0.4986390000000  0.4908350000000 1.0
C      1  0.5078910000000  0.5048140000000  0.4409070000000 1.0
C      1  0.5618650000000  0.4945380000000  0.5073270000000 1.0
C      1  0.5377670000000  0.4366900000000  0.4544500000000 1.0
C      1  0.5422970000000  0.5650560000000  0.5392520000000 1.0
C      1  0.4604900000000  0.4369270000000  0.5435210000000 1.0
C      1  0.4563070000000  0.5619230000000  0.4626560000000 1.0
C      1  0.5548440000000  0.4860860000000  0.5572100000000 1.0
C      1  0.4392850000000  0.5164820000000  0.5564880000000 1.0
C      1  0.4454930000000  0.4858870000000  0.4436720000000 1.0
C      1  0.5590810000000  0.5149490000000  0.4427430000000 1.0
C      1  0.5496290000000  0.5335020000000  0.4626990000000 1.0
C      1  0.5342150000000  0.4693210000000  0.5459460000000 1.0
C      1  0.4511710000000  0.5339400000000  0.5364420000000 1.0
C      1  0.4673980000000  0.4686110000000  0.4520470000000 1.0
C      1  0.5144350000000  0.5719280000000  0.5374950000000 1.0
C      1  0.4638240000000  0.4290560000000  0.5152270000000 1.0
C      1  0.4836030000000  0.5693280000000  0.4673890000000 1.0
C      1  0.5350120000000  0.4284990000000  0.4828150000000 1.0
C      1  0.5027050000000  0.4766570000000  0.5088600000000 1.0
END
