TITL C-2441168-9922-850 0.00162177055477143 125000 -5751.92144508024 0 0 40 (C1) n - 1
REM
REM in /home/bkarasulu/work/CARBON/AIRSS/Generating-Clusters/ReaxFF-fromJPCA2015/Units_Real/with-SteepDescent/Higher-Symm
REM
REM
REM
REM
REM
REM ./C.cell (1df0a924f5614ab8850e4351716899ee)
REM
REM compiler GCC version 9.2.1 20190827 (Red Hat 9.2.1-1)
REM options -cpp -mtune=generic -march=x86-64 -g -O0 -fpre-include=/usr/include/finclude/math-vector-fortran.h
REM seed 1959287726 -879148745 -171392013 809893334 700960787 -20867695 1904951161 -814028022 -619123494 1589073878 -159807514 1862178719 -1234743458 1025014753 -347279171 612084009 854492747 253431557 -436237844 1948170366 1506325719 621190415 -158326519 1563061515 -689277687 -1514315316 -1736266835 843859353 2075482523 -1858412607 -430757000 1260534132 195005473
REM
CELL 1.54180   50.00000   50.00000   50.00000   90.00000   90.00000   90.00000
LATT -1
SFAC C  
C      1  0.4399180000000  0.4888760000000  0.5377700000000 1.0
C      1  0.5363160000000  0.4534960000000  0.5355740000000 1.0
C      1  0.5199100000000  0.5583600000000  0.5386030000000 1.0
C      1  0.4397220000000  0.5108650000000  0.5378970000000 1.0
C      1  0.5383560000000  0.5464960000000  0.5370140000000 1.0
C      1  0.5194480000000  0.4401670000000  0.5398750000000 1.0
C      1  0.5136580000000  0.5529120000000  0.4885860000000 1.0
C      1  0.4471640000000  0.4853190000000  0.4886520000000 1.0
C      1  0.5388980000000  0.4615540000000  0.4881530000000 1.0
C      1  0.5138400000000  0.4468360000000  0.4888490000000 1.0
C      1  0.4470470000000  0.5143530000000  0.4886210000000 1.0
C      1  0.5388620000000  0.5384790000000  0.4883080000000 1.0
C      1  0.4744010000000  0.5144830000000  0.4443540000000 1.0
C      1  0.4997370000000  0.4706080000000  0.4444740000000 1.0
C      1  0.5250060000000  0.5145160000000  0.4442180000000 1.0
C      1  0.4744520000000  0.4852190000000  0.4443570000000 1.0
C      1  0.4996670000000  0.5291260000000  0.4443420000000 1.0
C      1  0.5250520000000  0.4852990000000  0.4441620000000 1.0
C      1  0.5004510000000  0.5534770000000  0.4625140000000 1.0
C      1  0.4529600000000  0.4736450000000  0.4624650000000 1.0
C      1  0.5460710000000  0.4725140000000  0.4619740000000 1.0
C      1  0.5006000000000  0.4464430000000  0.4628320000000 1.0
C      1  0.4529250000000  0.5260150000000  0.4624690000000 1.0
C      1  0.5458460000000  0.5273650000000  0.4621960000000 1.0
C      1  0.4487380000000  0.5603500000000  0.5165280000000 1.0
C      1  0.4733200000000  0.4257380000000  0.5162360000000 1.0
C      1  0.5778440000000  0.5137310000000  0.5167530000000 1.0
C      1  0.4489100000000  0.4393620000000  0.5164720000000 1.0
C      1  0.4729960000000  0.5741960000000  0.5164090000000 1.0
C      1  0.5779200000000  0.4859190000000  0.5170300000000 1.0
C      1  0.4978340000000  0.4472720000000  0.5168060000000 1.0
C      1  0.5466300000000  0.5240730000000  0.5160400000000 1.0
C      1  0.4556320000000  0.5282850000000  0.5163790000000 1.0
C      1  0.4974650000000  0.5524400000000  0.5164560000000 1.0
C      1  0.5464430000000  0.4761550000000  0.5157930000000 1.0
C      1  0.4558880000000  0.4713910000000  0.5163800000000 1.0
C      1  0.4854180000000  0.4742520000000  0.5199230000000 1.0
C      1  0.4851550000000  0.5254410000000  0.5197880000000 1.0
C      1  0.5291750000000  0.5001540000000  0.5193740000000 1.0
C      1  0.4998320000000  0.4999400000000  0.5202380000000 1.0
END
