TITL C-2441165-58-198 0.222468400922353 125000 -17081.6318316493 0 0 155 (C1) n - 1
REM
REM in /home/bkarasulu/work/CARBON/AIRSS/Generating-Clusters/ReaxFF-fromJPCA2015/Units_Real/with-SteepDescent/Higher-Symm
REM
REM
REM
REM
REM
REM ./C.cell (1df0a924f5614ab8850e4351716899ee)
REM
REM compiler GCC version 9.2.1 20190827 (Red Hat 9.2.1-1)
REM options -cpp -mtune=generic -march=x86-64 -g -O0 -fpre-include=/usr/include/finclude/math-vector-fortran.h
REM seed -1241395042 1475309445 1226560452 -1968739615 2099275169 -1321921817 -418141327 1709581128 -1938048308 701862596 1450982523 -789801115 1159008848 532463392 -2090508512 27088339 -1342532499 -1895596150 1316059238 -292499527 1898098650 696614469 -267881464 1390550288 1202987106 -1932391684 424068472 374413148 -883309653 1268170144 -364722342 1220201338 -1902971170
REM
CELL 1.54180   50.00000   50.00000   50.00000   90.00000   90.00000   90.00000
LATT -1
SFAC C  
C      1  0.4665990000000  0.5355760000000  0.5413330000000 1.0
C      1  0.4588150000000  0.5545060000000  0.4782670000000 1.0
C      1  0.4880350000000  0.5577120000000  0.5058500000000 1.0
C      1  0.5436490000000  0.5856050000000  0.4860500000000 1.0
C      1  0.5304590000000  0.4614960000000  0.5311610000000 1.0
C      1  0.5289170000000  0.5185270000000  0.4825120000000 1.0
C      1  0.5318410000000  0.4829610000000  0.5465710000000 1.0
C      1  0.5577190000000  0.5517380000000  0.5474090000000 1.0
C      1  0.4514780000000  0.4866810000000  0.5825440000000 1.0
C      1  0.5853320000000  0.5587960000000  0.5084470000000 1.0
C      1  0.5799360000000  0.4713090000000  0.5476500000000 1.0
C      1  0.4602250000000  0.5073690000000  0.5465160000000 1.0
C      1  0.4889180000000  0.4626710000000  0.5713430000000 1.0
C      1  0.5624640000000  0.4238760000000  0.4909200000000 1.0
C      1  0.4261990000000  0.4283220000000  0.4830840000000 1.0
C      1  0.5214010000000  0.4288330000000  0.4829080000000 1.0
C      1  0.4194480000000  0.4789440000000  0.4545470000000 1.0
C      1  0.4773780000000  0.5317210000000  0.4425650000000 1.0
C      1  0.5798270000000  0.4618980000000  0.4788820000000 1.0
C      1  0.5479540000000  0.5024370000000  0.4646660000000 1.0
C      1  0.4658040000000  0.4161610000000  0.5404810000000 1.0
C      1  0.4705200000000  0.5902570000000  0.5424940000000 1.0
C      1  0.5816740000000  0.5149410000000  0.5310850000000 1.0
C      1  0.5762530000000  0.4668770000000  0.5190360000000 1.0
C      1  0.5414040000000  0.5588880000000  0.5229370000000 1.0
C      1  0.5356710000000  0.4173640000000  0.5357380000000 1.0
C      1  0.4691600000000  0.4501690000000  0.4331940000000 1.0
C      1  0.5196770000000  0.4181850000000  0.4534680000000 1.0
C      1  0.4610670000000  0.4563270000000  0.5022300000000 1.0
C      1  0.5873650000000  0.5038360000000  0.4919060000000 1.0
C      1  0.5741410000000  0.5198280000000  0.4497740000000 1.0
C      1  0.5482960000000  0.4665040000000  0.5087340000000 1.0
C      1  0.5190670000000  0.5846010000000  0.5496410000000 1.0
C      1  0.5076350000000  0.5303180000000  0.5904920000000 1.0
C      1  0.4238910000000  0.4955750000000  0.4324480000000 1.0
C      1  0.4192670000000  0.5293110000000  0.5276990000000 1.0
C      1  0.4602650000000  0.4952260000000  0.4756090000000 1.0
C      1  0.5101870000000  0.4678920000000  0.5135180000000 1.0
C      1  0.4225000000000  0.5356580000000  0.4585690000000 1.0
C      1  0.4426360000000  0.4191010000000  0.5059580000000 1.0
C      1  0.4204970000000  0.4569510000000  0.4890480000000 1.0
C      1  0.5333730000000  0.5440130000000  0.4309520000000 1.0
C      1  0.4264420000000  0.5240480000000  0.4328420000000 1.0
C      1  0.4839810000000  0.4511760000000  0.4814680000000 1.0
C      1  0.5071660000000  0.5971950000000  0.4593060000000 1.0
C      1  0.5675430000000  0.4865220000000  0.4807830000000 1.0
C      1  0.5119700000000  0.5949930000000  0.5249480000000 1.0
C      1  0.4058920000000  0.5352190000000  0.5032980000000 1.0
C      1  0.4673240000000  0.4546260000000  0.4044990000000 1.0
C      1  0.4593050000000  0.4602850000000  0.5707950000000 1.0
C      1  0.5974230000000  0.5050900000000  0.4628970000000 1.0
C      1  0.5133790000000  0.4370620000000  0.4175950000000 1.0
C      1  0.4757080000000  0.4896040000000  0.4500620000000 1.0
C      1  0.4975950000000  0.4194580000000  0.4355850000000 1.0
C      1  0.5446170000000  0.5262800000000  0.5500850000000 1.0
C      1  0.4510290000000  0.4908590000000  0.4265970000000 1.0
C      1  0.5225870000000  0.4258360000000  0.5593220000000 1.0
C      1  0.5816960000000  0.4403210000000  0.5055060000000 1.0
C      1  0.4345700000000  0.5041860000000  0.5652790000000 1.0
C      1  0.4656900000000  0.5543670000000  0.5792740000000 1.0
C      1  0.5075020000000  0.5188010000000  0.5234020000000 1.0
C      1  0.4089440000000  0.5194010000000  0.4810530000000 1.0
C      1  0.5116780000000  0.5474370000000  0.5209760000000 1.0
C      1  0.5003200000000  0.5062710000000  0.4491530000000 1.0
C      1  0.4036500000000  0.4789920000000  0.4786160000000 1.0
C      1  0.4524640000000  0.5341490000000  0.4242050000000 1.0
C      1  0.4879420000000  0.4088040000000  0.5207100000000 1.0
C      1  0.5120330000000  0.5025020000000  0.5453920000000 1.0
C      1  0.5336090000000  0.5655420000000  0.5651480000000 1.0
C      1  0.4285910000000  0.5499500000000  0.5098270000000 1.0
C      1  0.4913030000000  0.5678860000000  0.4223050000000 1.0
C      1  0.5842160000000  0.5444630000000  0.5336770000000 1.0
C      1  0.5629840000000  0.4292000000000  0.5321580000000 1.0
C      1  0.4964800000000  0.4357210000000  0.5623380000000 1.0
C      1  0.4851850000000  0.5243470000000  0.4879100000000 1.0
C      1  0.5120350000000  0.5429810000000  0.4750770000000 1.0
C      1  0.5460990000000  0.5570790000000  0.4535910000000 1.0
C      1  0.4622500000000  0.5892660000000  0.4952320000000 1.0
C      1  0.4549420000000  0.4594810000000  0.5404540000000 1.0
C      1  0.4252600000000  0.5310730000000  0.5552650000000 1.0
C      1  0.5305070000000  0.5835720000000  0.4483530000000 1.0
C      1  0.4766230000000  0.4534320000000  0.5265670000000 1.0
C      1  0.4883070000000  0.4731080000000  0.3965340000000 1.0
C      1  0.4923820000000  0.5476340000000  0.5482820000000 1.0
C      1  0.5561780000000  0.5113230000000  0.5731610000000 1.0
C      1  0.4881440000000  0.4758720000000  0.5240430000000 1.0
C      1  0.4602260000000  0.5112480000000  0.4083420000000 1.0
C      1  0.4949850000000  0.5395650000000  0.4239670000000 1.0
C      1  0.4994750000000  0.5851040000000  0.4836080000000 1.0
C      1  0.5146400000000  0.5037360000000  0.5966550000000 1.0
C      1  0.5445970000000  0.4987480000000  0.4180650000000 1.0
C      1  0.5378750000000  0.4925950000000  0.5862930000000 1.0
C      1  0.4809250000000  0.5525250000000  0.4607360000000 1.0
C      1  0.5100160000000  0.4711390000000  0.4696600000000 1.0
C      1  0.5474130000000  0.5388850000000  0.5909410000000 1.0
C      1  0.4700160000000  0.5027340000000  0.5964970000000 1.0
C      1  0.5790090000000  0.4992590000000  0.5557280000000 1.0
C      1  0.4158820000000  0.4830160000000  0.5511390000000 1.0
C      1  0.5374070000000  0.4578230000000  0.4776290000000 1.0
C      1  0.5051380000000  0.5018810000000  0.4765090000000 1.0
C      1  0.4475640000000  0.5744370000000  0.5359670000000 1.0
C      1  0.5053690000000  0.5225670000000  0.4038180000000 1.0
C      1  0.5082110000000  0.4654240000000  0.4158070000000 1.0
C      1  0.5390840000000  0.4075620000000  0.4953820000000 1.0
C      1  0.4860540000000  0.5018780000000  0.4022710000000 1.0
C      1  0.4578120000000  0.5518810000000  0.5181500000000 1.0
C      1  0.4404310000000  0.4627510000000  0.4679700000000 1.0
C      1  0.4704450000000  0.4117070000000  0.4980260000000 1.0
C      1  0.5036470000000  0.4445430000000  0.5008890000000 1.0
C      1  0.5361120000000  0.4947540000000  0.5063040000000 1.0
C      1  0.5391500000000  0.5892690000000  0.5136220000000 1.0
C      1  0.4709720000000  0.5744020000000  0.4430290000000 1.0
C      1  0.5256470000000  0.4472470000000  0.6023520000000 1.0
C      1  0.4823460000000  0.5717010000000  0.5628580000000 1.0
C      1  0.5203700000000  0.5683080000000  0.4856250000000 1.0
C      1  0.4417530000000  0.4344030000000  0.4593930000000 1.0
C      1  0.4168410000000  0.4968890000000  0.4970970000000 1.0
C      1  0.5336070000000  0.5241360000000  0.4091370000000 1.0
C      1  0.4810590000000  0.5981360000000  0.5157720000000 1.0
C      1  0.4405760000000  0.5578120000000  0.4560820000000 1.0
C      1  0.4500110000000  0.4874640000000  0.5259000000000 1.0
C      1  0.4076510000000  0.4834820000000  0.5233240000000 1.0
C      1  0.5405720000000  0.4428480000000  0.5727800000000 1.0
C      1  0.5321370000000  0.4706020000000  0.5694260000000 1.0
C      1  0.5734840000000  0.4458640000000  0.4578020000000 1.0
C      1  0.5737100000000  0.5498120000000  0.4568400000000 1.0
C      1  0.4941070000000  0.4668350000000  0.4421790000000 1.0
C      1  0.5910090000000  0.5481470000000  0.4804470000000 1.0
C      1  0.4780940000000  0.5941300000000  0.4641890000000 1.0
C      1  0.4425720000000  0.5546410000000  0.5592060000000 1.0
C      1  0.5727880000000  0.4977030000000  0.4284250000000 1.0
C      1  0.5328950000000  0.4383740000000  0.4377890000000 1.0
C      1  0.4468020000000  0.4640620000000  0.4217160000000 1.0
C      1  0.4725510000000  0.4930210000000  0.5064380000000 1.0
C      1  0.4867450000000  0.5147700000000  0.5094340000000 1.0
C      1  0.4402920000000  0.4335430000000  0.5311490000000 1.0
C      1  0.5714290000000  0.5276090000000  0.4891980000000 1.0
C      1  0.5667080000000  0.4452100000000  0.5546930000000 1.0
C      1  0.5176440000000  0.4058700000000  0.5171220000000 1.0
C      1  0.4936470000000  0.4879930000000  0.6052280000000 1.0
C      1  0.5513660000000  0.5109360000000  0.5247920000000 1.0
C      1  0.4868320000000  0.4909400000000  0.5532730000000 1.0
C      1  0.5576410000000  0.4484060000000  0.4336750000000 1.0
C      1  0.5581430000000  0.5483090000000  0.5031750000000 1.0
C      1  0.5201140000000  0.5697740000000  0.4247610000000 1.0
C      1  0.4792030000000  0.4238400000000  0.4734270000000 1.0
C      1  0.5287170000000  0.4971960000000  0.4422020000000 1.0
C      1  0.5716620000000  0.4716980000000  0.4395430000000 1.0
C      1  0.4565960000000  0.5234020000000  0.4821710000000 1.0
C      1  0.4671770000000  0.4212350000000  0.4469840000000 1.0
C      1  0.5165750000000  0.5407610000000  0.5643220000000 1.0
C      1  0.5015480000000  0.4609990000000  0.5987180000000 1.0
C      1  0.4163690000000  0.4590240000000  0.5360550000000 1.0
C      1  0.4697120000000  0.4281530000000  0.5660320000000 1.0
C      1  0.4783550000000  0.5309060000000  0.5904590000000 1.0
END
