TITL C-2441164-471-848 0.0108808739135057 125000 -8283.7589020109 0 0 59 (C1) n - 1
REM
REM in /home/bkarasulu/work/CARBON/AIRSS/Generating-Clusters/ReaxFF-fromJPCA2015/Units_Real/with-SteepDescent/Higher-Symm
REM
REM
REM
REM
REM
REM ./C.cell (1df0a924f5614ab8850e4351716899ee)
REM
REM compiler GCC version 9.2.1 20190827 (Red Hat 9.2.1-1)
REM options -cpp -mtune=generic -march=x86-64 -g -O0 -fpre-include=/usr/include/finclude/math-vector-fortran.h
REM seed -410614044 446431922 -1049022580 -1040558553 1414232095 474858825 1274918188 487468945 1577918492 713823517 466582928 -1304153770 14622110 -160374215 -2087690691 272250891 -53748457 -1653893483 2038579641 88600578 -1675687176 97677614 -655107986 1751137252 1236030591 -182183319 1500851069 337761009 -1711512698 1597755374 987201931 1218860437 5861660
REM
CELL 1.54180   50.00000   50.00000   50.00000   90.00000   90.00000   90.00000
LATT -1
SFAC C  
C      1  0.4461170000000  0.4753300000000  0.4588600000000 1.0
C      1  0.5602700000000  0.5009910000000  0.5152450000000 1.0
C      1  0.5092160000000  0.4852720000000  0.5030600000000 1.0
C      1  0.5575110000000  0.4868140000000  0.4895980000000 1.0
C      1  0.4541870000000  0.4938270000000  0.5561020000000 1.0
C      1  0.5589550000000  0.5007100000000  0.4636910000000 1.0
C      1  0.4574590000000  0.4676350000000  0.5108700000000 1.0
C      1  0.5135150000000  0.5350050000000  0.5531180000000 1.0
C      1  0.5028670000000  0.5206580000000  0.5296420000000 1.0
C      1  0.4984590000000  0.5597650000000  0.5413290000000 1.0
C      1  0.5094180000000  0.4563670000000  0.5580530000000 1.0
C      1  0.4508750000000  0.4597520000000  0.4832150000000 1.0
C      1  0.4404990000000  0.5170040000000  0.4856210000000 1.0
C      1  0.5434050000000  0.4901540000000  0.5367880000000 1.0
C      1  0.5295920000000  0.4267470000000  0.4948300000000 1.0
C      1  0.4482050000000  0.5122570000000  0.5374270000000 1.0
C      1  0.4727120000000  0.5590480000000  0.5240970000000 1.0
C      1  0.4813500000000  0.4271700000000  0.5028500000000 1.0
C      1  0.5000210000000  0.5654510000000  0.5137630000000 1.0
C      1  0.4798580000000  0.4521660000000  0.5165630000000 1.0
C      1  0.5461110000000  0.5307800000000  0.5490960000000 1.0
C      1  0.4994300000000  0.5278150000000  0.4282840000000 1.0
C      1  0.5147950000000  0.4783320000000  0.4470010000000 1.0
C      1  0.4695720000000  0.4575450000000  0.4608950000000 1.0
C      1  0.4922740000000  0.4149070000000  0.5270270000000 1.0
C      1  0.5239240000000  0.5431000000000  0.4581890000000 1.0
C      1  0.4446730000000  0.4843770000000  0.5308320000000 1.0
C      1  0.5317580000000  0.4717830000000  0.4897660000000 1.0
C      1  0.5271550000000  0.5235100000000  0.4345750000000 1.0
C      1  0.5138230000000  0.5384690000000  0.5042930000000 1.0
C      1  0.4519900000000  0.5430710000000  0.4527450000000 1.0
C      1  0.4650810000000  0.5114290000000  0.5004130000000 1.0
C      1  0.4651960000000  0.5610260000000  0.4922950000000 1.0
C      1  0.5574400000000  0.5296940000000  0.5217860000000 1.0
C      1  0.4420520000000  0.5462110000000  0.4838440000000 1.0
C      1  0.4554000000000  0.5172320000000  0.4393640000000 1.0
C      1  0.5046380000000  0.4827570000000  0.5713270000000 1.0
C      1  0.5002400000000  0.4571310000000  0.4572770000000 1.0
C      1  0.5058920000000  0.4109410000000  0.5014110000000 1.0
C      1  0.4982410000000  0.5519620000000  0.4451100000000 1.0
C      1  0.5356360000000  0.4970010000000  0.4434950000000 1.0
C      1  0.5534760000000  0.5053310000000  0.5618880000000 1.0
C      1  0.5234880000000  0.4481950000000  0.4747770000000 1.0
C      1  0.4710430000000  0.5258040000000  0.5258520000000 1.0
C      1  0.5306160000000  0.4471940000000  0.5427520000000 1.0
C      1  0.5371730000000  0.4367920000000  0.5205420000000 1.0
C      1  0.5098400000000  0.5267000000000  0.4777450000000 1.0
C      1  0.5435330000000  0.5486520000000  0.5044600000000 1.0
C      1  0.4750100000000  0.5580920000000  0.4618960000000 1.0
C      1  0.4841510000000  0.4924730000000  0.4906360000000 1.0
C      1  0.4899480000000  0.4412300000000  0.5410840000000 1.0
C      1  0.4791690000000  0.4964410000000  0.5699760000000 1.0
C      1  0.4829850000000  0.5062480000000  0.4394290000000 1.0
C      1  0.4927010000000  0.5072190000000  0.4676700000000 1.0
C      1  0.5031880000000  0.5114410000000  0.5696520000000 1.0
C      1  0.5157490000000  0.4955660000000  0.5279250000000 1.0
C      1  0.4381820000000  0.5037770000000  0.4590510000000 1.0
C      1  0.5494330000000  0.5514090000000  0.4764000000000 1.0
C      1  0.5605020000000  0.5262390000000  0.4745220000000 1.0
END
