TITL C-2441161-5029-417 0.0328082766679473 125000 -10417.7452584663 0 0 76 (C1) n - 1
REM
REM in /home/bkarasulu/work/CARBON/AIRSS/Generating-Clusters/ReaxFF-fromJPCA2015/Units_Real/with-SteepDescent/Higher-Symm
REM
REM
REM
REM
REM
REM ./C.cell (1df0a924f5614ab8850e4351716899ee)
REM
REM compiler GCC version 9.2.1 20190827 (Red Hat 9.2.1-1)
REM options -cpp -mtune=generic -march=x86-64 -g -O0 -fpre-include=/usr/include/finclude/math-vector-fortran.h
REM seed 2039839319 109311805 1470870 -1472057298 -2079504347 850899771 1798146371 1683093991 -420007306 583487205 -989056860 799323365 1523868422 -1165615755 1803885573 1678515854 712603980 865625373 2012836406 1089874233 -49008819 -263070076 -1530670177 1970717447 -1985017663 -1312879333 1255580585 1529107696 -529552086 -33758065 1935308998 -152564162 2048443078
REM
CELL 1.54180   50.00000   50.00000   50.00000   90.00000   90.00000   90.00000
LATT -1
SFAC C  
C      1  0.4819070000000  0.5214350000000  0.5662850000000 1.0
C      1  0.4496970000000  0.5211220000000  0.4511730000000 1.0
C      1  0.5679430000000  0.5214380000000  0.4823710000000 1.0
C      1  0.4377560000000  0.4435290000000  0.5128060000000 1.0
C      1  0.5220440000000  0.4397380000000  0.4412130000000 1.0
C      1  0.5410990000000  0.4392850000000  0.5469450000000 1.0
C      1  0.4824660000000  0.4927620000000  0.5719110000000 1.0
C      1  0.4455180000000  0.4923730000000  0.4473900000000 1.0
C      1  0.5722980000000  0.4923290000000  0.4795090000000 1.0
C      1  0.4939180000000  0.4536500000000  0.5618900000000 1.0
C      1  0.4482000000000  0.4530850000000  0.4600270000000 1.0
C      1  0.5588550000000  0.4536080000000  0.4745500000000 1.0
C      1  0.4600120000000  0.5623950000000  0.5397010000000 1.0
C      1  0.4852840000000  0.5610980000000  0.4460380000000 1.0
C      1  0.5543760000000  0.5615860000000  0.5145190000000 1.0
C      1  0.5373870000000  0.4358710000000  0.4660890000000 1.0
C      1  0.5112280000000  0.4355150000000  0.5473220000000 1.0
C      1  0.4605000000000  0.4367080000000  0.4807990000000 1.0
C      1  0.4596630000000  0.5374930000000  0.5560290000000 1.0
C      1  0.4709490000000  0.5364170000000  0.4379260000000 1.0
C      1  0.5691620000000  0.5370410000000  0.5073360000000 1.0
C      1  0.5172770000000  0.5122670000000  0.5966420000000 1.0
C      1  0.4122810000000  0.5162330000000  0.4658580000000 1.0
C      1  0.5714390000000  0.5168060000000  0.4425930000000 1.0
C      1  0.5209830000000  0.5522520000000  0.5471280000000 1.0
C      1  0.4501300000000  0.5513100000000  0.4936510000000 1.0
C      1  0.5302190000000  0.5498650000000  0.4602380000000 1.0
C      1  0.4728650000000  0.5668460000000  0.4946970000000 1.0
C      1  0.5180690000000  0.5662190000000  0.4794750000000 1.0
C      1  0.5089620000000  0.5654870000000  0.5259620000000 1.0
C      1  0.5498680000000  0.4789080000000  0.4662920000000 1.0
C      1  0.5054960000000  0.4808380000000  0.5544670000000 1.0
C      1  0.4437840000000  0.4787170000000  0.4741290000000 1.0
C      1  0.4641190000000  0.4398770000000  0.5101110000000 1.0
C      1  0.5086910000000  0.4371040000000  0.4651790000000 1.0
C      1  0.5268420000000  0.4388220000000  0.5221080000000 1.0
C      1  0.5301080000000  0.5124600000000  0.5736930000000 1.0
C      1  0.4238140000000  0.5121310000000  0.4899290000000 1.0
C      1  0.5452320000000  0.5106470000000  0.4409650000000 1.0
C      1  0.4298810000000  0.4876460000000  0.5067890000000 1.0
C      1  0.5262900000000  0.4868310000000  0.4384610000000 1.0
C      1  0.5382310000000  0.4886860000000  0.5529610000000 1.0
C      1  0.5091640000000  0.5302770000000  0.5603590000000 1.0
C      1  0.4521940000000  0.5258550000000  0.4808320000000 1.0
C      1  0.5418440000000  0.5249790000000  0.4697050000000 1.0
C      1  0.5250690000000  0.4627610000000  0.5060160000000 1.0
C      1  0.4829070000000  0.4597120000000  0.5224510000000 1.0
C      1  0.4862810000000  0.4531260000000  0.4763960000000 1.0
C      1  0.4784550000000  0.5075960000000  0.4884240000000 1.0
C      1  0.5273080000000  0.5084550000000  0.4992950000000 1.0
C      1  0.4993850000000  0.5076400000000  0.5092180000000 1.0
C      1  0.5140210000000  0.4632220000000  0.4266250000000 1.0
C      1  0.5554660000000  0.4648430000000  0.5476240000000 1.0
C      1  0.4256680000000  0.4634080000000  0.5278870000000 1.0
C      1  0.5732670000000  0.4685720000000  0.4964560000000 1.0
C      1  0.4675460000000  0.4686100000000  0.5651370000000 1.0
C      1  0.4597270000000  0.4689950000000  0.4376670000000 1.0
C      1  0.5276980000000  0.5685660000000  0.5052160000000 1.0
C      1  0.4816720000000  0.5694210000000  0.5213040000000 1.0
C      1  0.4906470000000  0.5694440000000  0.4735120000000 1.0
C      1  0.5303370000000  0.4828010000000  0.4867310000000 1.0
C      1  0.4928840000000  0.4858380000000  0.5274440000000 1.0
C      1  0.4733790000000  0.4830550000000  0.4783370000000 1.0
C      1  0.5652240000000  0.4768670000000  0.5232090000000 1.0
C      1  0.4456940000000  0.4756980000000  0.5467910000000 1.0
C      1  0.4875590000000  0.4750550000000  0.4307300000000 1.0
C      1  0.5107140000000  0.5484110000000  0.4384160000000 1.0
C      1  0.5494840000000  0.5500890000000  0.5412730000000 1.0
C      1  0.4405220000000  0.5505600000000  0.5210640000000 1.0
C      1  0.4405040000000  0.5257550000000  0.5371900000000 1.0
C      1  0.4959380000000  0.5243640000000  0.4320760000000 1.0
C      1  0.5617470000000  0.5254810000000  0.5319780000000 1.0
C      1  0.5007950000000  0.4987960000000  0.4411990000000 1.0
C      1  0.5470280000000  0.5022290000000  0.5264630000000 1.0
C      1  0.4477180000000  0.4983720000000  0.5279850000000 1.0
C      1  0.4986820000000  0.4552740000000  0.5007350000000 1.0
END
