TITL C-2441162-9305-1244 0.0904658844033164 125000 -25688.724626801 0 0 185 (C1) n - 1
REM
REM in /home/bkarasulu/work/CARBON/AIRSS/Generating-Clusters/ReaxFF-fromJPCA2015/Units_Real/with-SteepDescent/Higher-Symm
REM
REM
REM
REM
REM
REM ./C.cell (1df0a924f5614ab8850e4351716899ee)
REM
REM compiler GCC version 9.2.1 20190827 (Red Hat 9.2.1-1)
REM options -cpp -mtune=generic -march=x86-64 -g -O0 -fpre-include=/usr/include/finclude/math-vector-fortran.h
REM seed 1858930877 -1889102206 -603444372 1479756682 1166556670 241150173 969058524 -262633574 793748944 931192711 -699450923 -886991978 1552443278 2046189465 1439115086 -562936451 26661235 -2084505166 -123976997 -1535305738 1373100212 -1163563426 712942389 1160431440 -925806339 -1255314071 -1549272535 -835807131 -2931285 340380176 1936762660 -750135909 -2001976860
REM
CELL 1.54180   50.00000   50.00000   50.00000   90.00000   90.00000   90.00000
LATT -1
SFAC C  
C      1  0.4719910000000  0.5292940000000  0.4423450000000 1.0
C      1  0.4694200000000  0.4753250000000  0.4437730000000 1.0
C      1  0.4709940000000  0.4388880000000  0.4838090000000 1.0
C      1  0.4701680000000  0.4482490000000  0.5377260000000 1.0
C      1  0.4705600000000  0.4948180000000  0.5639400000000 1.0
C      1  0.4693100000000  0.5501270000000  0.5415930000000 1.0
C      1  0.4693390000000  0.5630000000000  0.4865250000000 1.0
C      1  0.6008600000000  0.5178330000000  0.4434740000000 1.0
C      1  0.5934690000000  0.4612410000000  0.4476760000000 1.0
C      1  0.5970010000000  0.4365690000000  0.4984860000000 1.0
C      1  0.5963920000000  0.4581410000000  0.5504220000000 1.0
C      1  0.5974710000000  0.5116600000000  0.5614700000000 1.0
C      1  0.5937720000000  0.5577570000000  0.5309940000000 1.0
C      1  0.5974140000000  0.5605370000000  0.4753780000000 1.0
C      1  0.4842960000000  0.5396920000000  0.3971050000000 1.0
C      1  0.4798430000000  0.4420080000000  0.4066430000000 1.0
C      1  0.4802460000000  0.3930530000000  0.4676270000000 1.0
C      1  0.4816180000000  0.4220960000000  0.5775020000000 1.0
C      1  0.4807890000000  0.4948580000000  0.6121280000000 1.0
C      1  0.4802070000000  0.5944680000000  0.5587370000000 1.0
C      1  0.4817820000000  0.6095270000000  0.4791920000000 1.0
C      1  0.4182040000000  0.5720950000000  0.4992500000000 1.0
C      1  0.4217480000000  0.5436710000000  0.4418440000000 1.0
C      1  0.4206000000000  0.4836800000000  0.4300220000000 1.0
C      1  0.4186450000000  0.4354750000000  0.4693080000000 1.0
C      1  0.4205300000000  0.4338890000000  0.5329780000000 1.0
C      1  0.4186470000000  0.4848860000000  0.5711540000000 1.0
C      1  0.4206090000000  0.5464760000000  0.5552940000000 1.0
C      1  0.4249900000000  0.5042630000000  0.5324800000000 1.0
C      1  0.4146050000000  0.5262880000000  0.5128970000000 1.0
C      1  0.4286350000000  0.5330540000000  0.4865580000000 1.0
C      1  0.4139060000000  0.5100010000000  0.4719960000000 1.0
C      1  0.4245310000000  0.4814150000000  0.4745240000000 1.0
C      1  0.4179150000000  0.4662930000000  0.4998860000000 1.0
C      1  0.4163040000000  0.4771190000000  0.5254400000000 1.0
C      1  0.5302080000000  0.4470090000000  0.4099240000000 1.0
C      1  0.5345940000000  0.3948280000000  0.4879870000000 1.0
C      1  0.5316680000000  0.4246940000000  0.5705850000000 1.0
C      1  0.5363700000000  0.5109060000000  0.6021140000000 1.0
C      1  0.5314230000000  0.5889120000000  0.5559770000000 1.0
C      1  0.5354270000000  0.5996100000000  0.4644700000000 1.0
C      1  0.5354010000000  0.5373740000000  0.4035170000000 1.0
C      1  0.5952600000000  0.5337330000000  0.4642000000000 1.0
C      1  0.5882830000000  0.4924820000000  0.4398880000000 1.0
C      1  0.5950650000000  0.4569450000000  0.4760990000000 1.0
C      1  0.5922230000000  0.4527690000000  0.5218220000000 1.0
C      1  0.5926580000000  0.4866870000000  0.5489150000000 1.0
C      1  0.5878740000000  0.5320020000000  0.5443120000000 1.0
C      1  0.5939810000000  0.5495560000000  0.5030640000000 1.0
C      1  0.5128080000000  0.5944560000000  0.4833820000000 1.0
C      1  0.5082390000000  0.5441050000000  0.4136720000000 1.0
C      1  0.5010830000000  0.4637950000000  0.4091800000000 1.0
C      1  0.5058520000000  0.4047600000000  0.4803010000000 1.0
C      1  0.5030380000000  0.4193410000000  0.5562100000000 1.0
C      1  0.5150340000000  0.4924990000000  0.5952460000000 1.0
C      1  0.5045880000000  0.5780550000000  0.5629280000000 1.0
C      1  0.4368580000000  0.5631490000000  0.5721810000000 1.0
C      1  0.4347960000000  0.5954110000000  0.4973210000000 1.0
C      1  0.4387880000000  0.5567650000000  0.4227010000000 1.0
C      1  0.4373200000000  0.4752890000000  0.4082090000000 1.0
C      1  0.4347790000000  0.4133020000000  0.4615980000000 1.0
C      1  0.4380550000000  0.4150910000000  0.5454270000000 1.0
C      1  0.4347510000000  0.4812090000000  0.5941840000000 1.0
C      1  0.4927210000000  0.5061940000000  0.4733600000000 1.0
C      1  0.4998520000000  0.4809210000000  0.4789830000000 1.0
C      1  0.4893650000000  0.4738830000000  0.5016450000000 1.0
C      1  0.5003740000000  0.4893200000000  0.5244910000000 1.0
C      1  0.4952640000000  0.5164290000000  0.5340410000000 1.0
C      1  0.4914860000000  0.5317370000000  0.5114420000000 1.0
C      1  0.5043820000000  0.5177660000000  0.4925360000000 1.0
C      1  0.5364500000000  0.4961270000000  0.4624010000000 1.0
C      1  0.5271780000000  0.4728560000000  0.4776280000000 1.0
C      1  0.5364950000000  0.4633350000000  0.5100080000000 1.0
C      1  0.5400580000000  0.4756310000000  0.5357860000000 1.0
C      1  0.5390470000000  0.5226230000000  0.5230420000000 1.0
C      1  0.5357270000000  0.5443300000000  0.5048380000000 1.0
C      1  0.5388420000000  0.5333680000000  0.4782580000000 1.0
C      1  0.5598350000000  0.5882830000000  0.5057460000000 1.0
C      1  0.5609530000000  0.5561270000000  0.4378070000000 1.0
C      1  0.5580060000000  0.4839110000000  0.4098330000000 1.0
C      1  0.5596080000000  0.4240470000000  0.4571850000000 1.0
C      1  0.5608590000000  0.4201300000000  0.5321490000000 1.0
C      1  0.5609750000000  0.4760550000000  0.5830780000000 1.0
C      1  0.5564560000000  0.5490970000000  0.5688840000000 1.0
C      1  0.5290260000000  0.5425590000000  0.5743920000000 1.0
C      1  0.5331130000000  0.5978550000000  0.5075730000000 1.0
C      1  0.5330600000000  0.5633440000000  0.4420710000000 1.0
C      1  0.5312790000000  0.4949560000000  0.4121130000000 1.0
C      1  0.5320480000000  0.4283380000000  0.4488700000000 1.0
C      1  0.5331250000000  0.4175540000000  0.5251590000000 1.0
C      1  0.5318500000000  0.4695000000000  0.5869590000000 1.0
C      1  0.5216140000000  0.4224780000000  0.4217740000000 1.0
C      1  0.5255270000000  0.3903930000000  0.5158480000000 1.0
C      1  0.5223020000000  0.4410020000000  0.5917920000000 1.0
C      1  0.5218180000000  0.5365200000000  0.6027850000000 1.0
C      1  0.5216120000000  0.6041240000000  0.5333690000000 1.0
C      1  0.5223730000000  0.5906250000000  0.4405100000000 1.0
C      1  0.5247280000000  0.5134990000000  0.3904120000000 1.0
C      1  0.4625980000000  0.4664650000000  0.4958570000000 1.0
C      1  0.4575450000000  0.4674150000000  0.5229140000000 1.0
C      1  0.4555890000000  0.4908400000000  0.5357860000000 1.0
C      1  0.4642740000000  0.5332870000000  0.5143620000000 1.0
C      1  0.4573050000000  0.5365330000000  0.4888790000000 1.0
C      1  0.4653940000000  0.5151250000000  0.4680390000000 1.0
C      1  0.4550930000000  0.4850520000000  0.4692220000000 1.0
C      1  0.5098390000000  0.5250590000000  0.5579580000000 1.0
C      1  0.5100860000000  0.5577710000000  0.5115710000000 1.0
C      1  0.5175980000000  0.5464180000000  0.4614170000000 1.0
C      1  0.5179010000000  0.4980210000000  0.4388480000000 1.0
C      1  0.5144280000000  0.4497140000000  0.4611950000000 1.0
C      1  0.5165890000000  0.4407880000000  0.5147870000000 1.0
C      1  0.5186500000000  0.4714130000000  0.5550790000000 1.0
C      1  0.5023740000000  0.5286920000000  0.4383000000000 1.0
C      1  0.4993850000000  0.4710650000000  0.4400210000000 1.0
C      1  0.5011390000000  0.4352040000000  0.4849530000000 1.0
C      1  0.5012650000000  0.4473080000000  0.5419260000000 1.0
C      1  0.5014220000000  0.4975120000000  0.5692120000000 1.0
C      1  0.4975040000000  0.5578370000000  0.5427080000000 1.0
C      1  0.5001440000000  0.5651130000000  0.4836850000000 1.0
C      1  0.4783450000000  0.6066330000000  0.5085930000000 1.0
C      1  0.4792320000000  0.5818760000000  0.4285980000000 1.0
C      1  0.4868130000000  0.4885540000000  0.3981900000000 1.0
C      1  0.4778840000000  0.4089410000000  0.4436660000000 1.0
C      1  0.4889460000000  0.4023410000000  0.5324260000000 1.0
C      1  0.4808550000000  0.4679130000000  0.6007130000000 1.0
C      1  0.4839440000000  0.5435480000000  0.5926000000000 1.0
C      1  0.5763330000000  0.4175030000000  0.5061230000000 1.0
C      1  0.5740840000000  0.4543200000000  0.5689730000000 1.0
C      1  0.5776510000000  0.5270850000000  0.5780340000000 1.0
C      1  0.5738980000000  0.5783590000000  0.5302720000000 1.0
C      1  0.5762960000000  0.5714490000000  0.4587690000000 1.0
C      1  0.5747050000000  0.5072750000000  0.4159160000000 1.0
C      1  0.5741350000000  0.4428420000000  0.4389270000000 1.0
C      1  0.4507780000000  0.5734280000000  0.4665150000000 1.0
C      1  0.4520110000000  0.5182570000000  0.4235290000000 1.0
C      1  0.4502950000000  0.4519080000000  0.4387230000000 1.0
C      1  0.4522780000000  0.4204280000000  0.4986140000000 1.0
C      1  0.4515070000000  0.4499530000000  0.5612210000000 1.0
C      1  0.4517820000000  0.5149230000000  0.5772670000000 1.0
C      1  0.4490360000000  0.5700040000000  0.5342860000000 1.0
C      1  0.5779460000000  0.5268180000000  0.5021840000000 1.0
C      1  0.5669770000000  0.5221980000000  0.4772940000000 1.0
C      1  0.5649720000000  0.4954920000000  0.4663870000000 1.0
C      1  0.5765590000000  0.4766030000000  0.4840760000000 1.0
C      1  0.5701030000000  0.4696960000000  0.5102830000000 1.0
C      1  0.5676510000000  0.4883020000000  0.5327520000000 1.0
C      1  0.5678680000000  0.5173890000000  0.5263180000000 1.0
C      1  0.5564800000000  0.4552310000000  0.4174000000000 1.0
C      1  0.5591540000000  0.4095190000000  0.4830120000000 1.0
C      1  0.5577820000000  0.4310720000000  0.5596640000000 1.0
C      1  0.5611010000000  0.5044650000000  0.5885270000000 1.0
C      1  0.5570110000000  0.5744430000000  0.5541990000000 1.0
C      1  0.5603940000000  0.5893330000000  0.4757590000000 1.0
C      1  0.5605750000000  0.5337470000000  0.4183250000000 1.0
C      1  0.4523020000000  0.5849150000000  0.5598860000000 1.0
C      1  0.4534380000000  0.6025330000000  0.4751270000000 1.0
C      1  0.4559170000000  0.5409820000000  0.4048370000000 1.0
C      1  0.4519830000000  0.4498200000000  0.4087940000000 1.0
C      1  0.4536430000000  0.3985940000000  0.4787500000000 1.0
C      1  0.4534000000000  0.4218140000000  0.5701180000000 1.0
C      1  0.4535290000000  0.5014250000000  0.6038730000000 1.0
C      1  0.4597810000000  0.5824090000000  0.5097570000000 1.0
C      1  0.4629590000000  0.5609910000000  0.4412300000000 1.0
C      1  0.4624310000000  0.4919060000000  0.4151390000000 1.0
C      1  0.4601650000000  0.4297840000000  0.4540970000000 1.0
C      1  0.4631400000000  0.4168670000000  0.5271720000000 1.0
C      1  0.4608600000000  0.4697710000000  0.5800910000000 1.0
C      1  0.4616930000000  0.5442970000000  0.5742280000000 1.0
C      1  0.4971310000000  0.3907620000000  0.5078750000000 1.0
C      1  0.4932480000000  0.4421060000000  0.5957420000000 1.0
C      1  0.4942650000000  0.5256390000000  0.6079550000000 1.0
C      1  0.4920480000000  0.6070200000000  0.5345480000000 1.0
C      1  0.4937960000000  0.5958920000000  0.4467630000000 1.0
C      1  0.4952190000000  0.5134600000000  0.3876230000000 1.0
C      1  0.4919530000000  0.4195920000000  0.4209030000000 1.0
C      1  0.4199600000000  0.4617960000000  0.4502220000000 1.0
C      1  0.4214100000000  0.4372910000000  0.4991920000000 1.0
C      1  0.4200920000000  0.4588700000000  0.5486650000000 1.0
C      1  0.4221810000000  0.5127080000000  0.5621760000000 1.0
C      1  0.4181380000000  0.5542970000000  0.5273450000000 1.0
C      1  0.4217960000000  0.5602250000000  0.4724110000000 1.0
C      1  0.4204790000000  0.5149810000000  0.4399360000000 1.0
C      1  0.4636410000000  0.5048580000000  0.5121960000000 1.0
C      1  0.5221570000000  0.5040900000000  0.5088180000000 1.0
C      1  0.3933600000000  0.5137700000000  0.4937380000000 1.0
END
