TITL C-2441156-4686-1028 0.0190800811523771 125000 -11766.1324310298 0 0 81 (C1) n - 1
REM
REM in /home/bkarasulu/work/CARBON/AIRSS/Generating-Clusters/ReaxFF-fromJPCA2015/Units_Real/with-SteepDescent/Higher-Symm
REM
REM
REM
REM
REM
REM ./C.cell (1df0a924f5614ab8850e4351716899ee)
REM
REM compiler GCC version 9.2.1 20190827 (Red Hat 9.2.1-1)
REM options -cpp -mtune=generic -march=x86-64 -g -O0 -fpre-include=/usr/include/finclude/math-vector-fortran.h
REM seed 898980270 -1933477158 -1868784766 1657420026 -590788774 -1595878321 116375874 -425667932 -1586503885 890168131 1190786411 625456227 1018900826 1911095127 -1200688086 -1945829557 351758418 1236688876 135085815 1403805209 -1695661905 1900694761 -154948268 1390766941 2030491790 -341326814 -1518247725 43760580 -1007569739 -161039683 1140615567 377531807 1781507007
REM
CELL 1.54180   50.00000   50.00000   50.00000   90.00000   90.00000   90.00000
LATT -1
SFAC C  
C      1  0.5074620000000  0.4178110000000  0.4787700000000 1.0
C      1  0.4894080000000  0.5586110000000  0.4435190000000 1.0
C      1  0.5017780000000  0.5255370000000  0.5834330000000 1.0
C      1  0.4849810000000  0.5764820000000  0.4857160000000 1.0
C      1  0.5121680000000  0.4493630000000  0.4425650000000 1.0
C      1  0.4977590000000  0.4659830000000  0.5889370000000 1.0
C      1  0.4063060000000  0.5156490000000  0.5084450000000 1.0
C      1  0.4015940000000  0.4873540000000  0.5106570000000 1.0
C      1  0.4002880000000  0.5018780000000  0.4861280000000 1.0
C      1  0.5931630000000  0.4901630000000  0.5014990000000 1.0
C      1  0.5934840000000  0.5149440000000  0.5041800000000 1.0
C      1  0.5878310000000  0.5062100000000  0.4760790000000 1.0
C      1  0.5755350000000  0.5306400000000  0.5184610000000 1.0
C      1  0.5751870000000  0.4732680000000  0.5146230000000 1.0
C      1  0.5617080000000  0.4911810000000  0.4638160000000 1.0
C      1  0.4241080000000  0.4705550000000  0.5183900000000 1.0
C      1  0.4321400000000  0.5289990000000  0.5112190000000 1.0
C      1  0.4209800000000  0.5012600000000  0.4674600000000 1.0
C      1  0.5072740000000  0.5093570000000  0.5222690000000 1.0
C      1  0.5153010000000  0.4798580000000  0.4908580000000 1.0
C      1  0.5166510000000  0.5099960000000  0.4947420000000 1.0
C      1  0.4843890000000  0.4902890000000  0.5182680000000 1.0
C      1  0.4960450000000  0.5308520000000  0.4876470000000 1.0
C      1  0.4852470000000  0.4818260000000  0.4892430000000 1.0
C      1  0.5656590000000  0.4545200000000  0.4944390000000 1.0
C      1  0.5704600000000  0.5319330000000  0.4712850000000 1.0
C      1  0.5639200000000  0.5150550000000  0.5402310000000 1.0
C      1  0.4350770000000  0.5459580000000  0.4882850000000 1.0
C      1  0.4329910000000  0.4745390000000  0.4684890000000 1.0
C      1  0.4358430000000  0.4875020000000  0.5395550000000 1.0
C      1  0.4407620000000  0.5160940000000  0.5361820000000 1.0
C      1  0.4352740000000  0.4590450000000  0.4937100000000 1.0
C      1  0.4322750000000  0.5279410000000  0.4651600000000 1.0
C      1  0.5625770000000  0.4860440000000  0.5378080000000 1.0
C      1  0.5640190000000  0.5454800000000  0.4960360000000 1.0
C      1  0.5593550000000  0.4626930000000  0.4660320000000 1.0
C      1  0.4573760000000  0.4804740000000  0.5579240000000 1.0
C      1  0.4571170000000  0.4666090000000  0.4534340000000 1.0
C      1  0.4584720000000  0.5634270000000  0.4848690000000 1.0
C      1  0.5412220000000  0.5219000000000  0.5574150000000 1.0
C      1  0.5461960000000  0.5347880000000  0.4559820000000 1.0
C      1  0.5425240000000  0.4377090000000  0.5001800000000 1.0
C      1  0.5418420000000  0.4760550000000  0.5551860000000 1.0
C      1  0.5390290000000  0.4448750000000  0.4535700000000 1.0
C      1  0.5423930000000  0.5639770000000  0.4923710000000 1.0
C      1  0.4590810000000  0.5276620000000  0.5550870000000 1.0
C      1  0.4521420000000  0.5346510000000  0.4463530000000 1.0
C      1  0.4541140000000  0.4372360000000  0.4891600000000 1.0
C      1  0.5187160000000  0.5299500000000  0.5403060000000 1.0
C      1  0.5266680000000  0.4602650000000  0.5093050000000 1.0
C      1  0.5384980000000  0.5061700000000  0.4559130000000 1.0
C      1  0.4759750000000  0.4697890000000  0.5376610000000 1.0
C      1  0.4704220000000  0.5352750000000  0.4969830000000 1.0
C      1  0.4724340000000  0.4888880000000  0.4638580000000 1.0
C      1  0.4703890000000  0.4254030000000  0.5106100000000 1.0
C      1  0.4718770000000  0.5118610000000  0.4404320000000 1.0
C      1  0.4714070000000  0.5555120000000  0.5549420000000 1.0
C      1  0.5249090000000  0.5746380000000  0.5131880000000 1.0
C      1  0.5262800000000  0.4963230000000  0.4308870000000 1.0
C      1  0.5254330000000  0.4513050000000  0.5423060000000 1.0
C      1  0.4966600000000  0.5828970000000  0.5112010000000 1.0
C      1  0.5088800000000  0.4535350000000  0.5669640000000 1.0
C      1  0.5066660000000  0.4743610000000  0.4281910000000 1.0
C      1  0.4983250000000  0.4170400000000  0.5069470000000 1.0
C      1  0.4903850000000  0.5480810000000  0.5738840000000 1.0
C      1  0.4911450000000  0.5329980000000  0.4313190000000 1.0
C      1  0.4865140000000  0.4941360000000  0.4189210000000 1.0
C      1  0.4907910000000  0.5692030000000  0.5376090000000 1.0
C      1  0.4782390000000  0.4403720000000  0.5353060000000 1.0
C      1  0.5074750000000  0.5143610000000  0.4167890000000 1.0
C      1  0.5055540000000  0.4297030000000  0.5333070000000 1.0
C      1  0.5186900000000  0.5591320000000  0.5375750000000 1.0
C      1  0.4692920000000  0.5043690000000  0.5692280000000 1.0
C      1  0.4658020000000  0.4398090000000  0.4624060000000 1.0
C      1  0.4629000000000  0.5603320000000  0.4541710000000 1.0
C      1  0.5301930000000  0.4979320000000  0.5697770000000 1.0
C      1  0.5322920000000  0.5577790000000  0.4669150000000 1.0
C      1  0.5351200000000  0.4247970000000  0.4743590000000 1.0
C      1  0.4992360000000  0.4977960000000  0.5769180000000 1.0
C      1  0.5034650000000  0.5595720000000  0.4688340000000 1.0
C      1  0.4933200000000  0.4321820000000  0.4573190000000 1.0
END
