TITL C-2441168-9922-776 0.0571992531021673 125000 -27056.21205675 0 0 188 (C1) n - 1
REM
REM in /home/bkarasulu/work/CARBON/AIRSS/Generating-Clusters/ReaxFF-fromJPCA2015/Units_Real/with-SteepDescent/Higher-Symm
REM
REM
REM
REM
REM
REM ./C.cell (1df0a924f5614ab8850e4351716899ee)
REM
REM compiler GCC version 9.2.1 20190827 (Red Hat 9.2.1-1)
REM options -cpp -mtune=generic -march=x86-64 -g -O0 -fpre-include=/usr/include/finclude/math-vector-fortran.h
REM seed 858070550 -891833157 2006651247 -885369377 1781073383 829999267 1410514710 481882612 -1035715736 -1335027194 133496266 -1458662953 1410480452 -1287270987 -130693758 1551671827 -1196831775 -1211805683 -766224576 -1792330897 -532347211 578288882 -1049159454 1464788604 343030932 -1076687078 995731275 -634033244 136111139 -1166045295 -57912051 -1917274487 1234626859
REM
CELL 1.54180   50.00000   50.00000   50.00000   90.00000   90.00000   90.00000
LATT -1
SFAC C  
C      1  0.4134060000000  0.5798440000000  0.4795860000000 1.0
C      1  0.5872650000000  0.5793800000000  0.4785350000000 1.0
C      1  0.5959210000000  0.4577800000000  0.4786240000000 1.0
C      1  0.3990890000000  0.4675310000000  0.4824370000000 1.0
C      1  0.5379330000000  0.4545610000000  0.4715910000000 1.0
C      1  0.4613640000000  0.4506690000000  0.4672790000000 1.0
C      1  0.4422730000000  0.4759120000000  0.4210130000000 1.0
C      1  0.5560270000000  0.4748620000000  0.4177950000000 1.0
C      1  0.5166340000000  0.5702280000000  0.4202390000000 1.0
C      1  0.4820370000000  0.5711630000000  0.4201820000000 1.0
C      1  0.5296180000000  0.4108820000000  0.4418850000000 1.0
C      1  0.4714730000000  0.4102380000000  0.4443860000000 1.0
C      1  0.5131630000000  0.5221760000000  0.5394480000000 1.0
C      1  0.4876530000000  0.5099870000000  0.5396540000000 1.0
C      1  0.4076240000000  0.4927610000000  0.4374860000000 1.0
C      1  0.5920260000000  0.4907540000000  0.4352470000000 1.0
C      1  0.4399400000000  0.5906560000000  0.4859800000000 1.0
C      1  0.5603300000000  0.5894980000000  0.4850870000000 1.0
C      1  0.5631590000000  0.4340460000000  0.5753960000000 1.0
C      1  0.4329590000000  0.4341980000000  0.5736010000000 1.0
C      1  0.4497860000000  0.4698690000000  0.5282970000000 1.0
C      1  0.5711890000000  0.4620590000000  0.5195330000000 1.0
C      1  0.4867820000000  0.5349940000000  0.4597560000000 1.0
C      1  0.5147360000000  0.5364860000000  0.4664960000000 1.0
C      1  0.5728940000000  0.4849260000000  0.5931710000000 1.0
C      1  0.4259330000000  0.4830920000000  0.5916920000000 1.0
C      1  0.5582470000000  0.4775440000000  0.4718730000000 1.0
C      1  0.4414510000000  0.4779730000000  0.4759880000000 1.0
C      1  0.5464180000000  0.5170650000000  0.4407170000000 1.0
C      1  0.4506850000000  0.5104290000000  0.4399930000000 1.0
C      1  0.4160530000000  0.4750450000000  0.4604120000000 1.0
C      1  0.5834630000000  0.4717640000000  0.4567670000000 1.0
C      1  0.4747040000000  0.5140840000000  0.4781770000000 1.0
C      1  0.5259430000000  0.5148130000000  0.4809340000000 1.0
C      1  0.4435010000000  0.5939820000000  0.5144740000000 1.0
C      1  0.5579140000000  0.5929020000000  0.5132900000000 1.0
C      1  0.4801900000000  0.5989890000000  0.5492610000000 1.0
C      1  0.5226100000000  0.5972350000000  0.5463010000000 1.0
C      1  0.4863450000000  0.4517550000000  0.4507260000000 1.0
C      1  0.5155690000000  0.4503380000000  0.4539370000000 1.0
C      1  0.4866940000000  0.3967390000000  0.4648260000000 1.0
C      1  0.5162000000000  0.3981700000000  0.4645230000000 1.0
C      1  0.5641630000000  0.5319780000000  0.4845680000000 1.0
C      1  0.4321040000000  0.5318850000000  0.4818540000000 1.0
C      1  0.5158220000000  0.4982360000000  0.3994810000000 1.0
C      1  0.4831620000000  0.5013550000000  0.4045410000000 1.0
C      1  0.4729500000000  0.3925540000000  0.4909590000000 1.0
C      1  0.5293090000000  0.3958950000000  0.4907900000000 1.0
C      1  0.5108060000000  0.4397600000000  0.5360420000000 1.0
C      1  0.4826200000000  0.4344530000000  0.5367340000000 1.0
C      1  0.4864370000000  0.4689540000000  0.4973290000000 1.0
C      1  0.5137670000000  0.4754160000000  0.5028780000000 1.0
C      1  0.5137850000000  0.5613980000000  0.4798170000000 1.0
C      1  0.4832520000000  0.5605800000000  0.4754650000000 1.0
C      1  0.6069440000000  0.5117200000000  0.4774350000000 1.0
C      1  0.3878290000000  0.5150760000000  0.4765520000000 1.0
C      1  0.4663820000000  0.5637400000000  0.5743460000000 1.0
C      1  0.5337630000000  0.5621310000000  0.5714290000000 1.0
C      1  0.5522320000000  0.5571830000000  0.5492490000000 1.0
C      1  0.4575570000000  0.5597970000000  0.5457580000000 1.0
C      1  0.4047330000000  0.5354510000000  0.4889410000000 1.0
C      1  0.5919110000000  0.5337810000000  0.4893270000000 1.0
C      1  0.5148560000000  0.4903330000000  0.4758510000000 1.0
C      1  0.4871790000000  0.4886500000000  0.4752500000000 1.0
C      1  0.5504040000000  0.5005710000000  0.5252040000000 1.0
C      1  0.4525010000000  0.5086350000000  0.5175030000000 1.0
C      1  0.3963610000000  0.5167140000000  0.4487990000000 1.0
C      1  0.6012730000000  0.5144560000000  0.4489680000000 1.0
C      1  0.4124280000000  0.5625100000000  0.4576260000000 1.0
C      1  0.5886760000000  0.5611210000000  0.4575850000000 1.0
C      1  0.5237770000000  0.5547050000000  0.5064660000000 1.0
C      1  0.4718600000000  0.5504660000000  0.5031000000000 1.0
C      1  0.4843640000000  0.5871910000000  0.5739720000000 1.0
C      1  0.5151740000000  0.5866890000000  0.5701750000000 1.0
C      1  0.4848130000000  0.4155190000000  0.5014200000000 1.0
C      1  0.5151890000000  0.4171340000000  0.5017590000000 1.0
C      1  0.5141100000000  0.4214420000000  0.4195210000000 1.0
C      1  0.4847460000000  0.4222970000000  0.4214950000000 1.0
C      1  0.5653720000000  0.5346120000000  0.5894860000000 1.0
C      1  0.4342630000000  0.5331700000000  0.5893770000000 1.0
C      1  0.4916450000000  0.4807330000000  0.5399180000000 1.0
C      1  0.5160570000000  0.4661000000000  0.5493030000000 1.0
C      1  0.4241480000000  0.4959530000000  0.4122960000000 1.0
C      1  0.5757940000000  0.4943130000000  0.4103380000000 1.0
C      1  0.4848840000000  0.4693260000000  0.3973140000000 1.0
C      1  0.5126680000000  0.4677410000000  0.3945890000000 1.0
C      1  0.4682070000000  0.5044900000000  0.5633930000000 1.0
C      1  0.5269850000000  0.5070960000000  0.5634960000000 1.0
C      1  0.3918120000000  0.4934020000000  0.4964470000000 1.0
C      1  0.5991450000000  0.4925660000000  0.4987600000000 1.0
C      1  0.4247880000000  0.4221580000000  0.4703250000000 1.0
C      1  0.5728230000000  0.4269150000000  0.4629220000000 1.0
C      1  0.5911380000000  0.5309730000000  0.5384790000000 1.0
C      1  0.4093590000000  0.5303800000000  0.5375780000000 1.0
C      1  0.5346770000000  0.5863530000000  0.4676170000000 1.0
C      1  0.4642750000000  0.5873160000000  0.4669930000000 1.0
C      1  0.4694100000000  0.6062410000000  0.5243870000000 1.0
C      1  0.5325430000000  0.6061100000000  0.5222170000000 1.0
C      1  0.6010170000000  0.4874360000000  0.5467230000000 1.0
C      1  0.4038580000000  0.4818610000000  0.5406800000000 1.0
C      1  0.5284580000000  0.4695470000000  0.5963190000000 1.0
C      1  0.4685400000000  0.4674160000000  0.5955510000000 1.0
C      1  0.5156310000000  0.4983680000000  0.5898320000000 1.0
C      1  0.4800030000000  0.4973830000000  0.5896840000000 1.0
C      1  0.5361670000000  0.5432680000000  0.5935980000000 1.0
C      1  0.4625080000000  0.5428640000000  0.5942880000000 1.0
C      1  0.4463880000000  0.4481330000000  0.4239370000000 1.0
C      1  0.5526870000000  0.4458740000000  0.4185460000000 1.0
C      1  0.4002060000000  0.5621790000000  0.5008890000000 1.0
C      1  0.6004270000000  0.5605520000000  0.4987440000000 1.0
C      1  0.5926360000000  0.4324770000000  0.4798170000000 1.0
C      1  0.4055280000000  0.4382460000000  0.4852410000000 1.0
C      1  0.4850780000000  0.6086760000000  0.4738550000000 1.0
C      1  0.5146350000000  0.6089800000000  0.4730940000000 1.0
C      1  0.5818200000000  0.4486360000000  0.5628790000000 1.0
C      1  0.4113590000000  0.4455070000000  0.5596800000000 1.0
C      1  0.4847330000000  0.5245880000000  0.6025850000000 1.0
C      1  0.5139680000000  0.5259780000000  0.6028750000000 1.0
C      1  0.5847220000000  0.5252740000000  0.5683810000000 1.0
C      1  0.4159550000000  0.5230110000000  0.5664420000000 1.0
C      1  0.5080620000000  0.5505980000000  0.5300210000000 1.0
C      1  0.4814110000000  0.5605080000000  0.5285050000000 1.0
C      1  0.4846340000000  0.5474340000000  0.4031370000000 1.0
C      1  0.5144020000000  0.5461250000000  0.4038720000000 1.0
C      1  0.4661690000000  0.5250180000000  0.3963460000000 1.0
C      1  0.5326690000000  0.5231660000000  0.3971140000000 1.0
C      1  0.5622950000000  0.5098560000000  0.6000760000000 1.0
C      1  0.4359790000000  0.5081520000000  0.5997040000000 1.0
C      1  0.4468190000000  0.5091210000000  0.4685670000000 1.0
C      1  0.5518160000000  0.5115230000000  0.4681960000000 1.0
C      1  0.4296040000000  0.4310850000000  0.5257400000000 1.0
C      1  0.5660730000000  0.4214830000000  0.5234030000000 1.0
C      1  0.4088230000000  0.5605380000000  0.5283260000000 1.0
C      1  0.5932980000000  0.5594130000000  0.5266430000000 1.0
C      1  0.5496480000000  0.5434360000000  0.5064170000000 1.0
C      1  0.4440910000000  0.5459940000000  0.5028630000000 1.0
C      1  0.5175150000000  0.4802760000000  0.4488350000000 1.0
C      1  0.4882870000000  0.4814510000000  0.4461070000000 1.0
C      1  0.4069230000000  0.4526540000000  0.5340020000000 1.0
C      1  0.5918540000000  0.4610310000000  0.5399730000000 1.0
C      1  0.4383250000000  0.5341030000000  0.4270420000000 1.0
C      1  0.5620250000000  0.5352640000000  0.4253120000000 1.0
C      1  0.4330050000000  0.5751350000000  0.5341590000000 1.0
C      1  0.5701870000000  0.5750900000000  0.5340570000000 1.0
C      1  0.5270470000000  0.4437990000000  0.4054850000000 1.0
C      1  0.4703520000000  0.4461370000000  0.4083030000000 1.0
C      1  0.4229090000000  0.4185430000000  0.4986360000000 1.0
C      1  0.5848430000000  0.4265150000000  0.5029970000000 1.0
C      1  0.4414050000000  0.4845820000000  0.5055770000000 1.0
C      1  0.5697770000000  0.4843940000000  0.5012510000000 1.0
C      1  0.4114620000000  0.5415890000000  0.4396620000000 1.0
C      1  0.5891360000000  0.5404860000000  0.4394160000000 1.0
C      1  0.5151280000000  0.6188010000000  0.5007140000000 1.0
C      1  0.4857490000000  0.6178160000000  0.5018700000000 1.0
C      1  0.5549010000000  0.4610300000000  0.5922850000000 1.0
C      1  0.4424530000000  0.4582620000000  0.5904860000000 1.0
C      1  0.5137190000000  0.4488390000000  0.5813520000000 1.0
C      1  0.4842940000000  0.4446460000000  0.5886620000000 1.0
C      1  0.5897930000000  0.4979230000000  0.5712430000000 1.0
C      1  0.4131690000000  0.4950940000000  0.5672210000000 1.0
C      1  0.5296760000000  0.4479790000000  0.4986420000000 1.0
C      1  0.4710630000000  0.4444080000000  0.4944230000000 1.0
C      1  0.5334850000000  0.4941900000000  0.4280290000000 1.0
C      1  0.4783950000000  0.5058220000000  0.4336950000000 1.0
C      1  0.5280420000000  0.4133680000000  0.5454580000000 1.0
C      1  0.4688930000000  0.4094030000000  0.5463450000000 1.0
C      1  0.4479280000000  0.4294340000000  0.4504370000000 1.0
C      1  0.5553660000000  0.4259280000000  0.4412640000000 1.0
C      1  0.4390470000000  0.5320980000000  0.5275880000000 1.0
C      1  0.5588050000000  0.5329320000000  0.5325170000000 1.0
C      1  0.5135730000000  0.4186470000000  0.5733380000000 1.0
C      1  0.4853190000000  0.4181130000000  0.5745620000000 1.0
C      1  0.4650530000000  0.4785780000000  0.5507770000000 1.0
C      1  0.5397610000000  0.4864810000000  0.5492310000000 1.0
C      1  0.5247840000000  0.3976170000000  0.5191640000000 1.0
C      1  0.4748850000000  0.3957190000000  0.5190670000000 1.0
C      1  0.3982330000000  0.5026270000000  0.5229270000000 1.0
C      1  0.6024090000000  0.5051840000000  0.5251890000000 1.0
C      1  0.5615030000000  0.5191450000000  0.4011690000000 1.0
C      1  0.4377640000000  0.5209010000000  0.4015000000000 1.0
C      1  0.4409590000000  0.4187570000000  0.5503680000000 1.0
C      1  0.5575910000000  0.4171470000000  0.5515550000000 1.0
C      1  0.5367120000000  0.5816360000000  0.4367690000000 1.0
C      1  0.4618910000000  0.5834490000000  0.4355470000000 1.0
C      1  0.5240300000000  0.5048760000000  0.5130840000000 1.0
C      1  0.4774220000000  0.5195640000000  0.5078660000000 1.0
C      1  0.4580360000000  0.4444850000000  0.5209720000000 1.0
C      1  0.5485620000000  0.4452470000000  0.5212850000000 1.0
END
