TITL C-2441154-10-692 0.0868345206661515 125000 -23547.6038052685 0 0 173 (C1) n - 1
REM
REM in /home/bkarasulu/work/CARBON/AIRSS/Generating-Clusters/ReaxFF-fromJPCA2015/Units_Real/with-SteepDescent/Higher-Symm
REM
REM
REM
REM
REM
REM ./C.cell (1df0a924f5614ab8850e4351716899ee)
REM
REM compiler GCC version 9.2.1 20190827 (Red Hat 9.2.1-1)
REM options -cpp -mtune=generic -march=x86-64 -g -O0 -fpre-include=/usr/include/finclude/math-vector-fortran.h
REM seed 1647903086 -1110451192 1450398420 -1703080182 1345833576 -2050639105 -1262879449 1969840410 -2123155502 73098656 930246728 2113083321 1916367757 1025610568 1318182600 -6006354 1646131336 527278891 1419542034 781022574 1015758791 333357549 -1058406907 -1291039497 -621886249 -1383234945 -1866632573 2056564596 -742160932 -75265924 694509073 158806719 -1132496966
REM
CELL 1.54180   50.00000   50.00000   50.00000   90.00000   90.00000   90.00000
LATT -1
SFAC C  
C      1  0.5501940000000  0.4226850000000  0.4847470000000 1.0
C      1  0.5800710000000  0.5077910000000  0.5268850000000 1.0
C      1  0.5826450000000  0.5522890000000  0.5473520000000 1.0
C      1  0.5777440000000  0.4302390000000  0.4855420000000 1.0
C      1  0.4569940000000  0.5240280000000  0.4468820000000 1.0
C      1  0.4306460000000  0.4228410000000  0.4702870000000 1.0
C      1  0.5586000000000  0.4531500000000  0.4289550000000 1.0
C      1  0.4077810000000  0.4421760000000  0.4725240000000 1.0
C      1  0.4253410000000  0.4644090000000  0.5550570000000 1.0
C      1  0.4336600000000  0.5447160000000  0.5128640000000 1.0
C      1  0.4793750000000  0.4731330000000  0.5922220000000 1.0
C      1  0.5550400000000  0.5579890000000  0.5779910000000 1.0
C      1  0.4542510000000  0.4759290000000  0.4758450000000 1.0
C      1  0.5540740000000  0.5579090000000  0.4486400000000 1.0
C      1  0.5902550000000  0.5360910000000  0.5242490000000 1.0
C      1  0.5387630000000  0.4441700000000  0.5551050000000 1.0
C      1  0.4616340000000  0.3998320000000  0.4850120000000 1.0
C      1  0.5518530000000  0.4723750000000  0.4728220000000 1.0
C      1  0.3996300000000  0.5331160000000  0.4752550000000 1.0
C      1  0.4459850000000  0.5202900000000  0.4208470000000 1.0
C      1  0.5815940000000  0.5609160000000  0.4589780000000 1.0
C      1  0.4040780000000  0.5257450000000  0.5445710000000 1.0
C      1  0.5803600000000  0.4574460000000  0.5578610000000 1.0
C      1  0.5047700000000  0.4575600000000  0.5260750000000 1.0
C      1  0.5533190000000  0.5059450000000  0.5942730000000 1.0
C      1  0.5299770000000  0.5523150000000  0.5909480000000 1.0
C      1  0.4860870000000  0.4384740000000  0.5118720000000 1.0
C      1  0.4468390000000  0.5740110000000  0.4447200000000 1.0
C      1  0.5501650000000  0.5390150000000  0.5024160000000 1.0
C      1  0.4867250000000  0.5341320000000  0.5303750000000 1.0
C      1  0.5948610000000  0.4822400000000  0.5570650000000 1.0
C      1  0.4645960000000  0.4214470000000  0.5222860000000 1.0
C      1  0.5413560000000  0.4148200000000  0.5591600000000 1.0
C      1  0.4538880000000  0.5130570000000  0.5548240000000 1.0
C      1  0.5132520000000  0.5830780000000  0.5397920000000 1.0
C      1  0.5045880000000  0.4598560000000  0.5851860000000 1.0
C      1  0.4491690000000  0.4262980000000  0.5474860000000 1.0
C      1  0.5853340000000  0.4358000000000  0.4582170000000 1.0
C      1  0.4403420000000  0.5008560000000  0.4800430000000 1.0
C      1  0.4731660000000  0.5587070000000  0.5405360000000 1.0
C      1  0.5017240000000  0.4648610000000  0.4762860000000 1.0
C      1  0.4051640000000  0.4757110000000  0.5449400000000 1.0
C      1  0.4544270000000  0.5995200000000  0.4932030000000 1.0
C      1  0.5101180000000  0.4730950000000  0.5578760000000 1.0
C      1  0.4893380000000  0.4909400000000  0.5662810000000 1.0
C      1  0.5940310000000  0.5486000000000  0.4984900000000 1.0
C      1  0.5151440000000  0.4902180000000  0.4716720000000 1.0
C      1  0.5547270000000  0.5871830000000  0.4930940000000 1.0
C      1  0.4842580000000  0.5494360000000  0.4154640000000 1.0
C      1  0.4443500000000  0.5612990000000  0.5566640000000 1.0
C      1  0.4955390000000  0.5907300000000  0.4912770000000 1.0
C      1  0.4849990000000  0.4269890000000  0.4831960000000 1.0
C      1  0.4335140000000  0.4811840000000  0.4292320000000 1.0
C      1  0.5315710000000  0.4443390000000  0.4388380000000 1.0
C      1  0.4534640000000  0.4732610000000  0.4474040000000 1.0
C      1  0.5904760000000  0.4890630000000  0.4545380000000 1.0
C      1  0.4443880000000  0.5187130000000  0.5288670000000 1.0
C      1  0.4357220000000  0.5423820000000  0.5762610000000 1.0
C      1  0.4496900000000  0.4251440000000  0.4482830000000 1.0
C      1  0.5096740000000  0.5768110000000  0.5107230000000 1.0
C      1  0.5345590000000  0.4256540000000  0.5074380000000 1.0
C      1  0.5181210000000  0.4792450000000  0.6040300000000 1.0
C      1  0.5674370000000  0.4260370000000  0.4384420000000 1.0
C      1  0.5270610000000  0.5739560000000  0.4188410000000 1.0
C      1  0.5314280000000  0.5244100000000  0.6017850000000 1.0
C      1  0.5552500000000  0.5652250000000  0.5440600000000 1.0
C      1  0.5388330000000  0.4932810000000  0.4577840000000 1.0
C      1  0.5420960000000  0.5337760000000  0.4601630000000 1.0
C      1  0.4070170000000  0.5351670000000  0.4466340000000 1.0
C      1  0.5226810000000  0.5530880000000  0.4993880000000 1.0
C      1  0.4321000000000  0.4732200000000  0.5829290000000 1.0
C      1  0.4498800000000  0.4723290000000  0.5363270000000 1.0
C      1  0.4563620000000  0.4578250000000  0.5864990000000 1.0
C      1  0.5216560000000  0.5879760000000  0.4454260000000 1.0
C      1  0.5481740000000  0.4697860000000  0.5007280000000 1.0
C      1  0.4499420000000  0.4810590000000  0.4049660000000 1.0
C      1  0.4640650000000  0.5074110000000  0.4015530000000 1.0
C      1  0.4365740000000  0.4790440000000  0.5118840000000 1.0
C      1  0.5121400000000  0.4107830000000  0.5519710000000 1.0
C      1  0.5884830000000  0.4462840000000  0.5077060000000 1.0
C      1  0.4823860000000  0.5119120000000  0.4514950000000 1.0
C      1  0.5148570000000  0.5389320000000  0.4755500000000 1.0
C      1  0.4265320000000  0.5756540000000  0.5385360000000 1.0
C      1  0.4383020000000  0.4303780000000  0.4997740000000 1.0
C      1  0.5187010000000  0.4642160000000  0.4043870000000 1.0
C      1  0.4754200000000  0.3928900000000  0.5088600000000 1.0
C      1  0.5260420000000  0.4941810000000  0.4314080000000 1.0
C      1  0.4858760000000  0.4977650000000  0.5022190000000 1.0
C      1  0.4872490000000  0.5396140000000  0.5832820000000 1.0
C      1  0.4134290000000  0.4360270000000  0.5160490000000 1.0
C      1  0.5754680000000  0.5386130000000  0.5720510000000 1.0
C      1  0.5038760000000  0.5636230000000  0.5811190000000 1.0
C      1  0.3969980000000  0.4991630000000  0.5326020000000 1.0
C      1  0.4611530000000  0.5605970000000  0.5115410000000 1.0
C      1  0.5302830000000  0.4943190000000  0.5504210000000 1.0
C      1  0.4914930000000  0.4441560000000  0.4586610000000 1.0
C      1  0.4140770000000  0.5230150000000  0.5721080000000 1.0
C      1  0.5740730000000  0.4639000000000  0.4547670000000 1.0
C      1  0.5797440000000  0.5712080000000  0.4866380000000 1.0
C      1  0.5322550000000  0.4926780000000  0.5085290000000 1.0
C      1  0.5149640000000  0.4376850000000  0.4163890000000 1.0
C      1  0.5993540000000  0.4733190000000  0.5035980000000 1.0
C      1  0.4937050000000  0.5085300000000  0.4008200000000 1.0
C      1  0.4782530000000  0.4627280000000  0.4363460000000 1.0
C      1  0.4688910000000  0.5529480000000  0.4843510000000 1.0
C      1  0.4947370000000  0.4283850000000  0.5656110000000 1.0
C      1  0.6017850000000  0.4880760000000  0.5294850000000 1.0
C      1  0.5594760000000  0.4980240000000  0.5462030000000 1.0
C      1  0.4247520000000  0.5417560000000  0.4857120000000 1.0
C      1  0.5556330000000  0.4587120000000  0.5735630000000 1.0
C      1  0.4721360000000  0.5725150000000  0.4297690000000 1.0
C      1  0.4519760000000  0.4313150000000  0.4209460000000 1.0
C      1  0.5922050000000  0.5339200000000  0.4518120000000 1.0
C      1  0.4813660000000  0.6122170000000  0.4928860000000 1.0
C      1  0.5438480000000  0.5290520000000  0.4077960000000 1.0
C      1  0.4678090000000  0.4906820000000  0.5485050000000 1.0
C      1  0.4942730000000  0.5780780000000  0.4480920000000 1.0
C      1  0.5790770000000  0.4370440000000  0.5341630000000 1.0
C      1  0.5156560000000  0.5288740000000  0.3964900000000 1.0
C      1  0.4522450000000  0.5186580000000  0.5849780000000 1.0
C      1  0.4383720000000  0.5936740000000  0.5171490000000 1.0
C      1  0.4671920000000  0.4350400000000  0.5682680000000 1.0
C      1  0.5603440000000  0.4156280000000  0.5373480000000 1.0
C      1  0.5733160000000  0.5079320000000  0.5719890000000 1.0
C      1  0.5227030000000  0.4050940000000  0.5230980000000 1.0
C      1  0.5490900000000  0.5560070000000  0.4198110000000 1.0
C      1  0.4992440000000  0.4162070000000  0.4319330000000 1.0
C      1  0.4989310000000  0.5121700000000  0.4771530000000 1.0
C      1  0.4006150000000  0.4548970000000  0.4983080000000 1.0
C      1  0.4193620000000  0.5083990000000  0.4334380000000 1.0
C      1  0.5011250000000  0.4842420000000  0.4184330000000 1.0
C      1  0.5816750000000  0.5107610000000  0.4369230000000 1.0
C      1  0.5283530000000  0.5993370000000  0.5231420000000 1.0
C      1  0.4281870000000  0.5014020000000  0.5864450000000 1.0
C      1  0.5543660000000  0.5882960000000  0.5218900000000 1.0
C      1  0.5326950000000  0.5964280000000  0.4717510000000 1.0
C      1  0.4544150000000  0.5765070000000  0.4733160000000 1.0
C      1  0.4472940000000  0.5287320000000  0.4745400000000 1.0
C      1  0.4939690000000  0.5749440000000  0.5568130000000 1.0
C      1  0.4963170000000  0.5311080000000  0.4354690000000 1.0
C      1  0.4223650000000  0.4380450000000  0.5438160000000 1.0
C      1  0.4946150000000  0.5509450000000  0.4602430000000 1.0
C      1  0.5077690000000  0.5081170000000  0.6084520000000 1.0
C      1  0.5611570000000  0.5074610000000  0.4154110000000 1.0
C      1  0.5939250000000  0.5232440000000  0.4797530000000 1.0
C      1  0.4636880000000  0.4557440000000  0.4113530000000 1.0
C      1  0.4783220000000  0.4760080000000  0.4880480000000 1.0
C      1  0.4112900000000  0.5511390000000  0.5319940000000 1.0
C      1  0.4033090000000  0.4870180000000  0.5051590000000 1.0
C      1  0.4705540000000  0.5172980000000  0.5167720000000 1.0
C      1  0.3964390000000  0.5044520000000  0.4813470000000 1.0
C      1  0.4173040000000  0.4974870000000  0.4629510000000 1.0
C      1  0.5148280000000  0.5369640000000  0.5223640000000 1.0
C      1  0.4208750000000  0.5594250000000  0.4394760000000 1.0
C      1  0.5309750000000  0.5476750000000  0.5454020000000 1.0
C      1  0.5454410000000  0.4784570000000  0.5947920000000 1.0
C      1  0.5991530000000  0.4918900000000  0.4809410000000 1.0
C      1  0.4413490000000  0.4581020000000  0.4938630000000 1.0
C      1  0.4996930000000  0.5183560000000  0.5681440000000 1.0
C      1  0.5155850000000  0.4040790000000  0.4532370000000 1.0
C      1  0.5048010000000  0.3901380000000  0.5053600000000 1.0
C      1  0.5064790000000  0.4862230000000  0.5189470000000 1.0
C      1  0.5093390000000  0.5569250000000  0.4022280000000 1.0
C      1  0.5437470000000  0.4794640000000  0.4134850000000 1.0
C      1  0.4697790000000  0.4127940000000  0.4321910000000 1.0
C      1  0.5614130000000  0.5248940000000  0.4798170000000 1.0
C      1  0.5356200000000  0.4497930000000  0.5207340000000 1.0
C      1  0.5037390000000  0.4030450000000  0.4793640000000 1.0
C      1  0.5420280000000  0.4182270000000  0.4561260000000 1.0
C      1  0.4816250000000  0.5201630000000  0.6039220000000 1.0
C      1  0.5088750000000  0.6112960000000  0.4800560000000 1.0
C      1  0.5358120000000  0.5186430000000  0.5144170000000 1.0
C      1  0.5250120000000  0.5224140000000  0.5581960000000 1.0
END
