TITL C-2441159-1093-647 0.0330877639020451 125000 -16213.34969835 0 0 115 (C1) n - 1
REM
REM in /home/bkarasulu/work/CARBON/AIRSS/Generating-Clusters/ReaxFF-fromJPCA2015/Units_Real/with-SteepDescent/Higher-Symm
REM
REM
REM
REM
REM
REM ./C.cell (1df0a924f5614ab8850e4351716899ee)
REM
REM compiler GCC version 9.2.1 20190827 (Red Hat 9.2.1-1)
REM options -cpp -mtune=generic -march=x86-64 -g -O0 -fpre-include=/usr/include/finclude/math-vector-fortran.h
REM seed -1468195928 -1596705228 939788294 -1155838212 1052886728 -1648662323 -1937207268 1594172294 -975430555 -1149875240 -210918895 917153514 -1729791916 106140387 -814812133 1752375411 -1302981285 2040603955 30106243 1068849149 102831589 1599290197 240661228 466444442 -571078614 -1610184083 -782377178 -1933541941 -770558771 720441388 -822820369 -1048912318 -1583340895
REM
CELL 1.54180   50.00000   50.00000   50.00000   90.00000   90.00000   90.00000
LATT -1
SFAC C  
C      1  0.4976460000000  0.4432500000000  0.4158090000000 1.0
C      1  0.4195600000000  0.4360490000000  0.5079710000000 1.0
C      1  0.5506590000000  0.4348510000000  0.4688410000000 1.0
C      1  0.4582680000000  0.4935370000000  0.4702390000000 1.0
C      1  0.4918200000000  0.5414830000000  0.5737990000000 1.0
C      1  0.5776350000000  0.4992730000000  0.4742200000000 1.0
C      1  0.4932950000000  0.4771920000000  0.4853350000000 1.0
C      1  0.4463000000000  0.4241510000000  0.5151360000000 1.0
C      1  0.5322220000000  0.4935470000000  0.4579620000000 1.0
C      1  0.5150960000000  0.5717850000000  0.4765540000000 1.0
C      1  0.5791890000000  0.5513140000000  0.4948800000000 1.0
C      1  0.5219830000000  0.5179900000000  0.4073040000000 1.0
C      1  0.5378120000000  0.4638960000000  0.5687220000000 1.0
C      1  0.4774520000000  0.5846250000000  0.5431080000000 1.0
C      1  0.5631610000000  0.5543690000000  0.5190800000000 1.0
C      1  0.4957450000000  0.5533690000000  0.4648390000000 1.0
C      1  0.4744130000000  0.4784270000000  0.5876120000000 1.0
C      1  0.4199210000000  0.5060650000000  0.5360290000000 1.0
C      1  0.5431660000000  0.4488740000000  0.4456710000000 1.0
C      1  0.4388440000000  0.5310670000000  0.4426010000000 1.0
C      1  0.5612440000000  0.5295230000000  0.5709990000000 1.0
C      1  0.4988500000000  0.5306720000000  0.4475120000000 1.0
C      1  0.4153110000000  0.5071200000000  0.4817470000000 1.0
C      1  0.4652960000000  0.4654210000000  0.4971550000000 1.0
C      1  0.4455910000000  0.5476960000000  0.5303770000000 1.0
C      1  0.5194220000000  0.5384540000000  0.5819040000000 1.0
C      1  0.4330050000000  0.5300730000000  0.4873470000000 1.0
C      1  0.5744760000000  0.5126570000000  0.5521100000000 1.0
C      1  0.5149120000000  0.5693310000000  0.5425880000000 1.0
C      1  0.5278420000000  0.5592150000000  0.4354510000000 1.0
C      1  0.4518400000000  0.5764140000000  0.5329540000000 1.0
C      1  0.5613670000000  0.5199360000000  0.4341690000000 1.0
C      1  0.4583880000000  0.4281780000000  0.5415380000000 1.0
C      1  0.5181130000000  0.4654500000000  0.4472740000000 1.0
C      1  0.4767340000000  0.4513050000000  0.5781230000000 1.0
C      1  0.4657710000000  0.4907070000000  0.4435880000000 1.0
C      1  0.4886180000000  0.4268370000000  0.4381090000000 1.0
C      1  0.4912490000000  0.4161190000000  0.4666650000000 1.0
C      1  0.4598850000000  0.4914680000000  0.5127740000000 1.0
C      1  0.5144210000000  0.5157590000000  0.4652110000000 1.0
C      1  0.4993470000000  0.5631270000000  0.4226100000000 1.0
C      1  0.5487460000000  0.4333110000000  0.5152290000000 1.0
C      1  0.4981920000000  0.5002560000000  0.4073580000000 1.0
C      1  0.5002170000000  0.4882810000000  0.5923810000000 1.0
C      1  0.5047820000000  0.4165680000000  0.5223880000000 1.0
C      1  0.4352510000000  0.4894350000000  0.5552090000000 1.0
C      1  0.5704560000000  0.4514170000000  0.5085980000000 1.0
C      1  0.4523260000000  0.5555040000000  0.4539350000000 1.0
C      1  0.4414860000000  0.4707020000000  0.4777850000000 1.0
C      1  0.4972210000000  0.4334270000000  0.5681540000000 1.0
C      1  0.5775390000000  0.4779070000000  0.5192210000000 1.0
C      1  0.5715590000000  0.5242120000000  0.4596460000000 1.0
C      1  0.4468750000000  0.5786730000000  0.5049180000000 1.0
C      1  0.5286730000000  0.5445490000000  0.5395740000000 1.0
C      1  0.5640000000000  0.5503050000000  0.4701030000000 1.0
C      1  0.4804590000000  0.5132730000000  0.4289680000000 1.0
C      1  0.4860030000000  0.4194650000000  0.5446570000000 1.0
C      1  0.5397680000000  0.5661370000000  0.4611510000000 1.0
C      1  0.5007870000000  0.5872460000000  0.5254660000000 1.0
C      1  0.5048380000000  0.5410460000000  0.4054390000000 1.0
C      1  0.4701030000000  0.5558480000000  0.4780830000000 1.0
C      1  0.4995560000000  0.5873970000000  0.4963940000000 1.0
C      1  0.5614650000000  0.4699620000000  0.4384120000000 1.0
C      1  0.5419220000000  0.5504630000000  0.5658610000000 1.0
C      1  0.4690720000000  0.5582440000000  0.4294840000000 1.0
C      1  0.4755180000000  0.5341970000000  0.5283650000000 1.0
C      1  0.5859220000000  0.4996430000000  0.5012810000000 1.0
C      1  0.5169230000000  0.4660240000000  0.5267880000000 1.0
C      1  0.5313520000000  0.4347600000000  0.4908730000000 1.0
C      1  0.4656600000000  0.5262640000000  0.5788530000000 1.0
C      1  0.4671580000000  0.4354990000000  0.4982460000000 1.0
C      1  0.4857840000000  0.4922680000000  0.5261280000000 1.0
C      1  0.4560470000000  0.5122450000000  0.4921390000000 1.0
C      1  0.4414990000000  0.5346790000000  0.5681120000000 1.0
C      1  0.5144240000000  0.4629300000000  0.4190710000000 1.0
C      1  0.4918690000000  0.4618720000000  0.4609170000000 1.0
C      1  0.4953510000000  0.5092350000000  0.4851840000000 1.0
C      1  0.5296950000000  0.4259460000000  0.5353680000000 1.0
C      1  0.5253880000000  0.4384210000000  0.5617980000000 1.0
C      1  0.5336950000000  0.5132560000000  0.5764840000000 1.0
C      1  0.5923660000000  0.5271750000000  0.5080790000000 1.0
C      1  0.4184570000000  0.4936530000000  0.5090870000000 1.0
C      1  0.5727930000000  0.4498380000000  0.4796460000000 1.0
C      1  0.5221180000000  0.4679230000000  0.4977310000000 1.0
C      1  0.5223880000000  0.5024530000000  0.5991780000000 1.0
C      1  0.4677480000000  0.4447980000000  0.4497410000000 1.0
C      1  0.5814600000000  0.5353670000000  0.5341000000000 1.0
C      1  0.5251820000000  0.4749640000000  0.5921960000000 1.0
C      1  0.5339620000000  0.5117620000000  0.5048690000000 1.0
C      1  0.4257340000000  0.4783170000000  0.4538060000000 1.0
C      1  0.5410230000000  0.5353760000000  0.4244170000000 1.0
C      1  0.5207710000000  0.5092010000000  0.5490230000000 1.0
C      1  0.5480890000000  0.4952850000000  0.4308130000000 1.0
C      1  0.5102520000000  0.5099230000000  0.5220470000000 1.0
C      1  0.4220500000000  0.5082140000000  0.4534660000000 1.0
C      1  0.4234610000000  0.5330600000000  0.5471640000000 1.0
C      1  0.4574100000000  0.5332900000000  0.4200620000000 1.0
C      1  0.5349870000000  0.4822230000000  0.5441980000000 1.0
C      1  0.4714240000000  0.5827890000000  0.4899140000000 1.0
C      1  0.4565550000000  0.4976400000000  0.5752420000000 1.0
C      1  0.4899590000000  0.5318590000000  0.5052100000000 1.0
C      1  0.4233820000000  0.4646970000000  0.5167760000000 1.0
C      1  0.4942230000000  0.4716440000000  0.4043470000000 1.0
C      1  0.4488990000000  0.4683190000000  0.4377610000000 1.0
C      1  0.4369540000000  0.4640180000000  0.5430110000000 1.0
C      1  0.5769720000000  0.4730040000000  0.4626750000000 1.0
C      1  0.4647280000000  0.4250210000000  0.4717060000000 1.0
C      1  0.4928560000000  0.5674850000000  0.5610390000000 1.0
C      1  0.5653900000000  0.4856390000000  0.5441160000000 1.0
C      1  0.4330030000000  0.5531270000000  0.5043650000000 1.0
C      1  0.5047000000000  0.4192330000000  0.4925950000000 1.0
C      1  0.4908060000000  0.4679490000000  0.5369880000000 1.0
C      1  0.5397920000000  0.5385760000000  0.5131360000000 1.0
C      1  0.5401130000000  0.4898200000000  0.4873710000000 1.0
C      1  0.4665450000000  0.4549150000000  0.5501900000000 1.0
END
