TITL C-2441155-8282-205 0.152208373219177 125000 -22646.7228261226 0 0 178 (C1) n - 1
REM
REM in /home/bkarasulu/work/CARBON/AIRSS/Generating-Clusters/ReaxFF-fromJPCA2015/Units_Real/with-SteepDescent/Higher-Symm
REM
REM
REM
REM
REM
REM ./C.cell (1df0a924f5614ab8850e4351716899ee)
REM
REM compiler GCC version 9.2.1 20190827 (Red Hat 9.2.1-1)
REM options -cpp -mtune=generic -march=x86-64 -g -O0 -fpre-include=/usr/include/finclude/math-vector-fortran.h
REM seed -342485376 258219825 375776600 -1580228476 -1235411871 -1783783387 -220558015 -870633289 -1463204907 -1001826934 -187723978 -1640436959 749997370 45165139 1568038460 -329549806 -1780332305 2140796029 1920433374 -2049638449 950141564 506526840 2059410322 -394905817 581231274 832661827 1541515063 -1939917621 389738023 -2032909893 -1793699062 451342262 -311003007
REM
CELL 1.54180   50.00000   50.00000   50.00000   90.00000   90.00000   90.00000
LATT -1
SFAC C  
C      1  0.5152080000000  0.6031300000000  0.5323940000000 1.0
C      1  0.5160050000000  0.3941810000000  0.4698150000000 1.0
C      1  0.4858770000000  0.6033280000000  0.5319950000000 1.0
C      1  0.4876790000000  0.3933670000000  0.4646290000000 1.0
C      1  0.5103320000000  0.6031810000000  0.4656520000000 1.0
C      1  0.5148980000000  0.3960270000000  0.5344360000000 1.0
C      1  0.4837720000000  0.6055610000000  0.4651850000000 1.0
C      1  0.4890340000000  0.3915080000000  0.5316520000000 1.0
C      1  0.4858030000000  0.4326810000000  0.4555690000000 1.0
C      1  0.4952200000000  0.5623300000000  0.5228480000000 1.0
C      1  0.5062080000000  0.4444000000000  0.4730780000000 1.0
C      1  0.5299650000000  0.5514550000000  0.5317480000000 1.0
C      1  0.4862440000000  0.4317270000000  0.5431240000000 1.0
C      1  0.4876000000000  0.5665200000000  0.4539250000000 1.0
C      1  0.5078350000000  0.4439690000000  0.5291990000000 1.0
C      1  0.5096010000000  0.5559290000000  0.4687130000000 1.0
C      1  0.4161080000000  0.4435780000000  0.5280270000000 1.0
C      1  0.4180280000000  0.5572480000000  0.4716400000000 1.0
C      1  0.5839280000000  0.4441370000000  0.5276540000000 1.0
C      1  0.5828850000000  0.5563810000000  0.4742610000000 1.0
C      1  0.4186560000000  0.4439800000000  0.4730980000000 1.0
C      1  0.4172550000000  0.5540860000000  0.5263930000000 1.0
C      1  0.5846990000000  0.4441500000000  0.4723170000000 1.0
C      1  0.5819710000000  0.5542520000000  0.5287750000000 1.0
C      1  0.4652710000000  0.5131590000000  0.5643560000000 1.0
C      1  0.4696700000000  0.4852150000000  0.4369370000000 1.0
C      1  0.5333840000000  0.5133890000000  0.5640910000000 1.0
C      1  0.5342210000000  0.4871650000000  0.4358340000000 1.0
C      1  0.4702590000000  0.5141400000000  0.4377850000000 1.0
C      1  0.4759500000000  0.4880850000000  0.5563060000000 1.0
C      1  0.5347440000000  0.5150470000000  0.4357210000000 1.0
C      1  0.5315280000000  0.4845900000000  0.5614440000000 1.0
C      1  0.4814290000000  0.4719200000000  0.5791740000000 1.0
C      1  0.4844820000000  0.5308890000000  0.4197680000000 1.0
C      1  0.5152750000000  0.4695930000000  0.5821190000000 1.0
C      1  0.5162230000000  0.5312390000000  0.4192340000000 1.0
C      1  0.4842900000000  0.4687240000000  0.4179350000000 1.0
C      1  0.4841660000000  0.5302830000000  0.5795660000000 1.0
C      1  0.5158270000000  0.4706010000000  0.4211500000000 1.0
C      1  0.5164290000000  0.5293790000000  0.5793110000000 1.0
C      1  0.5595460000000  0.4181580000000  0.4423860000000 1.0
C      1  0.5559220000000  0.5772650000000  0.5594270000000 1.0
C      1  0.4445400000000  0.4204320000000  0.4426980000000 1.0
C      1  0.4412440000000  0.5815350000000  0.5556870000000 1.0
C      1  0.5587750000000  0.4169320000000  0.5564730000000 1.0
C      1  0.5560130000000  0.5781050000000  0.4438000000000 1.0
C      1  0.4429860000000  0.4211280000000  0.5582400000000 1.0
C      1  0.4434000000000  0.5793550000000  0.4454410000000 1.0
C      1  0.5774500000000  0.4668960000000  0.5680000000000 1.0
C      1  0.5792320000000  0.5320110000000  0.4334600000000 1.0
C      1  0.4252030000000  0.4680270000000  0.5708210000000 1.0
C      1  0.4252690000000  0.5313750000000  0.4308610000000 1.0
C      1  0.5759660000000  0.4667140000000  0.4298260000000 1.0
C      1  0.5757110000000  0.5306610000000  0.5689340000000 1.0
C      1  0.4225350000000  0.4675160000000  0.4319150000000 1.0
C      1  0.4222670000000  0.5330810000000  0.5688970000000 1.0
C      1  0.4614470000000  0.4439630000000  0.4465410000000 1.0
C      1  0.4609810000000  0.5620760000000  0.5599350000000 1.0
C      1  0.5378920000000  0.4339170000000  0.4384730000000 1.0
C      1  0.5395360000000  0.5570210000000  0.5568770000000 1.0
C      1  0.4619760000000  0.4443490000000  0.5498800000000 1.0
C      1  0.4624690000000  0.5570000000000  0.4443470000000 1.0
C      1  0.5381210000000  0.4363700000000  0.5617810000000 1.0
C      1  0.5374970000000  0.5565930000000  0.4496240000000 1.0
C      1  0.4904400000000  0.4209820000000  0.4295470000000 1.0
C      1  0.4821590000000  0.5808380000000  0.5706210000000 1.0
C      1  0.5180200000000  0.4205910000000  0.4239570000000 1.0
C      1  0.5072170000000  0.5759340000000  0.5750050000000 1.0
C      1  0.4887180000000  0.4223460000000  0.5704170000000 1.0
C      1  0.4924260000000  0.5789350000000  0.4280840000000 1.0
C      1  0.5170480000000  0.4213720000000  0.5764100000000 1.0
C      1  0.5203540000000  0.5849750000000  0.4255530000000 1.0
C      1  0.4433630000000  0.4852370000000  0.4217710000000 1.0
C      1  0.4419970000000  0.5144110000000  0.5817410000000 1.0
C      1  0.5553030000000  0.4857040000000  0.4156950000000 1.0
C      1  0.5550740000000  0.5137290000000  0.5837380000000 1.0
C      1  0.4431610000000  0.4859170000000  0.5840850000000 1.0
C      1  0.4464480000000  0.5147010000000  0.4182100000000 1.0
C      1  0.5567230000000  0.4841300000000  0.5790850000000 1.0
C      1  0.5595840000000  0.5151250000000  0.4205910000000 1.0
C      1  0.4732210000000  0.5560690000000  0.5831580000000 1.0
C      1  0.4717070000000  0.4409250000000  0.4190050000000 1.0
C      1  0.5273810000000  0.5574830000000  0.5804860000000 1.0
C      1  0.5287060000000  0.4458020000000  0.4169110000000 1.0
C      1  0.4738580000000  0.5581160000000  0.4170000000000 1.0
C      1  0.4705720000000  0.4442290000000  0.5784760000000 1.0
C      1  0.5273800000000  0.5576880000000  0.4223210000000 1.0
C      1  0.5276900000000  0.4453610000000  0.5851660000000 1.0
C      1  0.4797810000000  0.4891320000000  0.6025280000000 1.0
C      1  0.4817470000000  0.5121520000000  0.3964160000000 1.0
C      1  0.5092520000000  0.4836990000000  0.6058260000000 1.0
C      1  0.5110680000000  0.5169350000000  0.3943370000000 1.0
C      1  0.4893120000000  0.4838380000000  0.3939570000000 1.0
C      1  0.4889010000000  0.5170030000000  0.6049060000000 1.0
C      1  0.5184520000000  0.4887890000000  0.3965510000000 1.0
C      1  0.5182950000000  0.5116740000000  0.6033510000000 1.0
C      1  0.4564660000000  0.5985760000000  0.4642360000000 1.0
C      1  0.4551200000000  0.4028450000000  0.5398440000000 1.0
C      1  0.5374120000000  0.5988790000000  0.4571330000000 1.0
C      1  0.5427660000000  0.4013310000000  0.5366310000000 1.0
C      1  0.4578420000000  0.5993640000000  0.5398440000000 1.0
C      1  0.4593480000000  0.4017850000000  0.4619520000000 1.0
C      1  0.5428130000000  0.5968240000000  0.5408300000000 1.0
C      1  0.5449190000000  0.4001820000000  0.4601710000000 1.0
C      1  0.5792350000000  0.5589400000000  0.4451960000000 1.0
C      1  0.5782640000000  0.4390040000000  0.5558230000000 1.0
C      1  0.4220530000000  0.5590520000000  0.4430090000000 1.0
C      1  0.4219230000000  0.4419590000000  0.5569020000000 1.0
C      1  0.5784510000000  0.5578140000000  0.5574230000000 1.0
C      1  0.5786080000000  0.4406200000000  0.4440890000000 1.0
C      1  0.4211370000000  0.5598200000000  0.5549720000000 1.0
C      1  0.4214400000000  0.4394860000000  0.4448340000000 1.0
C      1  0.5083080000000  0.5279770000000  0.4731440000000 1.0
C      1  0.5138570000000  0.4722160000000  0.5329520000000 1.0
C      1  0.4831330000000  0.5149610000000  0.4704240000000 1.0
C      1  0.4877390000000  0.4835920000000  0.5312070000000 1.0
C      1  0.5146990000000  0.5273930000000  0.5285390000000 1.0
C      1  0.5084150000000  0.4732770000000  0.4714430000000 1.0
C      1  0.4874690000000  0.5349860000000  0.5278380000000 1.0
C      1  0.4834440000000  0.4856960000000  0.4692570000000 1.0
C      1  0.5783140000000  0.5137190000000  0.5454610000000 1.0
C      1  0.5782660000000  0.4837440000000  0.4520250000000 1.0
C      1  0.4200620000000  0.5145760000000  0.5474370000000 1.0
C      1  0.4195330000000  0.4853620000000  0.4545550000000 1.0
C      1  0.5830790000000  0.5125890000000  0.4568180000000 1.0
C      1  0.5808450000000  0.4850060000000  0.5455670000000 1.0
C      1  0.4192700000000  0.5141610000000  0.4535870000000 1.0
C      1  0.4146170000000  0.4858810000000  0.5475650000000 1.0
C      1  0.3965080000000  0.4598060000000  0.4845260000000 1.0
C      1  0.3950620000000  0.5379260000000  0.5128420000000 1.0
C      1  0.6064440000000  0.4618350000000  0.4865650000000 1.0
C      1  0.6045990000000  0.5392050000000  0.5151130000000 1.0
C      1  0.3953620000000  0.4600290000000  0.5135600000000 1.0
C      1  0.3963190000000  0.5410840000000  0.4831170000000 1.0
C      1  0.6062930000000  0.4594520000000  0.5161060000000 1.0
C      1  0.6038480000000  0.5399340000000  0.4860490000000 1.0
C      1  0.6142270000000  0.4863480000000  0.5206460000000 1.0
C      1  0.6111780000000  0.5150740000000  0.4717200000000 1.0
C      1  0.3892540000000  0.4845150000000  0.5289120000000 1.0
C      1  0.3866180000000  0.5142690000000  0.4790670000000 1.0
C      1  0.6107980000000  0.4886040000000  0.4793940000000 1.0
C      1  0.6114940000000  0.5122780000000  0.5198680000000 1.0
C      1  0.3896410000000  0.4875810000000  0.4817040000000 1.0
C      1  0.3887430000000  0.5109170000000  0.5198640000000 1.0
C      1  0.5626030000000  0.5103070000000  0.4817230000000 1.0
C      1  0.5642740000000  0.4833920000000  0.5213130000000 1.0
C      1  0.4365090000000  0.5137090000000  0.4772530000000 1.0
C      1  0.4386920000000  0.4843730000000  0.5239960000000 1.0
C      1  0.5634100000000  0.5124270000000  0.5190830000000 1.0
C      1  0.5613050000000  0.4807750000000  0.4758670000000 1.0
C      1  0.4391060000000  0.5108950000000  0.5272420000000 1.0
C      1  0.4374610000000  0.4861550000000  0.4771100000000 1.0
C      1  0.4629290000000  0.4737720000000  0.4857950000000 1.0
C      1  0.4605810000000  0.5282620000000  0.5153120000000 1.0
C      1  0.5292740000000  0.4853550000000  0.4843480000000 1.0
C      1  0.5331660000000  0.5117090000000  0.5145600000000 1.0
C      1  0.4657030000000  0.4785790000000  0.5140710000000 1.0
C      1  0.4609470000000  0.5269320000000  0.4848880000000 1.0
C      1  0.5329990000000  0.4825040000000  0.5137220000000 1.0
C      1  0.5323390000000  0.5143790000000  0.4833550000000 1.0
C      1  0.4658730000000  0.5980460000000  0.5129130000000 1.0
C      1  0.4604090000000  0.4149850000000  0.4873980000000 1.0
C      1  0.5365520000000  0.5983520000000  0.5121690000000 1.0
C      1  0.5358680000000  0.4130690000000  0.4835920000000 1.0
C      1  0.4578170000000  0.5853970000000  0.4888360000000 1.0
C      1  0.4665650000000  0.4029940000000  0.5145390000000 1.0
C      1  0.5430330000000  0.5876920000000  0.4852500000000 1.0
C      1  0.5457350000000  0.4155390000000  0.5111770000000 1.0
C      1  0.5558160000000  0.5548440000000  0.5163430000000 1.0
C      1  0.5599350000000  0.4507990000000  0.4849640000000 1.0
C      1  0.4429740000000  0.5519740000000  0.5146890000000 1.0
C      1  0.4461030000000  0.4424050000000  0.4878730000000 1.0
C      1  0.5576710000000  0.5623440000000  0.4886060000000 1.0
C      1  0.5582290000000  0.4429100000000  0.5128050000000 1.0
C      1  0.4447150000000  0.5596720000000  0.4870570000000 1.0
C      1  0.4426060000000  0.4453310000000  0.5170830000000 1.0
C      1  0.5035030000000  0.4362620000000  0.5017790000000 1.0
C      1  0.5012240000000  0.5685610000000  0.4974360000000 1.0
END
