TITL C-2441164-471-543 0.108987484692238 125000 -26401.6120295149 0 0 194 (C1) n - 1
REM
REM in /home/bkarasulu/work/CARBON/AIRSS/Generating-Clusters/ReaxFF-fromJPCA2015/Units_Real/with-SteepDescent/Higher-Symm
REM
REM
REM
REM
REM
REM ./C.cell (1df0a924f5614ab8850e4351716899ee)
REM
REM compiler GCC version 9.2.1 20190827 (Red Hat 9.2.1-1)
REM options -cpp -mtune=generic -march=x86-64 -g -O0 -fpre-include=/usr/include/finclude/math-vector-fortran.h
REM seed 444809928 -489417159 -1617250553 772041170 535921584 -1594014194 -1082109829 -1396339777 -709939493 -633472920 446750533 -1944708547 118088055 -588968575 -1034418240 -76055570 -1613569400 -228897708 -1710110993 -1414810558 -1152142572 831266866 -1856417082 2024059856 1341855795 2021680994 -1914652758 -467239938 2089636360 1946993564 1668423380 884817241 1796616296
REM
CELL 1.54180   50.00000   50.00000   50.00000   90.00000   90.00000   90.00000
LATT -1
SFAC C  
C      1  0.4074870000000  0.4469770000000  0.4831400000000 1.0
C      1  0.4307540000000  0.5560660000000  0.4284330000000 1.0
C      1  0.4895730000000  0.4455460000000  0.4035950000000 1.0
C      1  0.5416420000000  0.5502410000000  0.4127050000000 1.0
C      1  0.5850410000000  0.4486580000000  0.4560420000000 1.0
C      1  0.5999220000000  0.5527370000000  0.5121060000000 1.0
C      1  0.5698050000000  0.4449140000000  0.5695740000000 1.0
C      1  0.5141020000000  0.5492770000000  0.5980080000000 1.0
C      1  0.4546280000000  0.4460400000000  0.5890230000000 1.0
C      1  0.4183370000000  0.5597130000000  0.5403570000000 1.0
C      1  0.5221340000000  0.4875890000000  0.4488280000000 1.0
C      1  0.5471450000000  0.5200600000000  0.4727370000000 1.0
C      1  0.5521060000000  0.4735640000000  0.5098450000000 1.0
C      1  0.5464680000000  0.5099410000000  0.5404040000000 1.0
C      1  0.5139530000000  0.4870830000000  0.5614140000000 1.0
C      1  0.4785710000000  0.5152820000000  0.5530870000000 1.0
C      1  0.4516230000000  0.4902970000000  0.5292550000000 1.0
C      1  0.4401940000000  0.5142320000000  0.4949950000000 1.0
C      1  0.4522410000000  0.4865270000000  0.4594660000000 1.0
C      1  0.4836150000000  0.5135290000000  0.4403270000000 1.0
C      1  0.4519200000000  0.5980760000000  0.5166060000000 1.0
C      1  0.4592740000000  0.3996170000000  0.4807820000000 1.0
C      1  0.4786020000000  0.6066100000000  0.4727640000000 1.0
C      1  0.5047890000000  0.3882560000000  0.4531390000000 1.0
C      1  0.5226130000000  0.6087330000000  0.4747150000000 1.0
C      1  0.5398400000000  0.3952690000000  0.4925310000000 1.0
C      1  0.5463640000000  0.6085660000000  0.5200850000000 1.0
C      1  0.5216170000000  0.3937950000000  0.5274650000000 1.0
C      1  0.4985520000000  0.6068960000000  0.5480660000000 1.0
C      1  0.4729580000000  0.3931230000000  0.5351810000000 1.0
C      1  0.5296080000000  0.4517360000000  0.4109040000000 1.0
C      1  0.5756730000000  0.5549920000000  0.4450240000000 1.0
C      1  0.5938190000000  0.4453490000000  0.5071860000000 1.0
C      1  0.5768590000000  0.5503170000000  0.5533700000000 1.0
C      1  0.5276770000000  0.4456500000000  0.5896750000000 1.0
C      1  0.4703680000000  0.5499740000000  0.5897470000000 1.0
C      1  0.4310220000000  0.4514410000000  0.5465840000000 1.0
C      1  0.3993490000000  0.5515770000000  0.4989210000000 1.0
C      1  0.4281730000000  0.4453650000000  0.4362250000000 1.0
C      1  0.4759250000000  0.5488860000000  0.4053890000000 1.0
C      1  0.5256590000000  0.4383450000000  0.4621350000000 1.0
C      1  0.5409790000000  0.5618790000000  0.4900630000000 1.0
C      1  0.5407560000000  0.4465280000000  0.5072710000000 1.0
C      1  0.5282700000000  0.5611940000000  0.5373150000000 1.0
C      1  0.4971200000000  0.4409590000000  0.5437240000000 1.0
C      1  0.4710190000000  0.5604950000000  0.5460170000000 1.0
C      1  0.4463640000000  0.4419920000000  0.5235670000000 1.0
C      1  0.4553620000000  0.5630350000000  0.4821440000000 1.0
C      1  0.4758730000000  0.4378860000000  0.4634550000000 1.0
C      1  0.4987490000000  0.5598690000000  0.4582560000000 1.0
C      1  0.4711490000000  0.5571590000000  0.4596710000000 1.0
C      1  0.5001320000000  0.4475360000000  0.4718760000000 1.0
C      1  0.5136240000000  0.5551370000000  0.4823610000000 1.0
C      1  0.5450860000000  0.4489880000000  0.4775670000000 1.0
C      1  0.5456530000000  0.5528360000000  0.5161910000000 1.0
C      1  0.5153500000000  0.4482750000000  0.5218190000000 1.0
C      1  0.5011700000000  0.5537960000000  0.5327610000000 1.0
C      1  0.4760060000000  0.4485520000000  0.5232010000000 1.0
C      1  0.4679110000000  0.5551060000000  0.5064800000000 1.0
C      1  0.4577780000000  0.4441900000000  0.4845400000000 1.0
C      1  0.4994540000000  0.5333910000000  0.3961190000000 1.0
C      1  0.5594550000000  0.4546610000000  0.4060420000000 1.0
C      1  0.6031870000000  0.5494570000000  0.4550640000000 1.0
C      1  0.6012050000000  0.4564790000000  0.5327610000000 1.0
C      1  0.5561080000000  0.5514130000000  0.5711440000000 1.0
C      1  0.5076280000000  0.4520680000000  0.6089130000000 1.0
C      1  0.4424080000000  0.5452510000000  0.5842140000000 1.0
C      1  0.4045580000000  0.4584860000000  0.5373590000000 1.0
C      1  0.3959960000000  0.5428790000000  0.4713890000000 1.0
C      1  0.4417600000000  0.4569880000000  0.4135160000000 1.0
C      1  0.4646640000000  0.5852720000000  0.5593710000000 1.0
C      1  0.4387530000000  0.4140030000000  0.5244430000000 1.0
C      1  0.4357410000000  0.5832930000000  0.4774390000000 1.0
C      1  0.4684350000000  0.4188510000000  0.4433000000000 1.0
C      1  0.5058530000000  0.5794830000000  0.4373610000000 1.0
C      1  0.5345130000000  0.4162640000000  0.4471080000000 1.0
C      1  0.5559160000000  0.5829350000000  0.4772450000000 1.0
C      1  0.5590200000000  0.4121130000000  0.5262690000000 1.0
C      1  0.5403960000000  0.5832120000000  0.5515430000000 1.0
C      1  0.5040060000000  0.4178800000000  0.5586840000000 1.0
C      1  0.5181130000000  0.5257090000000  0.4749920000000 1.0
C      1  0.5295200000000  0.4861890000000  0.4941520000000 1.0
C      1  0.5384960000000  0.5228010000000  0.5146840000000 1.0
C      1  0.5233900000000  0.4712890000000  0.5394400000000 1.0
C      1  0.5019510000000  0.5238950000000  0.5361770000000 1.0
C      1  0.4780100000000  0.4776420000000  0.5234640000000 1.0
C      1  0.4657280000000  0.5255390000000  0.5088240000000 1.0
C      1  0.4553420000000  0.4731970000000  0.4845240000000 1.0
C      1  0.4727610000000  0.5292040000000  0.4615940000000 1.0
C      1  0.4979330000000  0.4777360000000  0.4644720000000 1.0
C      1  0.3937040000000  0.5010790000000  0.5182600000000 1.0
C      1  0.4004000000000  0.4933720000000  0.4558840000000 1.0
C      1  0.4451690000000  0.5073580000000  0.4071010000000 1.0
C      1  0.5171950000000  0.4878730000000  0.3955980000000 1.0
C      1  0.5754030000000  0.5130370000000  0.4307040000000 1.0
C      1  0.5958630000000  0.4915370000000  0.4842210000000 1.0
C      1  0.6006030000000  0.5071180000000  0.5401650000000 1.0
C      1  0.5526130000000  0.4937000000000  0.5957140000000 1.0
C      1  0.4865540000000  0.5043530000000  0.6063050000000 1.0
C      1  0.4315550000000  0.4938760000000  0.5806940000000 1.0
C      1  0.4903290000000  0.5926390000000  0.5725820000000 1.0
C      1  0.4517120000000  0.4070540000000  0.5504500000000 1.0
C      1  0.4154300000000  0.5763300000000  0.4972200000000 1.0
C      1  0.4372290000000  0.4221960000000  0.4509160000000 1.0
C      1  0.4797450000000  0.5736400000000  0.4206670000000 1.0
C      1  0.5116720000000  0.4067560000000  0.4309540000000 1.0
C      1  0.5574360000000  0.5781610000000  0.4479030000000 1.0
C      1  0.5771360000000  0.4224800000000  0.5025450000000 1.0
C      1  0.5635380000000  0.5904310000000  0.5345750000000 1.0
C      1  0.5306920000000  0.4238850000000  0.5703200000000 1.0
C      1  0.3861740000000  0.4793080000000  0.4999330000000 1.0
C      1  0.4083050000000  0.5216490000000  0.4332800000000 1.0
C      1  0.4686510000000  0.4920240000000  0.3947010000000 1.0
C      1  0.5472730000000  0.5048130000000  0.3918280000000 1.0
C      1  0.5881030000000  0.4853400000000  0.4351050000000 1.0
C      1  0.6071500000000  0.5168930000000  0.4925900000000 1.0
C      1  0.5881040000000  0.4843020000000  0.5734070000000 1.0
C      1  0.5313560000000  0.5038900000000  0.6148270000000 1.0
C      1  0.4690480000000  0.4800480000000  0.6086010000000 1.0
C      1  0.4080470000000  0.5202990000000  0.5524280000000 1.0
C      1  0.5122060000000  0.4821240000000  0.6090100000000 1.0
C      1  0.4449420000000  0.5175580000000  0.5905020000000 1.0
C      1  0.4029060000000  0.4876190000000  0.5438400000000 1.0
C      1  0.3960430000000  0.5148920000000  0.4758530000000 1.0
C      1  0.4307470000000  0.4827580000000  0.4182360000000 1.0
C      1  0.4934220000000  0.5055430000000  0.3899710000000 1.0
C      1  0.5576770000000  0.4806460000000  0.3963290000000 1.0
C      1  0.6043690000000  0.5243340000000  0.4401830000000 1.0
C      1  0.6032990000000  0.4835780000000  0.5230100000000 1.0
C      1  0.5736900000000  0.5082030000000  0.5804850000000 1.0
C      1  0.5717270000000  0.4308670000000  0.4751000000000 1.0
C      1  0.5761140000000  0.5640470000000  0.5276540000000 1.0
C      1  0.5550650000000  0.4244160000000  0.5545270000000 1.0
C      1  0.4929390000000  0.5677110000000  0.5882760000000 1.0
C      1  0.4460770000000  0.4310320000000  0.5662170000000 1.0
C      1  0.4283260000000  0.5814020000000  0.5224440000000 1.0
C      1  0.4307970000000  0.4291960000000  0.4782640000000 1.0
C      1  0.4548650000000  0.5713120000000  0.4340620000000 1.0
C      1  0.4895900000000  0.4225610000000  0.4206780000000 1.0
C      1  0.5355840000000  0.5732530000000  0.4300120000000 1.0
C      1  0.4461090000000  0.5180670000000  0.4661230000000 1.0
C      1  0.4773790000000  0.4835620000000  0.4444040000000 1.0
C      1  0.5135360000000  0.5188740000000  0.4457700000000 1.0
C      1  0.5418090000000  0.4799470000000  0.4695410000000 1.0
C      1  0.5616540000000  0.5137520000000  0.4994130000000 1.0
C      1  0.5498470000000  0.4810770000000  0.5367920000000 1.0
C      1  0.5228700000000  0.5156740000000  0.5558070000000 1.0
C      1  0.4819100000000  0.4829430000000  0.5549810000000 1.0
C      1  0.4554760000000  0.5193950000000  0.5359080000000 1.0
C      1  0.4377890000000  0.4856410000000  0.5033160000000 1.0
C      1  0.5117630000000  0.4575990000000  0.3887750000000 1.0
C      1  0.5586330000000  0.5263340000000  0.4072270000000 1.0
C      1  0.5961650000000  0.4760150000000  0.4612110000000 1.0
C      1  0.6089150000000  0.5259800000000  0.5204660000000 1.0
C      1  0.5713750000000  0.4670130000000  0.5896560000000 1.0
C      1  0.5107090000000  0.5236630000000  0.6121930000000 1.0
C      1  0.4433510000000  0.4731900000000  0.5967410000000 1.0
C      1  0.3984120000000  0.5398800000000  0.5343350000000 1.0
C      1  0.3924760000000  0.4704080000000  0.4727820000000 1.0
C      1  0.4243290000000  0.5318200000000  0.4126710000000 1.0
C      1  0.5647380000000  0.5289130000000  0.4518510000000 1.0
C      1  0.5834410000000  0.4753550000000  0.5026350000000 1.0
C      1  0.5752350000000  0.5207640000000  0.5524010000000 1.0
C      1  0.5280880000000  0.4757190000000  0.5843190000000 1.0
C      1  0.4742980000000  0.5206930000000  0.5842550000000 1.0
C      1  0.4330730000000  0.4831650000000  0.5525900000000 1.0
C      1  0.4106360000000  0.5201590000000  0.5011570000000 1.0
C      1  0.4262150000000  0.4765180000000  0.4463010000000 1.0
C      1  0.4665670000000  0.5244970000000  0.4191920000000 1.0
C      1  0.5239380000000  0.4774700000000  0.4224060000000 1.0
C      1  0.4999070000000  0.3950600000000  0.5430210000000 1.0
C      1  0.4711680000000  0.6044540000000  0.5369340000000 1.0
C      1  0.4574900000000  0.3970400000000  0.5088880000000 1.0
C      1  0.4545520000000  0.6044790000000  0.4870120000000 1.0
C      1  0.4762350000000  0.3932450000000  0.4598300000000 1.0
C      1  0.5015240000000  0.6062670000000  0.4571670000000 1.0
C      1  0.5316940000000  0.3929440000000  0.4655520000000 1.0
C      1  0.5456370000000  0.6081930000000  0.4899330000000 1.0
C      1  0.5345790000000  0.4085760000000  0.5134700000000 1.0
C      1  0.5255790000000  0.6047650000000  0.5399670000000 1.0
C      1  0.6009820000000  0.5443650000000  0.4841230000000 1.0
C      1  0.5777450000000  0.4655310000000  0.5493480000000 1.0
C      1  0.5327770000000  0.5377610000000  0.5782830000000 1.0
C      1  0.4794910000000  0.4538470000000  0.6039020000000 1.0
C      1  0.4334380000000  0.5372800000000  0.5558040000000 1.0
C      1  0.4102320000000  0.4629750000000  0.5087100000000 1.0
C      1  0.4209910000000  0.5390710000000  0.4532020000000 1.0
C      1  0.4703390000000  0.4682370000000  0.4134510000000 1.0
C      1  0.5188220000000  0.5328670000000  0.4184680000000 1.0
C      1  0.5777530000000  0.4583590000000  0.4288430000000 1.0
C      1  0.4993740000000  0.5167510000000  0.5042960000000 1.0
C      1  0.4998210000000  0.4883700000000  0.4979540000000 1.0
C      1  0.4949970000000  0.4435690000000  0.5015210000000 1.0
C      1  0.4958340000000  0.5595760000000  0.5056220000000 1.0
END
