TITL C-2441165-58-955 0.00136013275140731 125000 -18596.5287576895 0 0 121 (C1) n - 1
REM
REM in /home/bkarasulu/work/CARBON/AIRSS/Generating-Clusters/ReaxFF-fromJPCA2015/Units_Real/with-SteepDescent/Higher-Symm
REM
REM
REM
REM
REM
REM ./C.cell (1df0a924f5614ab8850e4351716899ee)
REM
REM compiler GCC version 9.2.1 20190827 (Red Hat 9.2.1-1)
REM options -cpp -mtune=generic -march=x86-64 -g -O0 -fpre-include=/usr/include/finclude/math-vector-fortran.h
REM seed -1071210775 1267963871 -1721286269 -335941340 423839702 1265508945 -1907520247 -917922753 -91081470 -242808355 1965468106 1200580602 1156887393 -1185075340 46006804 -1441562183 283379859 1978438612 1713965 -1363258165 1603811753 -1357934747 344459303 -753042952 -1903281135 996055067 -1659284836 827116063 178614939 -1167199970 -2109595172 71405519 -969041652
REM
CELL 1.54180   50.00000   50.00000   50.00000   90.00000   90.00000   90.00000
LATT -1
SFAC C  
C      1  0.5898470000000  0.5300690000000  0.4660830000000 1.0
C      1  0.4257640000000  0.5295350000000  0.4396980000000 1.0
C      1  0.4863360000000  0.5301740000000  0.5972790000000 1.0
C      1  0.5910310000000  0.4721050000000  0.5344140000000 1.0
C      1  0.4218570000000  0.4700240000000  0.5602380000000 1.0
C      1  0.4820830000000  0.4700810000000  0.4056840000000 1.0
C      1  0.4067550000000  0.4674110000000  0.5354390000000 1.0
C      1  0.5751300000000  0.4695330000000  0.5590060000000 1.0
C      1  0.5117220000000  0.4711830000000  0.4038320000000 1.0
C      1  0.4112930000000  0.5275140000000  0.4653590000000 1.0
C      1  0.5740680000000  0.5278400000000  0.4405080000000 1.0
C      1  0.5153630000000  0.5327700000000  0.5968970000000 1.0
C      1  0.5316010000000  0.5602890000000  0.5032630000000 1.0
C      1  0.4860750000000  0.5672100000000  0.4749920000000 1.0
C      1  0.4860000000000  0.5718640000000  0.5274460000000 1.0
C      1  0.5303780000000  0.4381530000000  0.4979560000000 1.0
C      1  0.4856160000000  0.4324670000000  0.5260250000000 1.0
C      1  0.4829600000000  0.4391290000000  0.4733180000000 1.0
C      1  0.4692980000000  0.4291970000000  0.4988640000000 1.0
C      1  0.5162440000000  0.4285950000000  0.5242700000000 1.0
C      1  0.5131940000000  0.4310510000000  0.4729950000000 1.0
C      1  0.4699070000000  0.5617890000000  0.5007110000000 1.0
C      1  0.5147530000000  0.5566880000000  0.4736660000000 1.0
C      1  0.5146030000000  0.5727080000000  0.5277220000000 1.0
C      1  0.4236490000000  0.5030190000000  0.4325690000000 1.0
C      1  0.4790290000000  0.5034870000000  0.5994920000000 1.0
C      1  0.5977140000000  0.5036720000000  0.4663120000000 1.0
C      1  0.4237390000000  0.4966360000000  0.5675640000000 1.0
C      1  0.4781430000000  0.4968470000000  0.4026650000000 1.0
C      1  0.5989710000000  0.4986800000000  0.5321430000000 1.0
C      1  0.5759880000000  0.4961610000000  0.5663360000000 1.0
C      1  0.5195550000000  0.4975410000000  0.3994460000000 1.0
C      1  0.4008800000000  0.4945300000000  0.5330620000000 1.0
C      1  0.5740800000000  0.5012660000000  0.4322030000000 1.0
C      1  0.5204730000000  0.5057110000000  0.5993350000000 1.0
C      1  0.4040810000000  0.5010230000000  0.4690470000000 1.0
C      1  0.4939780000000  0.4851110000000  0.4537020000000 1.0
C      1  0.4615440000000  0.4723600000000  0.5362210000000 1.0
C      1  0.5526960000000  0.4833520000000  0.5106140000000 1.0
C      1  0.4847410000000  0.5269540000000  0.5522860000000 1.0
C      1  0.4677540000000  0.5222300000000  0.4577840000000 1.0
C      1  0.5534190000000  0.5155370000000  0.4977270000000 1.0
C      1  0.5126000000000  0.5288460000000  0.5526180000000 1.0
C      1  0.5366870000000  0.5110170000000  0.4740060000000 1.0
C      1  0.4582950000000  0.5147540000000  0.4826720000000 1.0
C      1  0.5196860000000  0.4764260000000  0.4479160000000 1.0
C      1  0.5357210000000  0.4771940000000  0.5340520000000 1.0
C      1  0.4465800000000  0.4758450000000  0.5121420000000 1.0
C      1  0.4656470000000  0.5316750000000  0.5042500000000 1.0
C      1  0.5200820000000  0.5207220000000  0.5280390000000 1.0
C      1  0.5143440000000  0.5267960000000  0.4677500000000 1.0
C      1  0.4599070000000  0.4855890000000  0.4875490000000 1.0
C      1  0.5357410000000  0.4832850000000  0.4682500000000 1.0
C      1  0.5087470000000  0.4795060000000  0.5274120000000 1.0
C      1  0.5359130000000  0.4686770000000  0.4923010000000 1.0
C      1  0.4786380000000  0.4706620000000  0.4725130000000 1.0
C      1  0.4879360000000  0.4625640000000  0.5316260000000 1.0
C      1  0.5370030000000  0.5333570000000  0.5130030000000 1.0
C      1  0.4765530000000  0.5167830000000  0.5263460000000 1.0
C      1  0.4929790000000  0.5135900000000  0.4549210000000 1.0
C      1  0.5294920000000  0.5451130000000  0.5705460000000 1.0
C      1  0.5497710000000  0.5460520000000  0.4339860000000 1.0
C      1  0.4183780000000  0.5454090000000  0.4908130000000 1.0
C      1  0.5280070000000  0.4581580000000  0.4286700000000 1.0
C      1  0.5447570000000  0.4603830000000  0.5565680000000 1.0
C      1  0.4228510000000  0.4569250000000  0.5100810000000 1.0
C      1  0.4636980000000  0.4512160000000  0.4229590000000 1.0
C      1  0.4518510000000  0.4546180000000  0.5602200000000 1.0
C      1  0.5777650000000  0.4598120000000  0.5073260000000 1.0
C      1  0.4701110000000  0.5445110000000  0.5715850000000 1.0
C      1  0.4557600000000  0.5408440000000  0.4403190000000 1.0
C      1  0.5769780000000  0.5403410000000  0.4926010000000 1.0
C      1  0.5598600000000  0.5455020000000  0.5669540000000 1.0
C      1  0.5322680000000  0.5474360000000  0.4102910000000 1.0
C      1  0.4075950000000  0.5447780000000  0.5180610000000 1.0
C      1  0.5581120000000  0.4528760000000  0.4295110000000 1.0
C      1  0.5280520000000  0.4573710000000  0.5822620000000 1.0
C      1  0.4090040000000  0.4522840000000  0.4836940000000 1.0
C      1  0.4346550000000  0.4520470000000  0.4281540000000 1.0
C      1  0.4683470000000  0.4539960000000  0.5863340000000 1.0
C      1  0.5919320000000  0.4560130000000  0.4806930000000 1.0
C      1  0.4401550000000  0.5462050000000  0.5692060000000 1.0
C      1  0.4716470000000  0.5458400000000  0.4147380000000 1.0
C      1  0.5935400000000  0.5471460000000  0.5173220000000 1.0
C      1  0.4828200000000  0.4761320000000  0.5993610000000 1.0
C      1  0.5958580000000  0.4765600000000  0.4594670000000 1.0
C      1  0.4184000000000  0.4760200000000  0.4370650000000 1.0
C      1  0.4857410000000  0.5238640000000  0.4003940000000 1.0
C      1  0.5985100000000  0.5259140000000  0.5373410000000 1.0
C      1  0.4210780000000  0.5239150000000  0.5641360000000 1.0
C      1  0.5166090000000  0.5248480000000  0.3981800000000 1.0
C      1  0.4051200000000  0.5216910000000  0.5380070000000 1.0
C      1  0.5796380000000  0.5236830000000  0.5618750000000 1.0
C      1  0.5137960000000  0.4783640000000  0.5977830000000 1.0
C      1  0.4033410000000  0.4739110000000  0.4639770000000 1.0
C      1  0.5784200000000  0.4740770000000  0.4336030000000 1.0
C      1  0.5611350000000  0.5655400000000  0.4990740000000 1.0
C      1  0.4722510000000  0.5683970000000  0.4502130000000 1.0
C      1  0.4703990000000  0.5700720000000  0.5516300000000 1.0
C      1  0.5621890000000  0.4353060000000  0.5001380000000 1.0
C      1  0.4681140000000  0.4302820000000  0.5524420000000 1.0
C      1  0.4668840000000  0.4329300000000  0.4454010000000 1.0
C      1  0.4411080000000  0.4298070000000  0.4994690000000 1.0
C      1  0.5292130000000  0.4313280000000  0.5491220000000 1.0
C      1  0.5281380000000  0.4309560000000  0.4491010000000 1.0
C      1  0.4378520000000  0.5657130000000  0.4990020000000 1.0
C      1  0.5317600000000  0.5643030000000  0.4482090000000 1.0
C      1  0.5303960000000  0.5714190000000  0.5518890000000 1.0
C      1  0.5142170000000  0.4336530000000  0.5741530000000 1.0
C      1  0.5573770000000  0.4319700000000  0.4492780000000 1.0
C      1  0.4252690000000  0.4300220000000  0.4751090000000 1.0
C      1  0.5163820000000  0.5689970000000  0.4236790000000 1.0
C      1  0.5592210000000  0.5684810000000  0.5496390000000 1.0
C      1  0.4251660000000  0.5679550000000  0.5253050000000 1.0
C      1  0.4865070000000  0.5683850000000  0.4248040000000 1.0
C      1  0.4416140000000  0.5681010000000  0.5504080000000 1.0
C      1  0.5750380000000  0.5685610000000  0.5240720000000 1.0
C      1  0.4841470000000  0.4319360000000  0.5759770000000 1.0
C      1  0.4379350000000  0.4297690000000  0.4480100000000 1.0
C      1  0.5741950000000  0.4335590000000  0.4741540000000 1.0
C      1  0.5012430000000  0.5036410000000  0.5172570000000 1.0
END
