TITL C-2441161-5029-553 0.00259229061713473 125000 -7313.74875687821 0 0 54 (C1) n - 1
REM
REM in /home/bkarasulu/work/CARBON/AIRSS/Generating-Clusters/ReaxFF-fromJPCA2015/Units_Real/with-SteepDescent/Higher-Symm
REM
REM
REM
REM
REM
REM ./C.cell (1df0a924f5614ab8850e4351716899ee)
REM
REM compiler GCC version 9.2.1 20190827 (Red Hat 9.2.1-1)
REM options -cpp -mtune=generic -march=x86-64 -g -O0 -fpre-include=/usr/include/finclude/math-vector-fortran.h
REM seed 1954691114 -41271618 1889596601 1933137588 -1082049434 720122539 1442126617 58416558 2024818743 -434038389 -521192872 1670582534 838347155 1218320973 1213912551 188478975 2106563281 11762760 1070407221 1183369401 304779234 -514819746 -1324200131 90971430 1186363187 1317008316 -528543215 -497442389 -657941635 1944946220 226468769 -240778463 41670248
REM
CELL 1.54180   50.00000   50.00000   50.00000   90.00000   90.00000   90.00000
LATT -1
SFAC C  
C      1  0.5363690000000  0.5673190000000  0.5090770000000 1.0
C      1  0.5242460000000  0.5533260000000  0.4669940000000 1.0
C      1  0.5239660000000  0.5175580000000  0.4382920000000 1.0
C      1  0.5312520000000  0.4741160000000  0.4382580000000 1.0
C      1  0.5333090000000  0.4397270000000  0.4679570000000 1.0
C      1  0.5259690000000  0.4410840000000  0.5092130000000 1.0
C      1  0.5241890000000  0.4592040000000  0.5466120000000 1.0
C      1  0.5231600000000  0.5031500000000  0.5609030000000 1.0
C      1  0.5251270000000  0.5446140000000  0.5452470000000 1.0
C      1  0.5084970000000  0.5051040000000  0.4030690000000 1.0
C      1  0.4971030000000  0.4558340000000  0.4268940000000 1.0
C      1  0.4959480000000  0.4246480000000  0.4699330000000 1.0
C      1  0.4973160000000  0.4162430000000  0.5213770000000 1.0
C      1  0.4950260000000  0.4592200000000  0.5756930000000 1.0
C      1  0.5020300000000  0.5223670000000  0.5896100000000 1.0
C      1  0.5113300000000  0.5818760000000  0.5532500000000 1.0
C      1  0.4962770000000  0.5836080000000  0.4995840000000 1.0
C      1  0.4989200000000  0.5637930000000  0.4367450000000 1.0
C      1  0.5474630000000  0.4839830000000  0.4597100000000 1.0
C      1  0.5490220000000  0.4620430000000  0.4784920000000 1.0
C      1  0.5460010000000  0.4603070000000  0.5070710000000 1.0
C      1  0.5435340000000  0.4744790000000  0.5317990000000 1.0
C      1  0.5421930000000  0.5021930000000  0.5402590000000 1.0
C      1  0.5434730000000  0.5289800000000  0.5299400000000 1.0
C      1  0.5496890000000  0.5423410000000  0.5047780000000 1.0
C      1  0.5429960000000  0.5350150000000  0.4772920000000 1.0
C      1  0.5424840000000  0.5123650000000  0.4594490000000 1.0
C      1  0.4382300000000  0.4654480000000  0.5103850000000 1.0
C      1  0.4382770000000  0.4799250000000  0.5312750000000 1.0
C      1  0.4393900000000  0.5086320000000  0.5395620000000 1.0
C      1  0.4416410000000  0.5341610000000  0.5232650000000 1.0
C      1  0.4359500000000  0.5309760000000  0.4956260000000 1.0
C      1  0.4369970000000  0.5168880000000  0.4747230000000 1.0
C      1  0.4458930000000  0.4961290000000  0.4577670000000 1.0
C      1  0.4375590000000  0.4734690000000  0.4660280000000 1.0
C      1  0.4443080000000  0.4603000000000  0.4862900000000 1.0
C      1  0.4725090000000  0.4702830000000  0.4872060000000 1.0
C      1  0.4797810000000  0.4660710000000  0.5151570000000 1.0
C      1  0.4655390000000  0.4760060000000  0.5388100000000 1.0
C      1  0.4649340000000  0.5030870000000  0.5507670000000 1.0
C      1  0.4774770000000  0.5250320000000  0.5428340000000 1.0
C      1  0.4702730000000  0.5402180000000  0.5180400000000 1.0
C      1  0.4795750000000  0.5305740000000  0.4929300000000 1.0
C      1  0.4860940000000  0.5191420000000  0.4702920000000 1.0
C      1  0.4729330000000  0.4927990000000  0.4663970000000 1.0
C      1  0.5196800000000  0.5745890000000  0.4869330000000 1.0
C      1  0.5058310000000  0.5378060000000  0.4499550000000 1.0
C      1  0.5124990000000  0.4932480000000  0.4278740000000 1.0
C      1  0.5164320000000  0.4514910000000  0.4470980000000 1.0
C      1  0.5185900000000  0.4240110000000  0.4874500000000 1.0
C      1  0.5034460000000  0.4468000000000  0.5263260000000 1.0
C      1  0.5171730000000  0.4746510000000  0.5705000000000 1.0
C      1  0.5057240000000  0.5265960000000  0.5587050000000 1.0
C      1  0.5163740000000  0.5671710000000  0.5303080000000 1.0
END
