TITL C-2441165-58-494 -0.000706731132693725 125000 -7158.05973462809 0 0 49 (C1) n - 1
REM
REM in /home/bkarasulu/work/CARBON/AIRSS/Generating-Clusters/ReaxFF-fromJPCA2015/Units_Real/with-SteepDescent/Higher-Symm
REM
REM
REM
REM
REM
REM ./C.cell (1df0a924f5614ab8850e4351716899ee)
REM
REM compiler GCC version 9.2.1 20190827 (Red Hat 9.2.1-1)
REM options -cpp -mtune=generic -march=x86-64 -g -O0 -fpre-include=/usr/include/finclude/math-vector-fortran.h
REM seed 807943367 -663258797 1558280452 -524983991 -1561310152 -852194206 1676995024 172012943 898731533 1043272227 650279968 2129881137 -303401703 -1433259737 928265022 -965109165 1153999582 26134763 -895013104 -1131115518 -951522896 1181192012 -1091892023 822100302 2078002019 -904038441 -566107753 1159602194 141697003 -335803510 557969346 -553003918 313304114
REM
CELL 1.54180   50.00000   50.00000   50.00000   90.00000   90.00000   90.00000
LATT -1
SFAC C  
C      1  0.5338290000000  0.5303920000000  0.5395360000000 1.0
C      1  0.5351000000000  0.5438180000000  0.5128070000000 1.0
C      1  0.5474020000000  0.5352600000000  0.4871130000000 1.0
C      1  0.5283260000000  0.5333620000000  0.4676810000000 1.0
C      1  0.5098190000000  0.5304660000000  0.4481620000000 1.0
C      1  0.4787770000000  0.5309140000000  0.4517940000000 1.0
C      1  0.4647990000000  0.5352560000000  0.4747630000000 1.0
C      1  0.4486900000000  0.5367570000000  0.4985230000000 1.0
C      1  0.4636040000000  0.5365900000000  0.5228620000000 1.0
C      1  0.4778840000000  0.5338260000000  0.5468810000000 1.0
C      1  0.5065670000000  0.5338370000000  0.5437550000000 1.0
C      1  0.4672050000000  0.5081670000000  0.4352720000000 1.0
C      1  0.4354140000000  0.4973310000000  0.4590950000000 1.0
C      1  0.4268280000000  0.5150510000000  0.5003460000000 1.0
C      1  0.4345420000000  0.4964400000000  0.5445340000000 1.0
C      1  0.4650640000000  0.5122640000000  0.5669440000000 1.0
C      1  0.5091580000000  0.4956290000000  0.5789930000000 1.0
C      1  0.5494780000000  0.5071980000000  0.5523280000000 1.0
C      1  0.5734780000000  0.5025490000000  0.5200660000000 1.0
C      1  0.5715730000000  0.5157450000000  0.4825410000000 1.0
C      1  0.5529610000000  0.4971030000000  0.4413680000000 1.0
C      1  0.5153320000000  0.5076170000000  0.4289790000000 1.0
C      1  0.4647380000000  0.4682230000000  0.4606370000000 1.0
C      1  0.4532200000000  0.4726270000000  0.4874670000000 1.0
C      1  0.4640940000000  0.4593660000000  0.5110950000000 1.0
C      1  0.4711250000000  0.4680860000000  0.5395930000000 1.0
C      1  0.4977380000000  0.4661210000000  0.5426490000000 1.0
C      1  0.5254360000000  0.4657780000000  0.5466910000000 1.0
C      1  0.5469260000000  0.4669190000000  0.5270060000000 1.0
C      1  0.5512640000000  0.4693380000000  0.4982760000000 1.0
C      1  0.5349060000000  0.4638860000000  0.4761510000000 1.0
C      1  0.5196590000000  0.4650480000000  0.4523720000000 1.0
C      1  0.4911880000000  0.4709040000000  0.4485240000000 1.0
C      1  0.5307660000000  0.4849160000000  0.4321230000000 1.0
C      1  0.4910850000000  0.4929150000000  0.4303890000000 1.0
C      1  0.4503550000000  0.4871860000000  0.4438320000000 1.0
C      1  0.4304320000000  0.4919210000000  0.4852000000000 1.0
C      1  0.4255340000000  0.5022800000000  0.5242200000000 1.0
C      1  0.4557470000000  0.4877930000000  0.5585940000000 1.0
C      1  0.4865710000000  0.5017010000000  0.5811880000000 1.0
C      1  0.5325990000000  0.4878760000000  0.5667260000000 1.0
C      1  0.5635810000000  0.4881420000000  0.5378980000000 1.0
C      1  0.5724160000000  0.4927640000000  0.4963120000000 1.0
C      1  0.5672700000000  0.5037410000000  0.4580240000000 1.0
C      1  0.5067190000000  0.5524660000000  0.5041760000000 1.0
C      1  0.4999290000000  0.4983010000000  0.4994320000000 1.0
C      1  0.4900800000000  0.4455880000000  0.5020800000000 1.0
C      1  0.4985650000000  0.5237380000000  0.5015060000000 1.0
C      1  0.5013020000000  0.4727160000000  0.4973460000000 1.0
END
