TITL C-2441169-1362-1252 0.0671253518883743 125000 -14927.0361708905 0 0 113 (C1) n - 1
REM
REM in /home/bkarasulu/work/CARBON/AIRSS/Generating-Clusters/ReaxFF-fromJPCA2015/Units_Real/with-SteepDescent/Higher-Symm
REM
REM
REM
REM
REM
REM ./C.cell (1df0a924f5614ab8850e4351716899ee)
REM
REM compiler GCC version 9.2.1 20190827 (Red Hat 9.2.1-1)
REM options -cpp -mtune=generic -march=x86-64 -g -O0 -fpre-include=/usr/include/finclude/math-vector-fortran.h
REM seed -291370950 -1993889244 340817471 1033452342 -1584909364 -2020587232 1556175709 913525494 -1071439073 81696786 -2093985642 1502384549 -422693639 -1702142155 -935550363 142202950 1681352983 388185780 -311676864 1402746912 -1502941698 1828719600 988275009 -412585923 279633061 -1596609110 -480303882 -615568131 1281586089 -20357286 819505948 1794682598 1558004382
REM
CELL 1.54180   50.00000   50.00000   50.00000   90.00000   90.00000   90.00000
LATT -1
SFAC C  
C      1  0.5210900000000  0.4584490000000  0.5089190000000 1.0
C      1  0.4133200000000  0.4812920000000  0.5401790000000 1.0
C      1  0.4647730000000  0.4332130000000  0.5332340000000 1.0
C      1  0.4411010000000  0.4467820000000  0.5227790000000 1.0
C      1  0.5181890000000  0.5444100000000  0.5684720000000 1.0
C      1  0.5660910000000  0.5207300000000  0.5258860000000 1.0
C      1  0.4747150000000  0.4952820000000  0.4259330000000 1.0
C      1  0.5793100000000  0.4933720000000  0.4594320000000 1.0
C      1  0.4789800000000  0.5316510000000  0.5353770000000 1.0
C      1  0.4329950000000  0.5132890000000  0.4390540000000 1.0
C      1  0.4332670000000  0.4428900000000  0.4948730000000 1.0
C      1  0.4408250000000  0.5715290000000  0.4856460000000 1.0
C      1  0.5027450000000  0.4124150000000  0.5158110000000 1.0
C      1  0.4925600000000  0.4793640000000  0.4936510000000 1.0
C      1  0.5562410000000  0.4541800000000  0.4489130000000 1.0
C      1  0.5645600000000  0.5187340000000  0.5544930000000 1.0
C      1  0.4519440000000  0.4639080000000  0.4386420000000 1.0
C      1  0.4733260000000  0.5570830000000  0.5481430000000 1.0
C      1  0.5728240000000  0.4509870000000  0.5280590000000 1.0
C      1  0.5194230000000  0.5107800000000  0.5273620000000 1.0
C      1  0.5530930000000  0.4831760000000  0.4514920000000 1.0
C      1  0.5905890000000  0.5357750000000  0.4874570000000 1.0
C      1  0.5412030000000  0.5798340000000  0.5154830000000 1.0
C      1  0.4615740000000  0.5873780000000  0.4724410000000 1.0
C      1  0.5688790000000  0.4367050000000  0.5019990000000 1.0
C      1  0.4741950000000  0.4290420000000  0.4834860000000 1.0
C      1  0.5129200000000  0.5590880000000  0.4558890000000 1.0
C      1  0.4170580000000  0.4661890000000  0.4933500000000 1.0
C      1  0.5114090000000  0.5355010000000  0.4760230000000 1.0
C      1  0.5141900000000  0.4850790000000  0.5405590000000 1.0
C      1  0.4931450000000  0.5428750000000  0.4981010000000 1.0
C      1  0.4872040000000  0.4407710000000  0.5526050000000 1.0
C      1  0.4284400000000  0.5517570000000  0.4676450000000 1.0
C      1  0.5866360000000  0.4762260000000  0.5325010000000 1.0
C      1  0.4888340000000  0.5450870000000  0.5715110000000 1.0
C      1  0.4578910000000  0.4532980000000  0.4853780000000 1.0
C      1  0.5904480000000  0.5175720000000  0.5104480000000 1.0
C      1  0.4882980000000  0.5369420000000  0.4235340000000 1.0
C      1  0.4745210000000  0.5066240000000  0.4711770000000 1.0
C      1  0.5364260000000  0.5021740000000  0.4208620000000 1.0
C      1  0.5667790000000  0.5670300000000  0.5154030000000 1.0
C      1  0.5036840000000  0.5014030000000  0.5049790000000 1.0
C      1  0.5026310000000  0.5079110000000  0.4659030000000 1.0
C      1  0.4884330000000  0.4319630000000  0.4332490000000 1.0
C      1  0.4916340000000  0.5833200000000  0.4736550000000 1.0
C      1  0.5040910000000  0.4662650000000  0.5575750000000 1.0
C      1  0.5329560000000  0.5716040000000  0.4885440000000 1.0
C      1  0.5476100000000  0.4203310000000  0.5133080000000 1.0
C      1  0.5279080000000  0.4845850000000  0.4697130000000 1.0
C      1  0.4902770000000  0.4697990000000  0.4689230000000 1.0
C      1  0.4394900000000  0.5546240000000  0.5234210000000 1.0
C      1  0.4325320000000  0.4758600000000  0.5172110000000 1.0
C      1  0.4084020000000  0.5085600000000  0.5297030000000 1.0
C      1  0.5373660000000  0.4799040000000  0.4977940000000 1.0
C      1  0.5040630000000  0.5382730000000  0.5244490000000 1.0
C      1  0.4468470000000  0.4906330000000  0.4282390000000 1.0
C      1  0.4926590000000  0.4641570000000  0.5173060000000 1.0
C      1  0.4752980000000  0.5733200000000  0.5231550000000 1.0
C      1  0.4554930000000  0.5580620000000  0.5066840000000 1.0
C      1  0.4793720000000  0.5173760000000  0.5762080000000 1.0
C      1  0.5240030000000  0.4778240000000  0.4146040000000 1.0
C      1  0.4605320000000  0.4769840000000  0.5850510000000 1.0
C      1  0.4656820000000  0.5224210000000  0.4942970000000 1.0
C      1  0.5431020000000  0.5236580000000  0.4368720000000 1.0
C      1  0.4147680000000  0.5095590000000  0.4605470000000 1.0
C      1  0.5478180000000  0.5621060000000  0.5358370000000 1.0
C      1  0.5140440000000  0.4578520000000  0.4626320000000 1.0
C      1  0.4749380000000  0.4166870000000  0.5109050000000 1.0
C      1  0.5060540000000  0.4692500000000  0.5864470000000 1.0
C      1  0.4704520000000  0.4304240000000  0.4551400000000 1.0
C      1  0.5512430000000  0.5659060000000  0.4685340000000 1.0
C      1  0.5370310000000  0.4271900000000  0.5410140000000 1.0
C      1  0.5833280000000  0.4758330000000  0.4821770000000 1.0
C      1  0.4857390000000  0.4836810000000  0.5995450000000 1.0
C      1  0.4733680000000  0.4850880000000  0.5304880000000 1.0
C      1  0.4745660000000  0.4553610000000  0.4228990000000 1.0
C      1  0.5735280000000  0.5599810000000  0.4879040000000 1.0
C      1  0.5133830000000  0.4930350000000  0.5948770000000 1.0
C      1  0.5384110000000  0.5307850000000  0.4883610000000 1.0
C      1  0.5737390000000  0.4907620000000  0.5549320000000 1.0
C      1  0.5820920000000  0.5221200000000  0.4633980000000 1.0
C      1  0.4619640000000  0.4751890000000  0.4662790000000 1.0
C      1  0.5081950000000  0.4220860000000  0.5430940000000 1.0
C      1  0.4663170000000  0.5497930000000  0.4354280000000 1.0
C      1  0.5504930000000  0.4523790000000  0.5469890000000 1.0
C      1  0.4107130000000  0.5315540000000  0.4786440000000 1.0
C      1  0.4295390000000  0.5302210000000  0.5360950000000 1.0
C      1  0.4106440000000  0.5124450000000  0.5010090000000 1.0
C      1  0.4734710000000  0.5679120000000  0.4560040000000 1.0
C      1  0.5210500000000  0.5563630000000  0.5422590000000 1.0
C      1  0.5379960000000  0.5547980000000  0.4397490000000 1.0
C      1  0.5400170000000  0.5242180000000  0.5700370000000 1.0
C      1  0.4309120000000  0.4667120000000  0.5576560000000 1.0
C      1  0.4405560000000  0.5405700000000  0.4435430000000 1.0
C      1  0.5360770000000  0.4533140000000  0.4273230000000 1.0
C      1  0.5333460000000  0.4969760000000  0.5757040000000 1.0
C      1  0.4551920000000  0.4560410000000  0.5663070000000 1.0
C      1  0.5104360000000  0.5537780000000  0.4279040000000 1.0
C      1  0.5437700000000  0.5104480000000  0.5093590000000 1.0
C      1  0.4382740000000  0.5147720000000  0.5566580000000 1.0
C      1  0.5176140000000  0.4373910000000  0.4425150000000 1.0
C      1  0.4954700000000  0.5722060000000  0.5013240000000 1.0
C      1  0.5512210000000  0.4760070000000  0.5643460000000 1.0
C      1  0.4516860000000  0.5056300000000  0.5785440000000 1.0
C      1  0.5226200000000  0.4290800000000  0.5012190000000 1.0
C      1  0.4869560000000  0.5126920000000  0.4107170000000 1.0
C      1  0.5929880000000  0.4885030000000  0.5072550000000 1.0
C      1  0.4573430000000  0.4998010000000  0.5114160000000 1.0
C      1  0.5682910000000  0.4516300000000  0.4769940000000 1.0
C      1  0.4191560000000  0.4923120000000  0.4826520000000 1.0
C      1  0.4807500000000  0.5074270000000  0.5486060000000 1.0
C      1  0.5528670000000  0.5242010000000  0.4647980000000 1.0
C      1  0.4934960000000  0.4806320000000  0.4108890000000 1.0
END
