TITL C-2441156-4686-1298 0.252858358048553 125000 -19172.4539082721 0 0 173 (C1) n - 1
REM
REM in /home/bkarasulu/work/CARBON/AIRSS/Generating-Clusters/ReaxFF-fromJPCA2015/Units_Real/with-SteepDescent/Higher-Symm
REM
REM
REM
REM
REM
REM ./C.cell (1df0a924f5614ab8850e4351716899ee)
REM
REM compiler GCC version 9.2.1 20190827 (Red Hat 9.2.1-1)
REM options -cpp -mtune=generic -march=x86-64 -g -O0 -fpre-include=/usr/include/finclude/math-vector-fortran.h
REM seed 660893609 -1976367594 -729349764 -2081317276 2053161830 -1695518830 -1583528248 -1702153424 631145072 1060811858 -1903920360 -1371472071 1122968888 -139156594 2118161758 821835501 -1813498106 -440647362 -735106408 -1641750634 1877069081 1596478233 283857469 -1347467053 -683747659 -1210596031 266311072 1756431632 235257364 281372559 -319278211 -335720225 -675966199
REM
CELL 1.54180   50.00000   50.00000   50.00000   90.00000   90.00000   90.00000
LATT -1
SFAC C  
C      1  0.4480020000000  0.5218470000000  0.5389940000000 1.0
C      1  0.5504920000000  0.5214580000000  0.5369250000000 1.0
C      1  0.5843770000000  0.5516460000000  0.4662850000000 1.0
C      1  0.4154580000000  0.5520330000000  0.4657440000000 1.0
C      1  0.5659080000000  0.5615230000000  0.5488760000000 1.0
C      1  0.4337270000000  0.5621390000000  0.5487930000000 1.0
C      1  0.5317500000000  0.3931960000000  0.4754750000000 1.0
C      1  0.4703290000000  0.4003980000000  0.4829240000000 1.0
C      1  0.4111520000000  0.5073640000000  0.5651660000000 1.0
C      1  0.5861710000000  0.5082400000000  0.5637670000000 1.0
C      1  0.5655220000000  0.4305330000000  0.4557260000000 1.0
C      1  0.4389880000000  0.4335020000000  0.4560950000000 1.0
C      1  0.5263730000000  0.5548060000000  0.5746750000000 1.0
C      1  0.4716310000000  0.5588780000000  0.5816890000000 1.0
C      1  0.4081760000000  0.5194670000000  0.5366510000000 1.0
C      1  0.5950260000000  0.5204910000000  0.5384830000000 1.0
C      1  0.5490680000000  0.4528530000000  0.4574820000000 1.0
C      1  0.4541330000000  0.4570100000000  0.4506830000000 1.0
C      1  0.5363480000000  0.4061120000000  0.5325680000000 1.0
C      1  0.4610960000000  0.4048470000000  0.5350280000000 1.0
C      1  0.5931530000000  0.4675690000000  0.4739200000000 1.0
C      1  0.4071940000000  0.4682200000000  0.4741690000000 1.0
C      1  0.5373750000000  0.5352010000000  0.5156910000000 1.0
C      1  0.4638410000000  0.5399670000000  0.5199370000000 1.0
C      1  0.4273970000000  0.5341350000000  0.4982210000000 1.0
C      1  0.5738420000000  0.5331560000000  0.4989060000000 1.0
C      1  0.3988070000000  0.4748810000000  0.5019140000000 1.0
C      1  0.6015350000000  0.4734510000000  0.5006910000000 1.0
C      1  0.5344370000000  0.5836960000000  0.4628950000000 1.0
C      1  0.4649380000000  0.5838890000000  0.4615130000000 1.0
C      1  0.4476040000000  0.4575080000000  0.5862470000000 1.0
C      1  0.5521740000000  0.4565860000000  0.5860800000000 1.0
C      1  0.4675100000000  0.4549250000000  0.5267910000000 1.0
C      1  0.5331970000000  0.4526910000000  0.5304430000000 1.0
C      1  0.5574810000000  0.4957350000000  0.5312940000000 1.0
C      1  0.4461460000000  0.4948380000000  0.5319350000000 1.0
C      1  0.5849950000000  0.4788300000000  0.5624320000000 1.0
C      1  0.4132080000000  0.4780780000000  0.5604360000000 1.0
C      1  0.4861540000000  0.4231010000000  0.4692500000000 1.0
C      1  0.5168100000000  0.4137640000000  0.4792070000000 1.0
C      1  0.4809420000000  0.4650600000000  0.4445890000000 1.0
C      1  0.5065230000000  0.4584040000000  0.4400780000000 1.0
C      1  0.5536090000000  0.4573740000000  0.4284650000000 1.0
C      1  0.4431040000000  0.4552510000000  0.4234740000000 1.0
C      1  0.5136300000000  0.5163430000000  0.5178160000000 1.0
C      1  0.4835220000000  0.5189530000000  0.5134210000000 1.0
C      1  0.5613870000000  0.5052930000000  0.4156050000000 1.0
C      1  0.4381580000000  0.5052320000000  0.4153740000000 1.0
C      1  0.5361460000000  0.4972370000000  0.4492090000000 1.0
C      1  0.4621290000000  0.4988170000000  0.4490050000000 1.0
C      1  0.5549970000000  0.5041910000000  0.4713280000000 1.0
C      1  0.4437670000000  0.5045930000000  0.4707050000000 1.0
C      1  0.4254800000000  0.5282360000000  0.4263340000000 1.0
C      1  0.5740500000000  0.5280980000000  0.4268740000000 1.0
C      1  0.5155340000000  0.4783100000000  0.4987940000000 1.0
C      1  0.4906450000000  0.4756140000000  0.4997380000000 1.0
C      1  0.4852020000000  0.5671770000000  0.5220910000000 1.0
C      1  0.5171080000000  0.5560910000000  0.5217640000000 1.0
C      1  0.4855930000000  0.4236200000000  0.4388850000000 1.0
C      1  0.5147560000000  0.4292850000000  0.4378720000000 1.0
C      1  0.5247000000000  0.5929070000000  0.5371010000000 1.0
C      1  0.4742440000000  0.5865350000000  0.5411340000000 1.0
C      1  0.4515850000000  0.5327250000000  0.4890900000000 1.0
C      1  0.5502030000000  0.5298450000000  0.4881810000000 1.0
C      1  0.5120840000000  0.5439300000000  0.5475870000000 1.0
C      1  0.4895840000000  0.5285120000000  0.5556940000000 1.0
C      1  0.4730610000000  0.5611350000000  0.4198790000000 1.0
C      1  0.5272900000000  0.5617520000000  0.4205880000000 1.0
C      1  0.5928130000000  0.5153730000000  0.4464860000000 1.0
C      1  0.4070460000000  0.5155970000000  0.4462840000000 1.0
C      1  0.3977540000000  0.5019780000000  0.5148280000000 1.0
C      1  0.6058740000000  0.5023570000000  0.5167590000000 1.0
C      1  0.4152400000000  0.5483590000000  0.5324340000000 1.0
C      1  0.5862240000000  0.5480810000000  0.5331210000000 1.0
C      1  0.4400580000000  0.5826470000000  0.5060060000000 1.0
C      1  0.5602440000000  0.5812180000000  0.5062130000000 1.0
C      1  0.5678160000000  0.4556080000000  0.5610340000000 1.0
C      1  0.4276360000000  0.4532120000000  0.5652140000000 1.0
C      1  0.4196320000000  0.5611060000000  0.5056400000000 1.0
C      1  0.5810470000000  0.5602560000000  0.5062500000000 1.0
C      1  0.4802960000000  0.5409190000000  0.4589780000000 1.0
C      1  0.5182880000000  0.5437860000000  0.4626110000000 1.0
C      1  0.5619190000000  0.4181260000000  0.5234260000000 1.0
C      1  0.4373980000000  0.4195930000000  0.5238590000000 1.0
C      1  0.5312330000000  0.5083370000000  0.4164210000000 1.0
C      1  0.4683870000000  0.5079270000000  0.4174210000000 1.0
C      1  0.4689950000000  0.4384160000000  0.4188900000000 1.0
C      1  0.5330670000000  0.4395030000000  0.4166500000000 1.0
C      1  0.5624510000000  0.4302790000000  0.4962910000000 1.0
C      1  0.4376490000000  0.4298910000000  0.4961340000000 1.0
C      1  0.3978440000000  0.5308290000000  0.4694560000000 1.0
C      1  0.6026440000000  0.5305350000000  0.4699150000000 1.0
C      1  0.5272080000000  0.4566850000000  0.4781950000000 1.0
C      1  0.4802760000000  0.4560110000000  0.4821730000000 1.0
C      1  0.5567410000000  0.5512320000000  0.5746210000000 1.0
C      1  0.4451880000000  0.5516260000000  0.5741590000000 1.0
C      1  0.5139250000000  0.5322120000000  0.5942800000000 1.0
C      1  0.4852580000000  0.5333730000000  0.5879230000000 1.0
C      1  0.5421880000000  0.5457770000000  0.4524000000000 1.0
C      1  0.4562020000000  0.5444650000000  0.4509790000000 1.0
C      1  0.4515620000000  0.5235420000000  0.5671810000000 1.0
C      1  0.5403690000000  0.5157140000000  0.5627340000000 1.0
C      1  0.5176840000000  0.5165730000000  0.4616300000000 1.0
C      1  0.4808720000000  0.5142840000000  0.4620600000000 1.0
C      1  0.5569780000000  0.5585380000000  0.4716060000000 1.0
C      1  0.4433680000000  0.5583290000000  0.4704380000000 1.0
C      1  0.4623890000000  0.5924820000000  0.4885410000000 1.0
C      1  0.5376930000000  0.5923370000000  0.4898920000000 1.0
C      1  0.5155170000000  0.5982370000000  0.5090870000000 1.0
C      1  0.4888370000000  0.5888860000000  0.5021370000000 1.0
C      1  0.4160500000000  0.4577470000000  0.5178170000000 1.0
C      1  0.5855770000000  0.4571540000000  0.5178880000000 1.0
C      1  0.5903960000000  0.4856420000000  0.4497150000000 1.0
C      1  0.4093520000000  0.4853730000000  0.4499410000000 1.0
C      1  0.4862730000000  0.5049820000000  0.4888990000000 1.0
C      1  0.5136570000000  0.5050280000000  0.4897530000000 1.0
C      1  0.5162750000000  0.4767230000000  0.5305340000000 1.0
C      1  0.4860970000000  0.4778420000000  0.5314050000000 1.0
C      1  0.5939630000000  0.5133100000000  0.4926510000000 1.0
C      1  0.4095550000000  0.5129020000000  0.4912040000000 1.0
C      1  0.5250200000000  0.4485260000000  0.5795500000000 1.0
C      1  0.4728290000000  0.4431420000000  0.5851380000000 1.0
C      1  0.5143960000000  0.4862820000000  0.4042880000000 1.0
C      1  0.4856400000000  0.4854280000000  0.4055690000000 1.0
C      1  0.5191660000000  0.4099570000000  0.5096580000000 1.0
C      1  0.4780730000000  0.4059830000000  0.5109220000000 1.0
C      1  0.4871740000000  0.4409330000000  0.5578740000000 1.0
C      1  0.5166330000000  0.4377450000000  0.5562190000000 1.0
C      1  0.4427400000000  0.4835200000000  0.4905670000000 1.0
C      1  0.5589670000000  0.4828990000000  0.4905980000000 1.0
C      1  0.5147140000000  0.5817260000000  0.5626390000000 1.0
C      1  0.4858150000000  0.5790310000000  0.5667000000000 1.0
C      1  0.5450810000000  0.4921420000000  0.5116360000000 1.0
C      1  0.4580010000000  0.4951150000000  0.5107300000000 1.0
C      1  0.4191520000000  0.4398980000000  0.4748660000000 1.0
C      1  0.5829680000000  0.4387460000000  0.4762380000000 1.0
C      1  0.5135390000000  0.4089820000000  0.5508820000000 1.0
C      1  0.4842730000000  0.4095930000000  0.5524530000000 1.0
C      1  0.5104270000000  0.5544340000000  0.4896200000000 1.0
C      1  0.4845670000000  0.5505430000000  0.4837700000000 1.0
C      1  0.5813210000000  0.4819750000000  0.5329570000000 1.0
C      1  0.4240910000000  0.4795340000000  0.5335870000000 1.0
C      1  0.5180250000000  0.4938880000000  0.5531690000000 1.0
C      1  0.4891430000000  0.5001550000000  0.5517960000000 1.0
C      1  0.5144690000000  0.5036720000000  0.5979800000000 1.0
C      1  0.4855520000000  0.5010760000000  0.5968760000000 1.0
C      1  0.4282850000000  0.5212910000000  0.5825130000000 1.0
C      1  0.5644640000000  0.5227360000000  0.5780580000000 1.0
C      1  0.4453000000000  0.5514500000000  0.4256190000000 1.0
C      1  0.5542620000000  0.5511850000000  0.4266560000000 1.0
C      1  0.5478320000000  0.4558880000000  0.4993040000000 1.0
C      1  0.4534690000000  0.4556770000000  0.4977000000000 1.0
C      1  0.5726810000000  0.4807200000000  0.4272610000000 1.0
C      1  0.4269150000000  0.4804680000000  0.4267910000000 1.0
C      1  0.5155690000000  0.4564290000000  0.4006130000000 1.0
C      1  0.4852540000000  0.4558140000000  0.4019230000000 1.0
C      1  0.5136510000000  0.4366440000000  0.5165280000000 1.0
C      1  0.4867270000000  0.4350050000000  0.5181570000000 1.0
C      1  0.5146170000000  0.5362670000000  0.4142910000000 1.0
C      1  0.4860290000000  0.5359050000000  0.4143910000000 1.0
C      1  0.5518990000000  0.5827270000000  0.5333540000000 1.0
C      1  0.4463470000000  0.5834190000000  0.5339710000000 1.0
C      1  0.4639210000000  0.4838190000000  0.5857740000000 1.0
C      1  0.5402300000000  0.4837700000000  0.5920080000000 1.0
C      1  0.5153810000000  0.4762180000000  0.4580300000000 1.0
C      1  0.4858250000000  0.4779810000000  0.4628610000000 1.0
C      1  0.4228050000000  0.4390450000000  0.5391960000000 1.0
C      1  0.5769380000000  0.4381930000000  0.5379510000000 1.0
C      1  0.5153110000000  0.5802000000000  0.4416690000000 1.0
C      1  0.4847800000000  0.5795520000000  0.4411530000000 1.0
C      1  0.5215880000000  0.4755660000000  0.5722620000000 1.0
C      1  0.4836950000000  0.4670710000000  0.5727500000000 1.0
C      1  0.4993430000000  0.5096040000000  0.4423560000000 1.0
END
