TITL C-2441159-1093-1475 0.148953468590433 125000 -24355.0652667707 0 0 180 (C1) n - 1
REM
REM in /home/bkarasulu/work/CARBON/AIRSS/Generating-Clusters/ReaxFF-fromJPCA2015/Units_Real/with-SteepDescent/Higher-Symm
REM
REM
REM
REM
REM
REM ./C.cell (1df0a924f5614ab8850e4351716899ee)
REM
REM compiler GCC version 9.2.1 20190827 (Red Hat 9.2.1-1)
REM options -cpp -mtune=generic -march=x86-64 -g -O0 -fpre-include=/usr/include/finclude/math-vector-fortran.h
REM seed -2135538879 1660868672 -1975203861 1418344587 -1917681276 -475644071 -1135890661 917554389 -1878356068 -141860312 -1519288199 1487904164 -596146896 -1957950046 -1478848188 821019248 -1310992666 -14784882 25935200 -784371771 2011218621 -56886312 -913480842 -1792272411 -1847413498 995741432 1331958958 -595123114 986868804 105719905 1961160040 -562025292 430290323
REM
CELL 1.54180   50.00000   50.00000   50.00000   90.00000   90.00000   90.00000
LATT -1
SFAC C  
C      1  0.5543840000000  0.5970390000000  0.5377880000000 1.0
C      1  0.5542970000000  0.6018480000000  0.4847780000000 1.0
C      1  0.5543970000000  0.5822950000000  0.4351290000000 1.0
C      1  0.5550550000000  0.5380260000000  0.4031530000000 1.0
C      1  0.5548320000000  0.4849020000000  0.3969200000000 1.0
C      1  0.5549520000000  0.4350410000000  0.4191430000000 1.0
C      1  0.5551330000000  0.4027660000000  0.4617260000000 1.0
C      1  0.5549020000000  0.3967210000000  0.5162250000000 1.0
C      1  0.5548220000000  0.4185470000000  0.5664940000000 1.0
C      1  0.5542500000000  0.4624560000000  0.5959660000000 1.0
C      1  0.5542240000000  0.5151340000000  0.6028200000000 1.0
C      1  0.5545470000000  0.5650840000000  0.5807440000000 1.0
C      1  0.5984210000000  0.5221940000000  0.5502980000000 1.0
C      1  0.5995160000000  0.5445810000000  0.5326430000000 1.0
C      1  0.5943930000000  0.5532590000000  0.5064530000000 1.0
C      1  0.5945980000000  0.5488850000000  0.4797180000000 1.0
C      1  0.5984410000000  0.5330420000000  0.4561780000000 1.0
C      1  0.5975730000000  0.5066350000000  0.4479190000000 1.0
C      1  0.5986460000000  0.4782690000000  0.4500120000000 1.0
C      1  0.5985920000000  0.4571630000000  0.4684240000000 1.0
C      1  0.5992710000000  0.4447730000000  0.4939980000000 1.0
C      1  0.5947050000000  0.4498270000000  0.5211720000000 1.0
C      1  0.5982440000000  0.4680760000000  0.5423720000000 1.0
C      1  0.5960020000000  0.4936710000000  0.5506070000000 1.0
C      1  0.5264430000000  0.4365790000000  0.4197150000000 1.0
C      1  0.5266580000000  0.4042810000000  0.4617760000000 1.0
C      1  0.5264560000000  0.3987670000000  0.5154810000000 1.0
C      1  0.5261630000000  0.4197640000000  0.5650920000000 1.0
C      1  0.5262430000000  0.4626330000000  0.5950940000000 1.0
C      1  0.5257210000000  0.5149860000000  0.6007080000000 1.0
C      1  0.5259090000000  0.5636620000000  0.5796790000000 1.0
C      1  0.5257430000000  0.5959800000000  0.5371360000000 1.0
C      1  0.5263020000000  0.6019900000000  0.4848210000000 1.0
C      1  0.5258620000000  0.5818800000000  0.4360330000000 1.0
C      1  0.5264530000000  0.5382580000000  0.4056580000000 1.0
C      1  0.5264280000000  0.4854750000000  0.3989640000000 1.0
C      1  0.4707710000000  0.4243980000000  0.5605970000000 1.0
C      1  0.4705870000000  0.4653260000000  0.5894020000000 1.0
C      1  0.4711420000000  0.5145730000000  0.5946200000000 1.0
C      1  0.4716610000000  0.5632330000000  0.5779350000000 1.0
C      1  0.4711820000000  0.5888180000000  0.5344210000000 1.0
C      1  0.4705670000000  0.5951080000000  0.4856280000000 1.0
C      1  0.4718800000000  0.5771120000000  0.4391050000000 1.0
C      1  0.4722150000000  0.5362400000000  0.4091470000000 1.0
C      1  0.4724490000000  0.4857430000000  0.4001560000000 1.0
C      1  0.4736610000000  0.4392900000000  0.4211090000000 1.0
C      1  0.4720790000000  0.4096600000000  0.4633270000000 1.0
C      1  0.4740850000000  0.3987420000000  0.5141300000000 1.0
C      1  0.4445700000000  0.4188540000000  0.4673960000000 1.0
C      1  0.4486810000000  0.4043390000000  0.5138330000000 1.0
C      1  0.4408030000000  0.4323490000000  0.5573480000000 1.0
C      1  0.4429200000000  0.4690820000000  0.5820200000000 1.0
C      1  0.4407770000000  0.5134640000000  0.5882180000000 1.0
C      1  0.4424910000000  0.5683140000000  0.5771190000000 1.0
C      1  0.4427870000000  0.5810020000000  0.5320190000000 1.0
C      1  0.4411420000000  0.5884290000000  0.4878660000000 1.0
C      1  0.4440260000000  0.5700370000000  0.4472980000000 1.0
C      1  0.4430840000000  0.5325740000000  0.4180200000000 1.0
C      1  0.4456990000000  0.4865640000000  0.4058020000000 1.0
C      1  0.4467600000000  0.4398690000000  0.4214160000000 1.0
C      1  0.5026000000000  0.5442290000000  0.5317190000000 1.0
C      1  0.5032640000000  0.5556840000000  0.5045000000000 1.0
C      1  0.5143550000000  0.5559790000000  0.4780590000000 1.0
C      1  0.5071860000000  0.5365940000000  0.4586090000000 1.0
C      1  0.5015430000000  0.4993880000000  0.4445990000000 1.0
C      1  0.5125470000000  0.4745550000000  0.4497870000000 1.0
C      1  0.4971620000000  0.4581650000000  0.4669860000000 1.0
C      1  0.5087480000000  0.4471730000000  0.4902780000000 1.0
C      1  0.5042570000000  0.4485010000000  0.5199590000000 1.0
C      1  0.4993710000000  0.4684050000000  0.5465840000000 1.0
C      1  0.4981120000000  0.4967720000000  0.5518530000000 1.0
C      1  0.5115620000000  0.5207540000000  0.5454690000000 1.0
C      1  0.3986710000000  0.4821380000000  0.5550900000000 1.0
C      1  0.3948330000000  0.5113060000000  0.5531440000000 1.0
C      1  0.3920920000000  0.5315000000000  0.5345260000000 1.0
C      1  0.3985690000000  0.5523710000000  0.5187220000000 1.0
C      1  0.3969940000000  0.5534490000000  0.4880940000000 1.0
C      1  0.3933850000000  0.5346170000000  0.4691510000000 1.0
C      1  0.3996740000000  0.5188510000000  0.4478880000000 1.0
C      1  0.4043330000000  0.4889800000000  0.4408010000000 1.0
C      1  0.3962220000000  0.4641150000000  0.4607270000000 1.0
C      1  0.3890410000000  0.4574990000000  0.4859730000000 1.0
C      1  0.3921720000000  0.4492960000000  0.5114750000000 1.0
C      1  0.4009980000000  0.4599640000000  0.5381370000000 1.0
C      1  0.5135390000000  0.6012950000000  0.5110810000000 1.0
C      1  0.5136390000000  0.5946700000000  0.4595370000000 1.0
C      1  0.5139680000000  0.5614800000000  0.4184190000000 1.0
C      1  0.5141630000000  0.5121720000000  0.4002120000000 1.0
C      1  0.5142460000000  0.4600730000000  0.4070010000000 1.0
C      1  0.5140470000000  0.4187030000000  0.4393280000000 1.0
C      1  0.5146010000000  0.3987840000000  0.4880470000000 1.0
C      1  0.5138050000000  0.4071400000000  0.5411530000000 1.0
C      1  0.5132780000000  0.4397730000000  0.5821640000000 1.0
C      1  0.5135350000000  0.4883560000000  0.6001210000000 1.0
C      1  0.5133610000000  0.5400950000000  0.5917980000000 1.0
C      1  0.5137640000000  0.5819010000000  0.5599850000000 1.0
C      1  0.4703980000000  0.4969320000000  0.5486850000000 1.0
C      1  0.4603640000000  0.5211670000000  0.5398160000000 1.0
C      1  0.4749190000000  0.5412430000000  0.5290290000000 1.0
C      1  0.4752840000000  0.5489540000000  0.5014750000000 1.0
C      1  0.4645740000000  0.5365160000000  0.4782650000000 1.0
C      1  0.4799470000000  0.5302380000000  0.4575570000000 1.0
C      1  0.4752240000000  0.5051100000000  0.4457080000000 1.0
C      1  0.4584040000000  0.4822770000000  0.4522170000000 1.0
C      1  0.4718400000000  0.4659810000000  0.4696110000000 1.0
C      1  0.4612180000000  0.4593480000000  0.4930350000000 1.0
C      1  0.4749630000000  0.4533950000000  0.5169420000000 1.0
C      1  0.4705860000000  0.4679760000000  0.5418400000000 1.0
C      1  0.5358610000000  0.4527700000000  0.4936310000000 1.0
C      1  0.5350020000000  0.4529630000000  0.5224740000000 1.0
C      1  0.5472410000000  0.4699970000000  0.5412950000000 1.0
C      1  0.5465640000000  0.4938110000000  0.5516950000000 1.0
C      1  0.5362450000000  0.5150800000000  0.5398700000000 1.0
C      1  0.5510390000000  0.5362820000000  0.5289450000000 1.0
C      1  0.5435340000000  0.5526030000000  0.5082870000000 1.0
C      1  0.5420190000000  0.5467820000000  0.4794450000000 1.0
C      1  0.5323200000000  0.5226360000000  0.4637450000000 1.0
C      1  0.5472580000000  0.5032990000000  0.4502300000000 1.0
C      1  0.5389160000000  0.4782350000000  0.4545030000000 1.0
C      1  0.5511030000000  0.4624690000000  0.4719520000000 1.0
C      1  0.5664940000000  0.4015830000000  0.4892820000000 1.0
C      1  0.5658270000000  0.4100770000000  0.5402590000000 1.0
C      1  0.5652210000000  0.4426880000000  0.5789420000000 1.0
C      1  0.5647330000000  0.4887290000000  0.5969270000000 1.0
C      1  0.5659240000000  0.5395630000000  0.5907040000000 1.0
C      1  0.5651750000000  0.5782040000000  0.5572350000000 1.0
C      1  0.5650630000000  0.5969980000000  0.5105950000000 1.0
C      1  0.5648220000000  0.5890200000000  0.4615870000000 1.0
C      1  0.5661760000000  0.5596630000000  0.4200860000000 1.0
C      1  0.5655730000000  0.5110980000000  0.4031290000000 1.0
C      1  0.5666090000000  0.4604830000000  0.4091940000000 1.0
C      1  0.5654990000000  0.4217710000000  0.4424790000000 1.0
C      1  0.5768000000000  0.5473780000000  0.4433660000000 1.0
C      1  0.5714720000000  0.5036720000000  0.4318350000000 1.0
C      1  0.5792350000000  0.4757260000000  0.4291330000000 1.0
C      1  0.5719920000000  0.4432260000000  0.4631420000000 1.0
C      1  0.5783760000000  0.4270800000000  0.4863860000000 1.0
C      1  0.5707990000000  0.4371040000000  0.5310690000000 1.0
C      1  0.5719430000000  0.4554790000000  0.5533310000000 1.0
C      1  0.5700070000000  0.4973770000000  0.5692300000000 1.0
C      1  0.5779610000000  0.5248010000000  0.5703610000000 1.0
C      1  0.5727430000000  0.5559720000000  0.5395790000000 1.0
C      1  0.5694770000000  0.5685110000000  0.5125060000000 1.0
C      1  0.5701460000000  0.5612300000000  0.4669760000000 1.0
C      1  0.4867270000000  0.4613860000000  0.4076830000000 1.0
C      1  0.4860640000000  0.4201750000000  0.4402090000000 1.0
C      1  0.4865850000000  0.4004720000000  0.4867940000000 1.0
C      1  0.4854460000000  0.4089870000000  0.5414110000000 1.0
C      1  0.4844610000000  0.4409230000000  0.5801040000000 1.0
C      1  0.4848130000000  0.4894550000000  0.5979890000000 1.0
C      1  0.4845230000000  0.5395080000000  0.5900880000000 1.0
C      1  0.4851900000000  0.5806290000000  0.5589530000000 1.0
C      1  0.4848230000000  0.5983970000000  0.5105140000000 1.0
C      1  0.4850080000000  0.5915000000000  0.4606400000000 1.0
C      1  0.4852320000000  0.5599760000000  0.4196250000000 1.0
C      1  0.4857900000000  0.5126830000000  0.4008290000000 1.0
C      1  0.4291570000000  0.4445750000000  0.5852770000000 1.0
C      1  0.4251250000000  0.5022620000000  0.6058400000000 1.0
C      1  0.4251730000000  0.5457990000000  0.5725300000000 1.0
C      1  0.4301990000000  0.5893150000000  0.5566020000000 1.0
C      1  0.4249220000000  0.6055410000000  0.4942490000000 1.0
C      1  0.4242990000000  0.5859570000000  0.4444320000000 1.0
C      1  0.4220470000000  0.5452740000000  0.4121400000000 1.0
C      1  0.4192150000000  0.4871110000000  0.4121190000000 1.0
C      1  0.4186750000000  0.4375560000000  0.4240280000000 1.0
C      1  0.4243610000000  0.4159270000000  0.4472360000000 1.0
C      1  0.4229170000000  0.4115340000000  0.5167230000000 1.0
C      1  0.4227750000000  0.4096540000000  0.5469100000000 1.0
C      1  0.4273550000000  0.5574130000000  0.4903780000000 1.0
C      1  0.4399040000000  0.5428720000000  0.4682380000000 1.0
C      1  0.4291080000000  0.5239610000000  0.4467880000000 1.0
C      1  0.4318310000000  0.4890050000000  0.4545660000000 1.0
C      1  0.4249180000000  0.4642380000000  0.4650050000000 1.0
C      1  0.4378900000000  0.4460010000000  0.4845490000000 1.0
C      1  0.4220630000000  0.4415120000000  0.5087880000000 1.0
C      1  0.4314520000000  0.4569960000000  0.5365250000000 1.0
C      1  0.4299840000000  0.4819750000000  0.5560990000000 1.0
C      1  0.4255170000000  0.5103310000000  0.5559410000000 1.0
C      1  0.4358020000000  0.5314170000000  0.5421250000000 1.0
C      1  0.4295250000000  0.5538520000000  0.5207410000000 1.0
END
