TITL C-2441160-1326-1178 0.113829706779507 125000 -27460.7666301913 0 0 200 (C1) n - 1
REM
REM in /home/bkarasulu/work/CARBON/AIRSS/Generating-Clusters/ReaxFF-fromJPCA2015/Units_Real/with-SteepDescent/Higher-Symm
REM
REM
REM
REM
REM
REM ./C.cell (1df0a924f5614ab8850e4351716899ee)
REM
REM compiler GCC version 9.2.1 20190827 (Red Hat 9.2.1-1)
REM options -cpp -mtune=generic -march=x86-64 -g -O0 -fpre-include=/usr/include/finclude/math-vector-fortran.h
REM seed -643654663 -561537518 -1838544379 253493503 1366425932 -1843624096 1298012504 208188134 -685040734 -155179080 -826447170 382179468 2049503314 1942510752 61458070 -479240738 1702245012 2078894527 -851922457 1400204536 878682529 -775684265 -1821266216 -22227779 899900977 -1458872406 -1800503596 724250180 -605667216 20592145 -1976236711 -656448584 -968808775
REM
CELL 1.54180   50.00000   50.00000   50.00000   90.00000   90.00000   90.00000
LATT -1
SFAC C  
C      1  0.5952630000000  0.5431570000000  0.5054010000000 1.0
C      1  0.5694040000000  0.5447580000000  0.4234090000000 1.0
C      1  0.4804780000000  0.5457350000000  0.3980820000000 1.0
C      1  0.4132540000000  0.5454790000000  0.4555810000000 1.0
C      1  0.4089690000000  0.5460960000000  0.5398280000000 1.0
C      1  0.4716710000000  0.5432170000000  0.6009550000000 1.0
C      1  0.5600910000000  0.5477170000000  0.5817340000000 1.0
C      1  0.4648410000000  0.5423130000000  0.5259100000000 1.0
C      1  0.4844740000000  0.5343370000000  0.5464290000000 1.0
C      1  0.5231130000000  0.5469930000000  0.5276050000000 1.0
C      1  0.5414090000000  0.5363330000000  0.5024340000000 1.0
C      1  0.5335310000000  0.5349490000000  0.4696330000000 1.0
C      1  0.5059550000000  0.5333500000000  0.4563970000000 1.0
C      1  0.4671860000000  0.5368840000000  0.4676050000000 1.0
C      1  0.5342610000000  0.5062610000000  0.5036150000000 1.0
C      1  0.5221200000000  0.5055830000000  0.4784100000000 1.0
C      1  0.4960350000000  0.5090620000000  0.4700550000000 1.0
C      1  0.4713040000000  0.5132220000000  0.4854970000000 1.0
C      1  0.4705550000000  0.5128380000000  0.5141560000000 1.0
C      1  0.4938680000000  0.5084350000000  0.5335330000000 1.0
C      1  0.5172390000000  0.4960180000000  0.5225060000000 1.0
C      1  0.5299990000000  0.6153060000000  0.5002920000000 1.0
C      1  0.5125260000000  0.6135550000000  0.4768610000000 1.0
C      1  0.4842010000000  0.6121050000000  0.4696830000000 1.0
C      1  0.4610550000000  0.6052560000000  0.4861640000000 1.0
C      1  0.4706130000000  0.6112490000000  0.5135170000000 1.0
C      1  0.4948050000000  0.6148010000000  0.5308540000000 1.0
C      1  0.5229320000000  0.6067890000000  0.5273480000000 1.0
C      1  0.4577970000000  0.4437520000000  0.3958230000000 1.0
C      1  0.3822030000000  0.4537600000000  0.4636130000000 1.0
C      1  0.4126100000000  0.4508020000000  0.5667710000000 1.0
C      1  0.4980060000000  0.4474310000000  0.6087220000000 1.0
C      1  0.5822820000000  0.4560370000000  0.5816710000000 1.0
C      1  0.6015720000000  0.4532500000000  0.4790180000000 1.0
C      1  0.5446810000000  0.4497960000000  0.4142300000000 1.0
C      1  0.5314770000000  0.4851740000000  0.6097090000000 1.0
C      1  0.5965180000000  0.4867890000000  0.5430160000000 1.0
C      1  0.6043100000000  0.4720900000000  0.4577020000000 1.0
C      1  0.5259960000000  0.4878680000000  0.3854680000000 1.0
C      1  0.4263480000000  0.4865920000000  0.4102470000000 1.0
C      1  0.3840600000000  0.4841480000000  0.5015370000000 1.0
C      1  0.4245500000000  0.4702340000000  0.5846540000000 1.0
C      1  0.5511450000000  0.4950090000000  0.3948890000000 1.0
C      1  0.4487310000000  0.4944610000000  0.3962050000000 1.0
C      1  0.3789960000000  0.4835670000000  0.4725980000000 1.0
C      1  0.4130490000000  0.4964490000000  0.5833430000000 1.0
C      1  0.5038830000000  0.4892490000000  0.6151920000000 1.0
C      1  0.5923240000000  0.4912010000000  0.5709460000000 1.0
C      1  0.6131800000000  0.4982440000000  0.4654760000000 1.0
C      1  0.5310040000000  0.4757530000000  0.5406670000000 1.0
C      1  0.5583170000000  0.4859430000000  0.5045900000000 1.0
C      1  0.5320740000000  0.4844630000000  0.4627530000000 1.0
C      1  0.4910470000000  0.4848270000000  0.4530100000000 1.0
C      1  0.4575580000000  0.4890210000000  0.4777830000000 1.0
C      1  0.4499540000000  0.4920790000000  0.5186700000000 1.0
C      1  0.4857960000000  0.4853530000000  0.5485540000000 1.0
C      1  0.4671430000000  0.4222700000000  0.5716680000000 1.0
C      1  0.5152710000000  0.4342860000000  0.5708600000000 1.0
C      1  0.5705510000000  0.4239900000000  0.5369230000000 1.0
C      1  0.5602580000000  0.4263680000000  0.4512870000000 1.0
C      1  0.5092090000000  0.4285140000000  0.4255320000000 1.0
C      1  0.4473940000000  0.4297330000000  0.4394680000000 1.0
C      1  0.4201850000000  0.4295990000000  0.4982370000000 1.0
C      1  0.4582130000000  0.4525750000000  0.4259120000000 1.0
C      1  0.4349110000000  0.4481170000000  0.4810990000000 1.0
C      1  0.4274140000000  0.4361390000000  0.5470950000000 1.0
C      1  0.5052750000000  0.4593630000000  0.5803260000000 1.0
C      1  0.5649330000000  0.4428650000000  0.5578290000000 1.0
C      1  0.5755660000000  0.4427170000000  0.4916750000000 1.0
C      1  0.5340740000000  0.4388960000000  0.4431390000000 1.0
C      1  0.5168500000000  0.5236120000000  0.5945520000000 1.0
C      1  0.5866830000000  0.5268950000000  0.5531740000000 1.0
C      1  0.5849060000000  0.5293660000000  0.4623390000000 1.0
C      1  0.5239480000000  0.5290520000000  0.4075980000000 1.0
C      1  0.4414040000000  0.5303150000000  0.4226560000000 1.0
C      1  0.4075250000000  0.5204530000000  0.4995510000000 1.0
C      1  0.4405190000000  0.5311540000000  0.5742750000000 1.0
C      1  0.4902990000000  0.5885980000000  0.5456270000000 1.0
C      1  0.5222100000000  0.5789050000000  0.5358520000000 1.0
C      1  0.5466490000000  0.5946480000000  0.4897900000000 1.0
C      1  0.5254880000000  0.5861630000000  0.4716870000000 1.0
C      1  0.4799770000000  0.5872550000000  0.4542200000000 1.0
C      1  0.4761720000000  0.5641550000000  0.4716910000000 1.0
C      1  0.4643360000000  0.5872630000000  0.5285600000000 1.0
C      1  0.5802000000000  0.5712250000000  0.4685530000000 1.0
C      1  0.5236340000000  0.5695560000000  0.4203500000000 1.0
C      1  0.4486220000000  0.5716710000000  0.4283420000000 1.0
C      1  0.4205860000000  0.5715980000000  0.4951390000000 1.0
C      1  0.4410730000000  0.5724310000000  0.5678890000000 1.0
C      1  0.5122780000000  0.5678690000000  0.5854330000000 1.0
C      1  0.5711160000000  0.5713820000000  0.5426710000000 1.0
C      1  0.4548050000000  0.4010570000000  0.4324000000000 1.0
C      1  0.4184010000000  0.4022940000000  0.4927610000000 1.0
C      1  0.4477380000000  0.4160270000000  0.5509890000000 1.0
C      1  0.4953820000000  0.4113400000000  0.5741790000000 1.0
C      1  0.5685200000000  0.3974450000000  0.5420510000000 1.0
C      1  0.5684680000000  0.4167810000000  0.4777020000000 1.0
C      1  0.5168360000000  0.4009580000000  0.4222110000000 1.0
C      1  0.5539490000000  0.3970540000000  0.4928390000000 1.0
C      1  0.5202650000000  0.3953320000000  0.4460870000000 1.0
C      1  0.4721740000000  0.3891330000000  0.4531950000000 1.0
C      1  0.4448040000000  0.3957420000000  0.5003060000000 1.0
C      1  0.4542540000000  0.3980690000000  0.5287180000000 1.0
C      1  0.5051060000000  0.3902360000000  0.5558080000000 1.0
C      1  0.5491990000000  0.3925480000000  0.5217460000000 1.0
C      1  0.4941170000000  0.4607570000000  0.4680270000000 1.0
C      1  0.4630260000000  0.4613950000000  0.4860810000000 1.0
C      1  0.4617790000000  0.4653670000000  0.5163170000000 1.0
C      1  0.4818790000000  0.4592950000000  0.5362540000000 1.0
C      1  0.5307920000000  0.4542220000000  0.5210770000000 1.0
C      1  0.5464980000000  0.4600340000000  0.4965460000000 1.0
C      1  0.5238580000000  0.4571370000000  0.4686800000000 1.0
C      1  0.5338050000000  0.5255320000000  0.5467120000000 1.0
C      1  0.5674040000000  0.5262460000000  0.5107490000000 1.0
C      1  0.5581970000000  0.5214210000000  0.4597010000000 1.0
C      1  0.5074050000000  0.5222320000000  0.4300300000000 1.0
C      1  0.4508720000000  0.5236260000000  0.4484460000000 1.0
C      1  0.4369560000000  0.5373400000000  0.5289570000000 1.0
C      1  0.4665190000000  0.5226460000000  0.5648660000000 1.0
C      1  0.4629210000000  0.4475440000000  0.5847600000000 1.0
C      1  0.5431980000000  0.4421630000000  0.5762840000000 1.0
C      1  0.5890910000000  0.4515060000000  0.5180340000000 1.0
C      1  0.5768920000000  0.4478060000000  0.4400580000000 1.0
C      1  0.5017590000000  0.4500420000000  0.4064740000000 1.0
C      1  0.4255510000000  0.4423650000000  0.4543500000000 1.0
C      1  0.4127560000000  0.4494650000000  0.5255610000000 1.0
C      1  0.4750030000000  0.5826620000000  0.4260930000000 1.0
C      1  0.4387770000000  0.5853760000000  0.4770430000000 1.0
C      1  0.4379660000000  0.5833600000000  0.5405950000000 1.0
C      1  0.4890580000000  0.5789120000000  0.5737440000000 1.0
C      1  0.5448710000000  0.5819120000000  0.5513470000000 1.0
C      1  0.5721090000000  0.5827590000000  0.4938310000000 1.0
C      1  0.5374000000000  0.5772170000000  0.4440890000000 1.0
C      1  0.4692800000000  0.4126930000000  0.4937930000000 1.0
C      1  0.4776790000000  0.4117040000000  0.5196960000000 1.0
C      1  0.5021130000000  0.4115090000000  0.5335530000000 1.0
C      1  0.5254400000000  0.4099010000000  0.5185060000000 1.0
C      1  0.5283230000000  0.4092660000000  0.4918700000000 1.0
C      1  0.5116460000000  0.4084510000000  0.4698340000000 1.0
C      1  0.4844130000000  0.4099750000000  0.4713520000000 1.0
C      1  0.4595350000000  0.5165940000000  0.6070120000000 1.0
C      1  0.5599600000000  0.5213670000000  0.5951940000000 1.0
C      1  0.6111640000000  0.5186440000000  0.5124980000000 1.0
C      1  0.5839180000000  0.5189820000000  0.4231310000000 1.0
C      1  0.4877940000000  0.5196940000000  0.3856340000000 1.0
C      1  0.4060940000000  0.5193080000000  0.4419510000000 1.0
C      1  0.3930670000000  0.5172690000000  0.5393060000000 1.0
C      1  0.4010220000000  0.4950980000000  0.5558660000000 1.0
C      1  0.4756760000000  0.4919840000000  0.6131020000000 1.0
C      1  0.5690010000000  0.4948570000000  0.5871680000000 1.0
C      1  0.6128570000000  0.4962700000000  0.4947620000000 1.0
C      1  0.5740350000000  0.4948260000000  0.4086750000000 1.0
C      1  0.4728020000000  0.4939630000000  0.3861210000000 1.0
C      1  0.3984080000000  0.4930770000000  0.4528270000000 1.0
C      1  0.3992650000000  0.4666290000000  0.5472410000000 1.0
C      1  0.4717820000000  0.4615190000000  0.6096960000000 1.0
C      1  0.5540520000000  0.4645280000000  0.5938260000000 1.0
C      1  0.6091130000000  0.4676050000000  0.5017880000000 1.0
C      1  0.5702860000000  0.4625880000000  0.4143460000000 1.0
C      1  0.4801880000000  0.4614190000000  0.3897010000000 1.0
C      1  0.4043050000000  0.4629090000000  0.4462470000000 1.0
C      1  0.4174440000000  0.5145630000000  0.4153360000000 1.0
C      1  0.3829240000000  0.5113750000000  0.5129800000000 1.0
C      1  0.4318090000000  0.5148100000000  0.5967580000000 1.0
C      1  0.5377990000000  0.5134930000000  0.6129490000000 1.0
C      1  0.6073540000000  0.5131100000000  0.5401410000000 1.0
C      1  0.6020810000000  0.5166630000000  0.4459630000000 1.0
C      1  0.5165910000000  0.5158120000000  0.3821910000000 1.0
C      1  0.4420140000000  0.4758090000000  0.4329300000000 1.0
C      1  0.4103690000000  0.4721170000000  0.5051390000000 1.0
C      1  0.4512150000000  0.4717740000000  0.5744590000000 1.0
C      1  0.5227920000000  0.4804430000000  0.5679010000000 1.0
C      1  0.5754610000000  0.4765980000000  0.5255950000000 1.0
C      1  0.5769120000000  0.4729570000000  0.4531110000000 1.0
C      1  0.5129020000000  0.4765210000000  0.4097840000000 1.0
C      1  0.4322990000000  0.5693690000000  0.4529920000000 1.0
C      1  0.4164380000000  0.5730520000000  0.5239650000000 1.0
C      1  0.4654200000000  0.5663460000000  0.5835190000000 1.0
C      1  0.5394740000000  0.5672190000000  0.5758010000000 1.0
C      1  0.5824140000000  0.5695250000000  0.5168080000000 1.0
C      1  0.5642820000000  0.5663360000000  0.4438440000000 1.0
C      1  0.4950790000000  0.5668450000000  0.4120220000000 1.0
C      1  0.4096070000000  0.5454480000000  0.4834900000000 1.0
C      1  0.4219910000000  0.5517680000000  0.5664020000000 1.0
C      1  0.5003560000000  0.5465070000000  0.6005360000000 1.0
C      1  0.5798610000000  0.5520320000000  0.5619790000000 1.0
C      1  0.5951730000000  0.5490820000000  0.4771280000000 1.0
C      1  0.5441190000000  0.5504020000000  0.4094720000000 1.0
C      1  0.4535780000000  0.5518760000000  0.4080940000000 1.0
C      1  0.4468330000000  0.4952110000000  0.4536890000000 1.0
C      1  0.4252610000000  0.4968220000000  0.5056730000000 1.0
C      1  0.4678850000000  0.4940010000000  0.5666390000000 1.0
C      1  0.5214030000000  0.5103290000000  0.5689070000000 1.0
C      1  0.5613460000000  0.5199870000000  0.5382540000000 1.0
C      1  0.5566970000000  0.4933490000000  0.4545150000000 1.0
C      1  0.5011330000000  0.4941220000000  0.4290370000000 1.0
C      1  0.5015090000000  0.4511500000000  0.5162570000000 1.0
C      1  0.5009550000000  0.5468590000000  0.5052300000000 1.0
C      1  0.5008060000000  0.5682170000000  0.4855330000000 1.0
C      1  0.5004700000000  0.4765930000000  0.4997230000000 1.0
END
