TITL C-2441166-8118-1247 0.0534106621214826 125000 -8334.10313080393 0 0 70 (C1) n - 1
REM
REM in /home/bkarasulu/work/CARBON/AIRSS/Generating-Clusters/ReaxFF-fromJPCA2015/Units_Real/with-SteepDescent/Higher-Symm
REM
REM
REM
REM
REM
REM ./C.cell (1df0a924f5614ab8850e4351716899ee)
REM
REM compiler GCC version 9.2.1 20190827 (Red Hat 9.2.1-1)
REM options -cpp -mtune=generic -march=x86-64 -g -O0 -fpre-include=/usr/include/finclude/math-vector-fortran.h
REM seed -1215677973 156868884 1010616370 -951091660 -2116816479 675837299 20105375 1095621797 854491777 -662338539 51192801 1288355437 -1767286328 2066489853 1168782467 -1305764444 -1489644564 333967664 -1438661828 -22555584 178917814 -1251424255 480933905 1901652143 -175730439 2080296639 242016436 707014740 -870136468 -1905445685 1382544171 -2060248430 434519484
REM
CELL 1.54180   50.00000   50.00000   50.00000   90.00000   90.00000   90.00000
LATT -1
SFAC C  
C      1  0.5365120000000  0.4839490000000  0.4744400000000 1.0
C      1  0.4959440000000  0.4579580000000  0.4740110000000 1.0
C      1  0.4596610000000  0.4894970000000  0.4749440000000 1.0
C      1  0.4812770000000  0.5285200000000  0.4760260000000 1.0
C      1  0.5222660000000  0.5210610000000  0.4769070000000 1.0
C      1  0.4506470000000  0.5120380000000  0.4542740000000 1.0
C      1  0.5143810000000  0.5618480000000  0.4537190000000 1.0
C      1  0.5447960000000  0.5082810000000  0.4639430000000 1.0
C      1  0.5212360000000  0.4616280000000  0.4638970000000 1.0
C      1  0.4705450000000  0.4657850000000  0.4632670000000 1.0
C      1  0.4964890000000  0.5691700000000  0.4755270000000 1.0
C      1  0.5659860000000  0.5227980000000  0.4811530000000 1.0
C      1  0.5418620000000  0.4461670000000  0.4774510000000 1.0
C      1  0.4620910000000  0.4389660000000  0.4800540000000 1.0
C      1  0.4304950000000  0.5176410000000  0.4796190000000 1.0
C      1  0.5676320000000  0.5088550000000  0.5072970000000 1.0
C      1  0.5307400000000  0.4458650000000  0.5061630000000 1.0
C      1  0.4588010000000  0.4535180000000  0.5056180000000 1.0
C      1  0.4461180000000  0.5278250000000  0.5028190000000 1.0
C      1  0.5068570000000  0.5623310000000  0.5027880000000 1.0
C      1  0.5234640000000  0.4704850000000  0.4313290000000 1.0
C      1  0.4718800000000  0.4671080000000  0.4321920000000 1.0
C      1  0.4611720000000  0.5217560000000  0.4283480000000 1.0
C      1  0.5050140000000  0.5471090000000  0.4314010000000 1.0
C      1  0.5374370000000  0.5130220000000  0.4362010000000 1.0
C      1  0.5579120000000  0.5282770000000  0.5252620000000 1.0
C      1  0.5490510000000  0.4552660000000  0.5281640000000 1.0
C      1  0.4728370000000  0.4416520000000  0.5278400000000 1.0
C      1  0.4376390000000  0.5152160000000  0.5275130000000 1.0
C      1  0.4926720000000  0.5670330000000  0.5287070000000 1.0
C      1  0.5018070000000  0.4620290000000  0.5551800000000 1.0
C      1  0.4564780000000  0.4852270000000  0.5491440000000 1.0
C      1  0.4801110000000  0.5317670000000  0.5576390000000 1.0
C      1  0.5213970000000  0.5315090000000  0.5595130000000 1.0
C      1  0.5449560000000  0.4878000000000  0.5623090000000 1.0
C      1  0.5306990000000  0.4649700000000  0.5516440000000 1.0
C      1  0.4739000000000  0.4606940000000  0.5515590000000 1.0
C      1  0.4570580000000  0.5153160000000  0.5500370000000 1.0
C      1  0.5015770000000  0.5502410000000  0.5509830000000 1.0
C      1  0.5391480000000  0.5134710000000  0.5443330000000 1.0
C      1  0.4971910000000  0.4541110000000  0.4274090000000 1.0
C      1  0.4575890000000  0.4932660000000  0.4312650000000 1.0
C      1  0.4765650000000  0.5452220000000  0.4370650000000 1.0
C      1  0.5328590000000  0.5411050000000  0.4430550000000 1.0
C      1  0.5508810000000  0.4759140000000  0.4397560000000 1.0
C      1  0.5487130000000  0.5453120000000  0.4785040000000 1.0
C      1  0.5600740000000  0.4647550000000  0.4641560000000 1.0
C      1  0.4869340000000  0.4262210000000  0.4740910000000 1.0
C      1  0.4279750000000  0.4887190000000  0.4785830000000 1.0
C      1  0.4737480000000  0.5546430000000  0.4647220000000 1.0
C      1  0.5003850000000  0.4437410000000  0.5192770000000 1.0
C      1  0.4445530000000  0.4861020000000  0.5224030000000 1.0
C      1  0.4712110000000  0.5501150000000  0.5204580000000 1.0
C      1  0.5427200000000  0.5469670000000  0.5074460000000 1.0
C      1  0.5568730000000  0.4798870000000  0.5132270000000 1.0
C      1  0.4904180000000  0.4657040000000  0.5014700000000 1.0
C      1  0.4648350000000  0.4998340000000  0.5020270000000 1.0
C      1  0.4876970000000  0.5384550000000  0.5017420000000 1.0
C      1  0.5245140000000  0.5231370000000  0.5046070000000 1.0
C      1  0.5313130000000  0.4788270000000  0.5014940000000 1.0
C      1  0.5003410000000  0.5122470000000  0.5658710000000 1.0
C      1  0.4928640000000  0.4943050000000  0.5089160000000 1.0
C      1  0.4975270000000  0.5013700000000  0.3813880000000 1.0
C      1  0.4999360000000  0.4979030000000  0.6152680000000 1.0
C      1  0.5094620000000  0.5018530000000  0.4333830000000 1.0
C      1  0.5006500000000  0.4987420000000  0.6397000000000 1.0
C      1  0.5012290000000  0.5023180000000  0.4049470000000 1.0
C      1  0.5121330000000  0.5082210000000  0.5235070000000 1.0
C      1  0.4994130000000  0.5117140000000  0.4618940000000 1.0
C      1  0.4997480000000  0.5023460000000  0.5911000000000 1.0
END
