TITL C-2441159-1093-930 0.0519337449076328 125000 -17711.6759704112 0 0 133 (C1) n - 1
REM
REM in /home/bkarasulu/work/CARBON/AIRSS/Generating-Clusters/ReaxFF-fromJPCA2015/Units_Real/with-SteepDescent/Higher-Symm
REM
REM
REM
REM
REM
REM ./C.cell (1df0a924f5614ab8850e4351716899ee)
REM
REM compiler GCC version 9.2.1 20190827 (Red Hat 9.2.1-1)
REM options -cpp -mtune=generic -march=x86-64 -g -O0 -fpre-include=/usr/include/finclude/math-vector-fortran.h
REM seed -1225591758 -1190676034 1890157774 -569779077 331209677 171105541 -1080020905 -834147960 -1709984881 1310157460 395794573 1295568063 -419664869 551585658 -1321220343 -530049893 -1353118000 -1934727225 -1537091591 499466586 -55083002 -1380807294 648533180 -1460473743 -1479414174 2060152961 -40912237 1886084068 -1156107675 -170281893 1973754478 -1442769692 -569132402
REM
CELL 1.54180   50.00000   50.00000   50.00000   90.00000   90.00000   90.00000
LATT -1
SFAC C  
C      1  0.5182250000000  0.5680000000000  0.4697100000000 1.0
C      1  0.4773400000000  0.4332330000000  0.4721660000000 1.0
C      1  0.4806790000000  0.5686490000000  0.5320760000000 1.0
C      1  0.5187300000000  0.4343290000000  0.5280790000000 1.0
C      1  0.4801690000000  0.5506450000000  0.4235000000000 1.0
C      1  0.5219890000000  0.4587890000000  0.4143400000000 1.0
C      1  0.5140520000000  0.5557610000000  0.5780000000000 1.0
C      1  0.4691980000000  0.4601070000000  0.5784470000000 1.0
C      1  0.5133010000000  0.5900060000000  0.5065780000000 1.0
C      1  0.4853940000000  0.4102920000000  0.5092070000000 1.0
C      1  0.4867980000000  0.5898110000000  0.4933580000000 1.0
C      1  0.5125040000000  0.4088310000000  0.4957760000000 1.0
C      1  0.4380810000000  0.5153950000000  0.4940450000000 1.0
C      1  0.5712800000000  0.4926160000000  0.4879030000000 1.0
C      1  0.5699750000000  0.5079900000000  0.5101780000000 1.0
C      1  0.4310560000000  0.4947410000000  0.5112240000000 1.0
C      1  0.5473270000000  0.4732790000000  0.4195590000000 1.0
C      1  0.4461790000000  0.5264500000000  0.4222380000000 1.0
C      1  0.4464980000000  0.4777610000000  0.5794470000000 1.0
C      1  0.5625510000000  0.5167710000000  0.5766000000000 1.0
C      1  0.5149780000000  0.5221880000000  0.4478290000000 1.0
C      1  0.4845350000000  0.4779800000000  0.4470180000000 1.0
C      1  0.4818520000000  0.5216500000000  0.5524990000000 1.0
C      1  0.5120320000000  0.4639300000000  0.5595780000000 1.0
C      1  0.4513960000000  0.5086360000000  0.5816940000000 1.0
C      1  0.5505990000000  0.4900670000000  0.5806320000000 1.0
C      1  0.5431670000000  0.5066410000000  0.4184750000000 1.0
C      1  0.4572420000000  0.4996360000000  0.4181770000000 1.0
C      1  0.4309270000000  0.4310990000000  0.5133380000000 1.0
C      1  0.5651540000000  0.5643660000000  0.5185480000000 1.0
C      1  0.5667110000000  0.4325190000000  0.4852990000000 1.0
C      1  0.4305780000000  0.5703480000000  0.4830270000000 1.0
C      1  0.5186770000000  0.5114040000000  0.5687590000000 1.0
C      1  0.4842510000000  0.4942690000000  0.5574340000000 1.0
C      1  0.4773090000000  0.5039590000000  0.4393340000000 1.0
C      1  0.5209670000000  0.4960570000000  0.4393460000000 1.0
C      1  0.5414690000000  0.4716880000000  0.5587430000000 1.0
C      1  0.4497260000000  0.5241720000000  0.5558220000000 1.0
C      1  0.4602070000000  0.4651400000000  0.4391390000000 1.0
C      1  0.5441530000000  0.5269690000000  0.4422780000000 1.0
C      1  0.5613970000000  0.5367930000000  0.5566400000000 1.0
C      1  0.4395450000000  0.4662210000000  0.5421380000000 1.0
C      1  0.4419050000000  0.5340410000000  0.4478990000000 1.0
C      1  0.5583060000000  0.4671740000000  0.4422530000000 1.0
C      1  0.4112160000000  0.4892890000000  0.4606140000000 1.0
C      1  0.5915690000000  0.5133620000000  0.4594470000000 1.0
C      1  0.5945090000000  0.4860150000000  0.5370060000000 1.0
C      1  0.4149100000000  0.5133380000000  0.5419340000000 1.0
C      1  0.5226450000000  0.4578730000000  0.5086180000000 1.0
C      1  0.4863130000000  0.5413150000000  0.5119600000000 1.0
C      1  0.4743480000000  0.4531900000000  0.4948800000000 1.0
C      1  0.5114120000000  0.5428480000000  0.4880060000000 1.0
C      1  0.4943030000000  0.4784350000000  0.5795500000000 1.0
C      1  0.4986850000000  0.5283170000000  0.5795100000000 1.0
C      1  0.5015050000000  0.4794020000000  0.4194730000000 1.0
C      1  0.4973370000000  0.5242270000000  0.4227410000000 1.0
C      1  0.5359480000000  0.5269290000000  0.4933180000000 1.0
C      1  0.4619250000000  0.4781550000000  0.4949850000000 1.0
C      1  0.4593550000000  0.5360640000000  0.5016560000000 1.0
C      1  0.5415870000000  0.4797080000000  0.5100320000000 1.0
C      1  0.5363370000000  0.4318710000000  0.5664150000000 1.0
C      1  0.4659770000000  0.5691680000000  0.5633040000000 1.0
C      1  0.4737910000000  0.4416800000000  0.4302370000000 1.0
C      1  0.5319520000000  0.5653540000000  0.4327850000000 1.0
C      1  0.4560940000000  0.4401820000000  0.5165320000000 1.0
C      1  0.5510140000000  0.5418840000000  0.5110710000000 1.0
C      1  0.5449890000000  0.4465330000000  0.4826480000000 1.0
C      1  0.4545990000000  0.5556980000000  0.4817320000000 1.0
C      1  0.5639970000000  0.4223550000000  0.5116020000000 1.0
C      1  0.4365510000000  0.5771980000000  0.5103640000000 1.0
C      1  0.4356800000000  0.4216440000000  0.4874190000000 1.0
C      1  0.5629500000000  0.5763670000000  0.4909650000000 1.0
C      1  0.5248620000000  0.5148670000000  0.5398680000000 1.0
C      1  0.4820680000000  0.4775640000000  0.5351880000000 1.0
C      1  0.4703420000000  0.5177200000000  0.4626880000000 1.0
C      1  0.5277300000000  0.4810890000000  0.4635150000000 1.0
C      1  0.5971460000000  0.5166910000000  0.5074110000000 1.0
C      1  0.4036520000000  0.4875970000000  0.5056310000000 1.0
C      1  0.4029370000000  0.5165400000000  0.4953510000000 1.0
C      1  0.5990950000000  0.4858150000000  0.4934770000000 1.0
C      1  0.5055300000000  0.5638380000000  0.4236730000000 1.0
C      1  0.5036040000000  0.4393870000000  0.4269220000000 1.0
C      1  0.4902060000000  0.5677310000000  0.5743900000000 1.0
C      1  0.5088790000000  0.4371560000000  0.5705730000000 1.0
C      1  0.6000440000000  0.4872090000000  0.4606440000000 1.0
C      1  0.4043720000000  0.5146600000000  0.4637060000000 1.0
C      1  0.4045520000000  0.4879920000000  0.5389420000000 1.0
C      1  0.5989160000000  0.5125310000000  0.5387440000000 1.0
C      1  0.5853270000000  0.5250530000000  0.5616030000000 1.0
C      1  0.4208470000000  0.4770670000000  0.5608490000000 1.0
C      1  0.4185600000000  0.5220870000000  0.4391530000000 1.0
C      1  0.5807120000000  0.4797680000000  0.4425980000000 1.0
C      1  0.5732030000000  0.4448320000000  0.5289020000000 1.0
C      1  0.4279110000000  0.5558060000000  0.5287190000000 1.0
C      1  0.4298110000000  0.4456950000000  0.4705000000000 1.0
C      1  0.5715700000000  0.5560090000000  0.4712980000000 1.0
C      1  0.4778600000000  0.4878430000000  0.4009560000000 1.0
C      1  0.5194680000000  0.5174980000000  0.4031190000000 1.0
C      1  0.5237020000000  0.4928040000000  0.5899560000000 1.0
C      1  0.4738230000000  0.5186080000000  0.5964210000000 1.0
C      1  0.4533540000000  0.4843180000000  0.5244260000000 1.0
C      1  0.5479850000000  0.5004410000000  0.5283070000000 1.0
C      1  0.5428630000000  0.4953190000000  0.4854710000000 1.0
C      1  0.4549850000000  0.4979150000000  0.4767170000000 1.0
C      1  0.4989690000000  0.5196040000000  0.5273050000000 1.0
C      1  0.5016150000000  0.4793410000000  0.5150570000000 1.0
C      1  0.4979480000000  0.5220800000000  0.4734440000000 1.0
C      1  0.5008770000000  0.4756500000000  0.4728380000000 1.0
C      1  0.5089030000000  0.5778130000000  0.5326580000000 1.0
C      1  0.4914580000000  0.4255980000000  0.5335970000000 1.0
C      1  0.4909470000000  0.5780670000000  0.4665410000000 1.0
C      1  0.5058900000000  0.4230150000000  0.4709790000000 1.0
C      1  0.4643820000000  0.4129630000000  0.4885170000000 1.0
C      1  0.5348800000000  0.5845880000000  0.4872020000000 1.0
C      1  0.5348060000000  0.4147790000000  0.5140650000000 1.0
C      1  0.4652830000000  0.5846710000000  0.5126120000000 1.0
C      1  0.5917860000000  0.4655130000000  0.5206980000000 1.0
C      1  0.4118640000000  0.5324060000000  0.5212160000000 1.0
C      1  0.4131700000000  0.4681410000000  0.4773660000000 1.0
C      1  0.5882810000000  0.5334550000000  0.4781520000000 1.0
C      1  0.4493110000000  0.4405780000000  0.4477010000000 1.0
C      1  0.5550500000000  0.5531570000000  0.4458130000000 1.0
C      1  0.5575950000000  0.4466360000000  0.5545170000000 1.0
C      1  0.4441140000000  0.5525310000000  0.5536550000000 1.0
C      1  0.5264270000000  0.5664170000000  0.5532520000000 1.0
C      1  0.4765580000000  0.4344140000000  0.5617220000000 1.0
C      1  0.4724000000000  0.5662400000000  0.4471850000000 1.0
C      1  0.5210960000000  0.4297430000000  0.4477000000000 1.0
C      1  0.4442960000000  0.5625260000000  0.4556970000000 1.0
C      1  0.5481350000000  0.4416740000000  0.4537870000000 1.0
C      1  0.5549630000000  0.5627650000000  0.5465510000000 1.0
C      1  0.4530730000000  0.4417790000000  0.5452510000000 1.0
C      1  0.4985040000000  0.4970670000000  0.4927510000000 1.0
END
