TITL C-2441161-5029-12 0.00047415122019988 125000 -2630.39265380467 0 0 20 (C1) n - 1
REM
REM in /home/bkarasulu/work/CARBON/AIRSS/Generating-Clusters/ReaxFF-fromJPCA2015/Units_Real/with-SteepDescent/Higher-Symm
REM
REM
REM
REM
REM
REM ./C.cell (1df0a924f5614ab8850e4351716899ee)
REM
REM compiler GCC version 9.2.1 20190827 (Red Hat 9.2.1-1)
REM options -cpp -mtune=generic -march=x86-64 -g -O0 -fpre-include=/usr/include/finclude/math-vector-fortran.h
REM seed 1551049116 -183479070 -1770041331 1669592804 1543528496 2051132831 1924260180 -644497990 1095691141 939617366 -571427485 -369674628 -2080044240 -1647685488 -1749458689 -243915727 1378718711 -1091213084 -47967052 304580408 -1172117630 310148057 1559832803 -1174194008 2028754228 436410736 -2143028650 726316169 230910795 -990867875 1066255287 -222816563 -1632099891
REM
CELL 1.54180   50.00000   50.00000   50.00000   90.00000   90.00000   90.00000
LATT -1
SFAC C  
C      1  0.4937680000000  0.5423260000000  0.5063050000000 1.0
C      1  0.4756690000000  0.5396050000000  0.5330220000000 1.0
C      1  0.5241030000000  0.5369930000000  0.5069050000000 1.0
C      1  0.5273800000000  0.4714000000000  0.5452240000000 1.0
C      1  0.4880530000000  0.4595280000000  0.4844940000000 1.0
C      1  0.5498230000000  0.4891090000000  0.4901530000000 1.0
C      1  0.5406690000000  0.4603310000000  0.4854570000000 1.0
C      1  0.4868380000000  0.4706160000000  0.5310630000000 1.0
C      1  0.5146770000000  0.4518190000000  0.4964000000000 1.0
C      1  0.4973010000000  0.5157680000000  0.4389360000000 1.0
C      1  0.4834750000000  0.5350530000000  0.4810370000000 1.0
C      1  0.4736850000000  0.5024260000000  0.4468020000000 1.0
C      1  0.4643990000000  0.5145460000000  0.4750390000000 1.0
C      1  0.5100500000000  0.4548230000000  0.5256200000000 1.0
C      1  0.5028210000000  0.4876840000000  0.5515660000000 1.0
C      1  0.4994620000000  0.5460820000000  0.5467880000000 1.0
C      1  0.4720640000000  0.4740650000000  0.5052030000000 1.0
C      1  0.5032280000000  0.5376210000000  0.4562840000000 1.0
C      1  0.4535530000000  0.4961430000000  0.4951080000000 1.0
C      1  0.5389840000000  0.5140620000000  0.4985930000000 1.0
END
