TITL C-2441169-1362-954 0.114280260441079 125000 -15722.2019508097 0 0 127 (C1) n - 1
REM
REM in /home/bkarasulu/work/CARBON/AIRSS/Generating-Clusters/ReaxFF-fromJPCA2015/Units_Real/with-SteepDescent/Higher-Symm
REM
REM
REM
REM
REM
REM ./C.cell (1df0a924f5614ab8850e4351716899ee)
REM
REM compiler GCC version 9.2.1 20190827 (Red Hat 9.2.1-1)
REM options -cpp -mtune=generic -march=x86-64 -g -O0 -fpre-include=/usr/include/finclude/math-vector-fortran.h
REM seed 1687847237 -1489271798 -596175023 1692673783 170993436 1311362410 2004362086 740625876 -305067061 482518127 -1299664238 1119002360 1595120160 1132068123 1125604494 -2140417771 -1214612912 -935186714 -1700654430 -977292135 -1850139417 -1394160438 -529616588 -1068823992 -700036832 354371676 1392134858 1949877937 879679844 494041224 1930135303 418250863 -1498466225
REM
CELL 1.54180   50.00000   50.00000   50.00000   90.00000   90.00000   90.00000
LATT -1
SFAC C  
C      1  0.4666950000000  0.5242460000000  0.5779550000000 1.0
C      1  0.4795510000000  0.5441800000000  0.4274210000000 1.0
C      1  0.5792380000000  0.4821130000000  0.5448300000000 1.0
C      1  0.5415740000000  0.5123790000000  0.4911100000000 1.0
C      1  0.4067910000000  0.5116440000000  0.4961130000000 1.0
C      1  0.4188870000000  0.4720140000000  0.4639930000000 1.0
C      1  0.4256120000000  0.4404160000000  0.5219390000000 1.0
C      1  0.4827940000000  0.4512390000000  0.5628030000000 1.0
C      1  0.4433540000000  0.4634160000000  0.4496810000000 1.0
C      1  0.5571260000000  0.4849980000000  0.4951480000000 1.0
C      1  0.5978610000000  0.4847010000000  0.5040510000000 1.0
C      1  0.5430460000000  0.4160130000000  0.4863520000000 1.0
C      1  0.5759800000000  0.4411130000000  0.4845440000000 1.0
C      1  0.4752160000000  0.5397550000000  0.5063140000000 1.0
C      1  0.5053820000000  0.4091590000000  0.5047690000000 1.0
C      1  0.4158810000000  0.5415540000000  0.4559480000000 1.0
C      1  0.4201530000000  0.4821620000000  0.5560440000000 1.0
C      1  0.4695170000000  0.5000790000000  0.4913320000000 1.0
C      1  0.5164980000000  0.5310910000000  0.4354230000000 1.0
C      1  0.4091730000000  0.5380680000000  0.4858220000000 1.0
C      1  0.4861290000000  0.5473020000000  0.5736340000000 1.0
C      1  0.5132250000000  0.5366520000000  0.5846890000000 1.0
C      1  0.5505490000000  0.4393330000000  0.5295940000000 1.0
C      1  0.5811510000000  0.5449480000000  0.5036700000000 1.0
C      1  0.5519730000000  0.5253970000000  0.5356650000000 1.0
C      1  0.4360560000000  0.5554630000000  0.4426020000000 1.0
C      1  0.4874130000000  0.4620950000000  0.4147510000000 1.0
C      1  0.4884790000000  0.5795720000000  0.4771730000000 1.0
C      1  0.4677180000000  0.5676280000000  0.5596180000000 1.0
C      1  0.5067510000000  0.4567190000000  0.5181910000000 1.0
C      1  0.5811960000000  0.5005980000000  0.5084540000000 1.0
C      1  0.4793740000000  0.5006890000000  0.5858160000000 1.0
C      1  0.4769100000000  0.4203650000000  0.4992770000000 1.0
C      1  0.4623540000000  0.5788310000000  0.4639070000000 1.0
C      1  0.4625300000000  0.5004330000000  0.5200990000000 1.0
C      1  0.5310170000000  0.4992110000000  0.4167850000000 1.0
C      1  0.4495600000000  0.4752660000000  0.5294430000000 1.0
C      1  0.4934600000000  0.4622290000000  0.4800760000000 1.0
C      1  0.5047490000000  0.5113960000000  0.5962510000000 1.0
C      1  0.5307810000000  0.5548190000000  0.4272830000000 1.0
C      1  0.5056320000000  0.4855420000000  0.4924360000000 1.0
C      1  0.4629200000000  0.5252660000000  0.4591310000000 1.0
C      1  0.4935990000000  0.4216960000000  0.4498960000000 1.0
C      1  0.4711630000000  0.4477250000000  0.4930420000000 1.0
C      1  0.5427430000000  0.4413290000000  0.4360840000000 1.0
C      1  0.5362130000000  0.4639940000000  0.5147340000000 1.0
C      1  0.5788900000000  0.4580310000000  0.5289110000000 1.0
C      1  0.5295590000000  0.4742840000000  0.4600210000000 1.0
C      1  0.4877330000000  0.4438010000000  0.5348150000000 1.0
C      1  0.4962610000000  0.5411060000000  0.5432400000000 1.0
C      1  0.5928250000000  0.4562250000000  0.5037060000000 1.0
C      1  0.4180660000000  0.5134630000000  0.4472680000000 1.0
C      1  0.5034790000000  0.5449800000000  0.4998790000000 1.0
C      1  0.4171580000000  0.5209110000000  0.5232350000000 1.0
C      1  0.4720520000000  0.4758960000000  0.5732270000000 1.0
C      1  0.5327120000000  0.4173740000000  0.5098850000000 1.0
C      1  0.4200080000000  0.4691880000000  0.5289850000000 1.0
C      1  0.5427010000000  0.5667010000000  0.5574900000000 1.0
C      1  0.5602050000000  0.4275770000000  0.4674140000000 1.0
C      1  0.5507250000000  0.5011370000000  0.5777300000000 1.0
C      1  0.5776680000000  0.5120330000000  0.5425720000000 1.0
C      1  0.4989200000000  0.5468390000000  0.4482600000000 1.0
C      1  0.5581070000000  0.5490870000000  0.4570910000000 1.0
C      1  0.4948770000000  0.5211120000000  0.4178660000000 1.0
C      1  0.4172530000000  0.5489380000000  0.5120590000000 1.0
C      1  0.5639430000000  0.5650250000000  0.5093070000000 1.0
C      1  0.5555870000000  0.5413650000000  0.4293400000000 1.0
C      1  0.5190080000000  0.4569080000000  0.4155980000000 1.0
C      1  0.5690940000000  0.5034690000000  0.4522790000000 1.0
C      1  0.4998030000000  0.5732370000000  0.5298580000000 1.0
C      1  0.4535930000000  0.5365730000000  0.4846390000000 1.0
C      1  0.5340160000000  0.4829180000000  0.5361260000000 1.0
C      1  0.4451030000000  0.4233850000000  0.5332720000000 1.0
C      1  0.4506870000000  0.4411930000000  0.4744780000000 1.0
C      1  0.5226790000000  0.4495640000000  0.5761310000000 1.0
C      1  0.4061000000000  0.4978270000000  0.4689590000000 1.0
C      1  0.5007020000000  0.4296860000000  0.5708070000000 1.0
C      1  0.5629050000000  0.5254180000000  0.5691060000000 1.0
C      1  0.4971380000000  0.4828860000000  0.5186520000000 1.0
C      1  0.5138740000000  0.4783890000000  0.5740770000000 1.0
C      1  0.5082010000000  0.4928890000000  0.5461790000000 1.0
C      1  0.4300220000000  0.4738320000000  0.4911100000000 1.0
C      1  0.5200160000000  0.5238120000000  0.5085630000000 1.0
C      1  0.4456900000000  0.5080210000000  0.4398200000000 1.0
C      1  0.5159280000000  0.4816980000000  0.4373420000000 1.0
C      1  0.5222520000000  0.5654880000000  0.5163130000000 1.0
C      1  0.4605190000000  0.5659160000000  0.4361260000000 1.0
C      1  0.5526920000000  0.4827050000000  0.5559840000000 1.0
C      1  0.4935890000000  0.4160970000000  0.5442580000000 1.0
C      1  0.5553460000000  0.5119790000000  0.4283580000000 1.0
C      1  0.4239860000000  0.5108810000000  0.5496020000000 1.0
C      1  0.5233530000000  0.5937400000000  0.5020500000000 1.0
C      1  0.4807460000000  0.4451840000000  0.4371230000000 1.0
C      1  0.5384000000000  0.5671440000000  0.4680370000000 1.0
C      1  0.4585860000000  0.5657520000000  0.5315540000000 1.0
C      1  0.4920560000000  0.4103970000000  0.4768150000000 1.0
C      1  0.4801210000000  0.4914810000000  0.4159150000000 1.0
C      1  0.4439890000000  0.4971840000000  0.4831260000000 1.0
C      1  0.4422300000000  0.5281430000000  0.5644560000000 1.0
C      1  0.5353540000000  0.4754580000000  0.3983580000000 1.0
C      1  0.4450340000000  0.5649180000000  0.4836010000000 1.0
C      1  0.4900540000000  0.4904080000000  0.4462240000000 1.0
C      1  0.4765380000000  0.4677650000000  0.4562410000000 1.0
C      1  0.5183800000000  0.4502710000000  0.4710590000000 1.0
C      1  0.5275100000000  0.4944410000000  0.5926620000000 1.0
C      1  0.5212740000000  0.4994490000000  0.4752040000000 1.0
C      1  0.4745780000000  0.5246290000000  0.5317870000000 1.0
C      1  0.4855280000000  0.5104210000000  0.4684740000000 1.0
C      1  0.5392100000000  0.5433360000000  0.5747010000000 1.0
C      1  0.4946930000000  0.5897000000000  0.5037510000000 1.0
C      1  0.5222400000000  0.4287030000000  0.4529540000000 1.0
C      1  0.4438740000000  0.5544760000000  0.5539480000000 1.0
C      1  0.5468560000000  0.5813190000000  0.4905440000000 1.0
C      1  0.4374870000000  0.5700350000000  0.5113010000000 1.0
C      1  0.4530900000000  0.4826750000000  0.4272270000000 1.0
C      1  0.5683470000000  0.4793100000000  0.4675510000000 1.0
C      1  0.4654160000000  0.4109180000000  0.5418570000000 1.0
C      1  0.4483780000000  0.4727870000000  0.5584160000000 1.0
C      1  0.5239040000000  0.5817380000000  0.5414530000000 1.0
C      1  0.5562500000000  0.4644740000000  0.4463880000000 1.0
C      1  0.5198480000000  0.5224580000000  0.5376850000000 1.0
C      1  0.5661670000000  0.5253380000000  0.4715660000000 1.0
C      1  0.5367860000000  0.4411910000000  0.5540330000000 1.0
C      1  0.5583170000000  0.5541820000000  0.5362480000000 1.0
C      1  0.5897880000000  0.5224710000000  0.4908370000000 1.0
C      1  0.4294130000000  0.4440080000000  0.4931030000000 1.0
C      1  0.5105560000000  0.5694080000000  0.4599280000000 1.0
END
