TITL C-2441156-4686-46 0.157857622395125 125000 -26299.5900898067 0 0 199 (C1) n - 1
REM
REM in /home/bkarasulu/work/CARBON/AIRSS/Generating-Clusters/ReaxFF-fromJPCA2015/Units_Real/with-SteepDescent/Higher-Symm
REM
REM
REM
REM
REM
REM ./C.cell (1df0a924f5614ab8850e4351716899ee)
REM
REM compiler GCC version 9.2.1 20190827 (Red Hat 9.2.1-1)
REM options -cpp -mtune=generic -march=x86-64 -g -O0 -fpre-include=/usr/include/finclude/math-vector-fortran.h
REM seed 178751078 -1763555355 76222212 -237381515 1746898883 -1202169128 -1252392977 -438018638 -641808510 -1337999730 488872806 -107380356 1599604106 -320097234 -1459863202 -999913315 201537138 -1682658119 -1413200114 -181187562 -504429766 -1079576605 1972370060 774085384 -99932070 -1351370458 1104632066 1941520566 1919038557 1954989115 -712469756 -1827800772 1882477256
REM
CELL 1.54180   50.00000   50.00000   50.00000   90.00000   90.00000   90.00000
LATT -1
SFAC C  
C      1  0.5248620000000  0.4520250000000  0.3943830000000 1.0
C      1  0.5331220000000  0.3974950000000  0.4908730000000 1.0
C      1  0.5135620000000  0.3955130000000  0.4698740000000 1.0
C      1  0.5567140000000  0.4254860000000  0.5552680000000 1.0
C      1  0.4853760000000  0.5281090000000  0.5376120000000 1.0
C      1  0.4748340000000  0.4391620000000  0.4207570000000 1.0
C      1  0.4247870000000  0.4384900000000  0.4399070000000 1.0
C      1  0.5783440000000  0.4208930000000  0.5153690000000 1.0
C      1  0.5935220000000  0.4889530000000  0.5264470000000 1.0
C      1  0.5392010000000  0.5882070000000  0.5479610000000 1.0
C      1  0.5735920000000  0.4504470000000  0.5604190000000 1.0
C      1  0.5052000000000  0.5531060000000  0.6020310000000 1.0
C      1  0.4875210000000  0.4860890000000  0.4463590000000 1.0
C      1  0.5189600000000  0.6103720000000  0.5043040000000 1.0
C      1  0.5075920000000  0.5485640000000  0.4027190000000 1.0
C      1  0.4061770000000  0.4415500000000  0.4869900000000 1.0
C      1  0.5830680000000  0.5294570000000  0.5551480000000 1.0
C      1  0.4471140000000  0.4443290000000  0.5586090000000 1.0
C      1  0.4223430000000  0.5714710000000  0.5254250000000 1.0
C      1  0.3931290000000  0.4727790000000  0.5201210000000 1.0
C      1  0.4842050000000  0.5517950000000  0.5546570000000 1.0
C      1  0.4821220000000  0.4146210000000  0.5677530000000 1.0
C      1  0.6116920000000  0.5160490000000  0.5208720000000 1.0
C      1  0.5434650000000  0.4515700000000  0.5949540000000 1.0
C      1  0.3866320000000  0.4864280000000  0.4708160000000 1.0
C      1  0.4024570000000  0.5264540000000  0.5384520000000 1.0
C      1  0.4162720000000  0.5375490000000  0.5620820000000 1.0
C      1  0.4265200000000  0.5419070000000  0.4958200000000 1.0
C      1  0.5410180000000  0.5435290000000  0.5218050000000 1.0
C      1  0.4290420000000  0.4403480000000  0.4682280000000 1.0
C      1  0.5593550000000  0.5785440000000  0.4671880000000 1.0
C      1  0.5835680000000  0.5577480000000  0.5445870000000 1.0
C      1  0.5189160000000  0.4870110000000  0.5245940000000 1.0
C      1  0.5621530000000  0.5666070000000  0.4183080000000 1.0
C      1  0.4571090000000  0.5204490000000  0.5490120000000 1.0
C      1  0.4853360000000  0.5636280000000  0.4137410000000 1.0
C      1  0.4679550000000  0.4653610000000  0.5533330000000 1.0
C      1  0.5535940000000  0.4660510000000  0.4750050000000 1.0
C      1  0.4966300000000  0.5555030000000  0.4401870000000 1.0
C      1  0.4593050000000  0.5984000000000  0.4692600000000 1.0
C      1  0.5489750000000  0.5488540000000  0.5749040000000 1.0
C      1  0.4494100000000  0.4011140000000  0.4462620000000 1.0
C      1  0.5325090000000  0.5263610000000  0.5614760000000 1.0
C      1  0.4898830000000  0.4382570000000  0.5829290000000 1.0
C      1  0.5266510000000  0.6138330000000  0.4742700000000 1.0
C      1  0.5355190000000  0.4785200000000  0.3822220000000 1.0
C      1  0.4695300000000  0.5141680000000  0.6078550000000 1.0
C      1  0.5973130000000  0.4665630000000  0.5077910000000 1.0
C      1  0.5245740000000  0.5666170000000  0.5859230000000 1.0
C      1  0.4288250000000  0.4848920000000  0.4952910000000 1.0
C      1  0.4966500000000  0.4970330000000  0.5655450000000 1.0
C      1  0.4400110000000  0.5775440000000  0.4586650000000 1.0
C      1  0.4030380000000  0.4850960000000  0.4471330000000 1.0
C      1  0.6190110000000  0.5116070000000  0.4944150000000 1.0
C      1  0.4617510000000  0.4697340000000  0.5266150000000 1.0
C      1  0.5407090000000  0.5991390000000  0.5205580000000 1.0
C      1  0.4559150000000  0.4164340000000  0.5549530000000 1.0
C      1  0.5500740000000  0.4561660000000  0.5263480000000 1.0
C      1  0.4876500000000  0.5949100000000  0.5652510000000 1.0
C      1  0.4843180000000  0.5911190000000  0.4559430000000 1.0
C      1  0.5837450000000  0.4786920000000  0.4331590000000 1.0
C      1  0.4546210000000  0.5328750000000  0.5955630000000 1.0
C      1  0.4929200000000  0.5656700000000  0.4708780000000 1.0
C      1  0.6040410000000  0.5434900000000  0.5156410000000 1.0
C      1  0.5576370000000  0.4750690000000  0.5903200000000 1.0
C      1  0.5008790000000  0.4617090000000  0.4545220000000 1.0
C      1  0.5373850000000  0.5626330000000  0.4807710000000 1.0
C      1  0.4654670000000  0.4949650000000  0.5658930000000 1.0
C      1  0.5600820000000  0.5704440000000  0.5574390000000 1.0
C      1  0.6012240000000  0.4606990000000  0.4799750000000 1.0
C      1  0.5054390000000  0.5119960000000  0.4398100000000 1.0
C      1  0.5390380000000  0.5354050000000  0.4765290000000 1.0
C      1  0.5136270000000  0.4701570000000  0.4144030000000 1.0
C      1  0.4930010000000  0.5380570000000  0.5099280000000 1.0
C      1  0.6118160000000  0.5101930000000  0.4676880000000 1.0
C      1  0.4786630000000  0.5527730000000  0.5849550000000 1.0
C      1  0.4717390000000  0.5665810000000  0.5339560000000 1.0
C      1  0.5645940000000  0.4417600000000  0.4538150000000 1.0
C      1  0.4659000000000  0.5811310000000  0.5807880000000 1.0
C      1  0.4745600000000  0.4945100000000  0.5184480000000 1.0
C      1  0.4689960000000  0.4593350000000  0.4873020000000 1.0
C      1  0.5230260000000  0.5012450000000  0.6196860000000 1.0
C      1  0.5096920000000  0.5211400000000  0.5764290000000 1.0
C      1  0.5388680000000  0.4454910000000  0.5018890000000 1.0
C      1  0.5484930000000  0.4215930000000  0.4871750000000 1.0
C      1  0.5803370000000  0.5405750000000  0.4441340000000 1.0
C      1  0.4216530000000  0.5090490000000  0.4488010000000 1.0
C      1  0.5705510000000  0.4540880000000  0.4286180000000 1.0
C      1  0.4041440000000  0.5392250000000  0.4564070000000 1.0
C      1  0.4441060000000  0.4678360000000  0.4754080000000 1.0
C      1  0.5079730000000  0.4745880000000  0.4975810000000 1.0
C      1  0.5396300000000  0.4965190000000  0.5041820000000 1.0
C      1  0.4637530000000  0.6012150000000  0.4983410000000 1.0
C      1  0.5564790000000  0.5130510000000  0.4110050000000 1.0
C      1  0.5980090000000  0.4831640000000  0.4597340000000 1.0
C      1  0.4352220000000  0.5541490000000  0.5477490000000 1.0
C      1  0.4885740000000  0.4716850000000  0.6122600000000 1.0
C      1  0.5301240000000  0.5218680000000  0.4987420000000 1.0
C      1  0.4596450000000  0.4744070000000  0.4051180000000 1.0
C      1  0.5190200000000  0.5273160000000  0.6037510000000 1.0
C      1  0.4272340000000  0.5628870000000  0.4161070000000 1.0
C      1  0.4957540000000  0.4549520000000  0.5572020000000 1.0
C      1  0.4567180000000  0.5235700000000  0.4170910000000 1.0
C      1  0.5634890000000  0.5179250000000  0.5328810000000 1.0
C      1  0.4880390000000  0.4800080000000  0.4142610000000 1.0
C      1  0.5741860000000  0.4960380000000  0.5793150000000 1.0
C      1  0.5303140000000  0.5186950000000  0.4547580000000 1.0
C      1  0.5373750000000  0.4757860000000  0.5465620000000 1.0
C      1  0.5693750000000  0.5376780000000  0.4175260000000 1.0
C      1  0.5955050000000  0.5342060000000  0.4679730000000 1.0
C      1  0.5137190000000  0.4738940000000  0.5698790000000 1.0
C      1  0.3927390000000  0.5146780000000  0.4749700000000 1.0
C      1  0.4427420000000  0.5681750000000  0.5714000000000 1.0
C      1  0.4156960000000  0.4642530000000  0.4310010000000 1.0
C      1  0.4709790000000  0.4581520000000  0.5964010000000 1.0
C      1  0.4825690000000  0.4978020000000  0.6185840000000 1.0
C      1  0.4161940000000  0.5110530000000  0.4912490000000 1.0
C      1  0.5376830000000  0.5803240000000  0.4289120000000 1.0
C      1  0.4967930000000  0.5014210000000  0.5366310000000 1.0
C      1  0.4446970000000  0.5756160000000  0.4317790000000 1.0
C      1  0.5021610000000  0.5178630000000  0.4927660000000 1.0
C      1  0.4808500000000  0.4258900000000  0.5212450000000 1.0
C      1  0.4120790000000  0.5409330000000  0.4275210000000 1.0
C      1  0.4915190000000  0.6006130000000  0.5106710000000 1.0
C      1  0.5657750000000  0.5860930000000  0.5107850000000 1.0
C      1  0.4729800000000  0.5491330000000  0.4853790000000 1.0
C      1  0.5771210000000  0.4497280000000  0.5195000000000 1.0
C      1  0.5152970000000  0.5561340000000  0.5173490000000 1.0
C      1  0.4422090000000  0.5822040000000  0.5068740000000 1.0
C      1  0.5768700000000  0.4178080000000  0.4868070000000 1.0
C      1  0.4964690000000  0.4185100000000  0.4250290000000 1.0
C      1  0.4786230000000  0.5949780000000  0.5374990000000 1.0
C      1  0.4075310000000  0.5474910000000  0.5181760000000 1.0
C      1  0.4366340000000  0.4852070000000  0.5226890000000 1.0
C      1  0.4459160000000  0.5090490000000  0.4641980000000 1.0
C      1  0.5179580000000  0.4107300000000  0.4450880000000 1.0
C      1  0.4970030000000  0.4358700000000  0.4026970000000 1.0
C      1  0.4572940000000  0.5569760000000  0.5086850000000 1.0
C      1  0.4228790000000  0.5573490000000  0.4704370000000 1.0
C      1  0.5157950000000  0.5864630000000  0.5668450000000 1.0
C      1  0.5829220000000  0.4776510000000  0.5565890000000 1.0
C      1  0.4863680000000  0.4944680000000  0.4914450000000 1.0
C      1  0.4846500000000  0.3975390000000  0.5140390000000 1.0
C      1  0.4207400000000  0.4543040000000  0.5531870000000 1.0
C      1  0.5097410000000  0.4469320000000  0.5032890000000 1.0
C      1  0.4888640000000  0.3959380000000  0.4847110000000 1.0
C      1  0.5809850000000  0.5792870000000  0.4877150000000 1.0
C      1  0.5306840000000  0.4188820000000  0.5673660000000 1.0
C      1  0.5343420000000  0.3948070000000  0.5195700000000 1.0
C      1  0.5220680000000  0.4342240000000  0.5890670000000 1.0
C      1  0.5381610000000  0.5962980000000  0.4533090000000 1.0
C      1  0.5132130000000  0.5712000000000  0.4927840000000 1.0
C      1  0.5007250000000  0.6106770000000  0.4662750000000 1.0
C      1  0.5233770000000  0.5551050000000  0.4267220000000 1.0
C      1  0.4481110000000  0.4243660000000  0.4290050000000 1.0
C      1  0.4425720000000  0.4749600000000  0.4283030000000 1.0
C      1  0.4779190000000  0.4194150000000  0.4724700000000 1.0
C      1  0.5081390000000  0.3929490000000  0.5309410000000 1.0
C      1  0.4152660000000  0.4839190000000  0.5564250000000 1.0
C      1  0.4531790000000  0.4797300000000  0.5873190000000 1.0
C      1  0.3909190000000  0.4656950000000  0.4919470000000 1.0
C      1  0.5965010000000  0.5546700000000  0.4900710000000 1.0
C      1  0.5147340000000  0.4771910000000  0.6026980000000 1.0
C      1  0.5667370000000  0.5577700000000  0.5192010000000 1.0
C      1  0.4634280000000  0.4457090000000  0.5111900000000 1.0
C      1  0.5098770000000  0.5188450000000  0.4052880000000 1.0
C      1  0.4572170000000  0.5572030000000  0.4124080000000 1.0
C      1  0.3977700000000  0.4974160000000  0.5367620000000 1.0
C      1  0.4285390000000  0.5184050000000  0.4233880000000 1.0
C      1  0.5435080000000  0.4223110000000  0.4397810000000 1.0
C      1  0.4365180000000  0.4071350000000  0.5044490000000 1.0
C      1  0.5722640000000  0.5667610000000  0.4447330000000 1.0
C      1  0.4887260000000  0.5016440000000  0.3942500000000 1.0
C      1  0.5455160000000  0.5049300000000  0.5500830000000 1.0
C      1  0.4904020000000  0.4452220000000  0.4763460000000 1.0
C      1  0.5716340000000  0.5255190000000  0.5804800000000 1.0
C      1  0.4608880000000  0.5028280000000  0.3966820000000 1.0
C      1  0.5450610000000  0.4427550000000  0.4187420000000 1.0
C      1  0.4277290000000  0.4934220000000  0.5817700000000 1.0
C      1  0.5545320000000  0.5042760000000  0.4551890000000 1.0
C      1  0.4562580000000  0.4848950000000  0.4526890000000 1.0
C      1  0.4651950000000  0.5301010000000  0.4647760000000 1.0
C      1  0.5039570000000  0.4394820000000  0.5317330000000 1.0
C      1  0.5702720000000  0.4912810000000  0.4757470000000 1.0
C      1  0.5708840000000  0.4998440000000  0.5093840000000 1.0
C      1  0.4498670000000  0.5107170000000  0.5234280000000 1.0
C      1  0.4061620000000  0.4480980000000  0.5294520000000 1.0
C      1  0.5595400000000  0.4926890000000  0.4310320000000 1.0
C      1  0.5234820000000  0.4591670000000  0.4379200000000 1.0
C      1  0.4150800000000  0.4267690000000  0.5101870000000 1.0
C      1  0.4300200000000  0.5224080000000  0.5827920000000 1.0
C      1  0.5066860000000  0.4065310000000  0.5557270000000 1.0
C      1  0.5305250000000  0.4812130000000  0.4815330000000 1.0
C      1  0.4467140000000  0.4056920000000  0.5296590000000 1.0
C      1  0.5359110000000  0.5054520000000  0.3912800000000 1.0
C      1  0.4817980000000  0.5299400000000  0.4413390000000 1.0
C      1  0.5576630000000  0.4087690000000  0.5317400000000 1.0
C      1  0.4489780000000  0.4148200000000  0.4749260000000 1.0
C      1  0.5883630000000  0.4372760000000  0.4695800000000 1.0
END
