TITL C-2441164-471-985 0.137709060711748 125000 -13359.9408419069 0 0 117 (C1) n - 1
REM
REM in /home/bkarasulu/work/CARBON/AIRSS/Generating-Clusters/ReaxFF-fromJPCA2015/Units_Real/with-SteepDescent/Higher-Symm
REM
REM
REM
REM
REM
REM ./C.cell (1df0a924f5614ab8850e4351716899ee)
REM
REM compiler GCC version 9.2.1 20190827 (Red Hat 9.2.1-1)
REM options -cpp -mtune=generic -march=x86-64 -g -O0 -fpre-include=/usr/include/finclude/math-vector-fortran.h
REM seed -1018458301 1432635692 1850051207 -1660513329 -52521756 381398647 962806379 -1654223279 -258661561 690379171 824631000 -762216239 -725835723 163721760 -189505207 -163927764 1146072185 192503208 2045518359 -830201376 -374625829 1085852182 1199030560 -1678234006 1700005292 -1596988911 609862100 -640688830 -20982762 -1748057343 519131247 547508084 -914044409
REM
CELL 1.54180   50.00000   50.00000   50.00000   90.00000   90.00000   90.00000
LATT -1
SFAC C  
C      1  0.5173580000000  0.5708230000000  0.4584520000000 1.0
C      1  0.5424710000000  0.5723440000000  0.4917160000000 1.0
C      1  0.5392650000000  0.5720160000000  0.5231560000000 1.0
C      1  0.5063780000000  0.5683270000000  0.5423660000000 1.0
C      1  0.4635970000000  0.5728240000000  0.5245080000000 1.0
C      1  0.4534660000000  0.5713610000000  0.4958870000000 1.0
C      1  0.4864900000000  0.5716760000000  0.4576810000000 1.0
C      1  0.5715950000000  0.4427450000000  0.4961430000000 1.0
C      1  0.5506540000000  0.4411730000000  0.5504820000000 1.0
C      1  0.4931910000000  0.4394110000000  0.5740330000000 1.0
C      1  0.4351390000000  0.4433780000000  0.5352590000000 1.0
C      1  0.4314200000000  0.4410100000000  0.4734870000000 1.0
C      1  0.4758700000000  0.4411310000000  0.4301820000000 1.0
C      1  0.5392510000000  0.4430670000000  0.4367330000000 1.0
C      1  0.5266510000000  0.4631110000000  0.4851290000000 1.0
C      1  0.5290340000000  0.4736320000000  0.5120160000000 1.0
C      1  0.5103520000000  0.4634890000000  0.5311260000000 1.0
C      1  0.4826930000000  0.4641540000000  0.5274760000000 1.0
C      1  0.4712840000000  0.4637660000000  0.5004230000000 1.0
C      1  0.4799240000000  0.4730900000000  0.4743920000000 1.0
C      1  0.5075620000000  0.4739640000000  0.4679830000000 1.0
C      1  0.4852560000000  0.4854550000000  0.4237340000000 1.0
C      1  0.5534770000000  0.4814530000000  0.4468200000000 1.0
C      1  0.5725560000000  0.4829510000000  0.5062270000000 1.0
C      1  0.5445530000000  0.4862170000000  0.5584030000000 1.0
C      1  0.4763590000000  0.4801170000000  0.5717100000000 1.0
C      1  0.4295130000000  0.4809290000000  0.5235520000000 1.0
C      1  0.4339500000000  0.4844880000000  0.4649230000000 1.0
C      1  0.4656740000000  0.5460960000000  0.4837090000000 1.0
C      1  0.4888240000000  0.5434940000000  0.4655640000000 1.0
C      1  0.5222490000000  0.5442010000000  0.4706810000000 1.0
C      1  0.5361680000000  0.5442780000000  0.4964590000000 1.0
C      1  0.5267520000000  0.5457670000000  0.5272620000000 1.0
C      1  0.4898520000000  0.5449720000000  0.5376400000000 1.0
C      1  0.4686650000000  0.5440830000000  0.5208530000000 1.0
C      1  0.5675100000000  0.5445490000000  0.4531590000000 1.0
C      1  0.5804130000000  0.5428320000000  0.5228130000000 1.0
C      1  0.5321830000000  0.5418850000000  0.5758790000000 1.0
C      1  0.4590210000000  0.5454750000000  0.5718230000000 1.0
C      1  0.4167610000000  0.5414490000000  0.5150560000000 1.0
C      1  0.4410950000000  0.5438120000000  0.4436130000000 1.0
C      1  0.5049250000000  0.5436990000000  0.4164820000000 1.0
C      1  0.5550630000000  0.4377020000000  0.4598020000000 1.0
C      1  0.5647590000000  0.4392260000000  0.5235250000000 1.0
C      1  0.5234250000000  0.4371300000000  0.5623100000000 1.0
C      1  0.4685850000000  0.4377360000000  0.5588490000000 1.0
C      1  0.4324310000000  0.4371030000000  0.5068790000000 1.0
C      1  0.4531570000000  0.4372890000000  0.4538210000000 1.0
C      1  0.5049930000000  0.4383460000000  0.4345180000000 1.0
C      1  0.5496490000000  0.4962250000000  0.5794070000000 1.0
C      1  0.4762260000000  0.5021760000000  0.5860630000000 1.0
C      1  0.4159930000000  0.5034320000000  0.5335920000000 1.0
C      1  0.4210930000000  0.4965420000000  0.4489300000000 1.0
C      1  0.4914880000000  0.4976710000000  0.4041360000000 1.0
C      1  0.5658720000000  0.4997680000000  0.4311100000000 1.0
C      1  0.5959970000000  0.4986810000000  0.5077890000000 1.0
C      1  0.4610220000000  0.5053230000000  0.4987050000000 1.0
C      1  0.4737710000000  0.5009880000000  0.4722630000000 1.0
C      1  0.5165830000000  0.5011490000000  0.4624020000000 1.0
C      1  0.5377390000000  0.5052230000000  0.4838040000000 1.0
C      1  0.5367340000000  0.5019200000000  0.5128340000000 1.0
C      1  0.4989580000000  0.5075860000000  0.5247810000000 1.0
C      1  0.4699350000000  0.5015570000000  0.5265900000000 1.0
C      1  0.5289550000000  0.4351540000000  0.4795470000000 1.0
C      1  0.5261240000000  0.4224350000000  0.5092440000000 1.0
C      1  0.5107900000000  0.4356060000000  0.5338000000000 1.0
C      1  0.4801620000000  0.4338150000000  0.5312200000000 1.0
C      1  0.4659100000000  0.4341600000000  0.5017190000000 1.0
C      1  0.4765720000000  0.4289980000000  0.4741870000000 1.0
C      1  0.5021400000000  0.4306650000000  0.4639800000000 1.0
C      1  0.5297950000000  0.5151710000000  0.5874280000000 1.0
C      1  0.4537990000000  0.5173660000000  0.5749950000000 1.0
C      1  0.4105790000000  0.5142910000000  0.5076280000000 1.0
C      1  0.4386830000000  0.5153160000000  0.4369060000000 1.0
C      1  0.5114730000000  0.5158190000000  0.4093990000000 1.0
C      1  0.5764330000000  0.5164350000000  0.4513830000000 1.0
C      1  0.5842280000000  0.5141050000000  0.5280540000000 1.0
C      1  0.5533130000000  0.5087770000000  0.5359740000000 1.0
C      1  0.5017000000000  0.5137260000000  0.5793450000000 1.0
C      1  0.4487570000000  0.5100260000000  0.5462320000000 1.0
C      1  0.4338160000000  0.5093030000000  0.4888630000000 1.0
C      1  0.4676310000000  0.5086600000000  0.4433580000000 1.0
C      1  0.5237290000000  0.5114510000000  0.4363490000000 1.0
C      1  0.5656470000000  0.5105560000000  0.4789930000000 1.0
C      1  0.4814590000000  0.5365840000000  0.4359910000000 1.0
C      1  0.5398690000000  0.5371250000000  0.4425730000000 1.0
C      1  0.5682510000000  0.5369340000000  0.4951170000000 1.0
C      1  0.5459730000000  0.5361880000000  0.5487830000000 1.0
C      1  0.4894480000000  0.5380180000000  0.5663130000000 1.0
C      1  0.4409440000000  0.5373330000000  0.5348750000000 1.0
C      1  0.4373890000000  0.5381080000000  0.4736650000000 1.0
C      1  0.4463390000000  0.4657170000000  0.4438620000000 1.0
C      1  0.5089720000000  0.4681860000000  0.4243910000000 1.0
C      1  0.5699170000000  0.4629270000000  0.4610000000000 1.0
C      1  0.5761510000000  0.4653640000000  0.5297610000000 1.0
C      1  0.5243300000000  0.4661710000000  0.5723050000000 1.0
C      1  0.4554510000000  0.4637340000000  0.5642290000000 1.0
C      1  0.4187880000000  0.4642260000000  0.5043680000000 1.0
C      1  0.5622060000000  0.5595670000000  0.5370260000000 1.0
C      1  0.5097610000000  0.5585690000000  0.5694050000000 1.0
C      1  0.4502280000000  0.5620770000000  0.5499390000000 1.0
C      1  0.4270370000000  0.5583030000000  0.4940350000000 1.0
C      1  0.4643560000000  0.5608220000000  0.4402140000000 1.0
C      1  0.5232860000000  0.5599700000000  0.4312100000000 1.0
C      1  0.5654050000000  0.5606390000000  0.4769430000000 1.0
C      1  0.5383960000000  0.4699220000000  0.4258600000000 1.0
C      1  0.5835580000000  0.4669160000000  0.4857180000000 1.0
C      1  0.5633740000000  0.4671790000000  0.5555580000000 1.0
C      1  0.4975190000000  0.4665230000000  0.5820060000000 1.0
C      1  0.4314090000000  0.4687670000000  0.5482980000000 1.0
C      1  0.4178030000000  0.4667820000000  0.4755560000000 1.0
C      1  0.4651310000000  0.4662030000000  0.4231210000000 1.0
C      1  0.5095660000000  0.4053940000000  0.5034140000000 1.0
C      1  0.5012830000000  0.5282060000000  0.5030430000000 1.0
C      1  0.4996380000000  0.5571010000000  0.5008720000000 1.0
C      1  0.4926320000000  0.5820230000000  0.4961300000000 1.0
C      1  0.5004940000000  0.4891550000000  0.5040500000000 1.0
END
