TITL C-2441159-1093-669 0.135165193053563 125000 -15925.4423647943 0 0 134 (C1) n - 1
REM
REM in /home/bkarasulu/work/CARBON/AIRSS/Generating-Clusters/ReaxFF-fromJPCA2015/Units_Real/with-SteepDescent/Higher-Symm
REM
REM
REM
REM
REM
REM ./C.cell (1df0a924f5614ab8850e4351716899ee)
REM
REM compiler GCC version 9.2.1 20190827 (Red Hat 9.2.1-1)
REM options -cpp -mtune=generic -march=x86-64 -g -O0 -fpre-include=/usr/include/finclude/math-vector-fortran.h
REM seed 1150772401 -1942774514 1221406649 -1757824865 -532872488 -920365062 1197551488 338448364 -1818071363 -1010584846 -1411217813 -1136626288 -280121657 -1548397283 1758733097 -436381757 1461092065 -1248631722 1045135429 -377734026 -1669097495 1529506354 787187177 1280385948 1337042150 -2000973710 -1088891365 1509436982 -1323100835 -1360482869 1010599272 -1893703516 -1619536531
REM
CELL 1.54180   50.00000   50.00000   50.00000   90.00000   90.00000   90.00000
LATT -1
SFAC C  
C      1  0.5131950000000  0.4474830000000  0.4709770000000 1.0
C      1  0.4820160000000  0.5564670000000  0.4686920000000 1.0
C      1  0.4834750000000  0.4460300000000  0.5263240000000 1.0
C      1  0.5146190000000  0.5564770000000  0.5315880000000 1.0
C      1  0.4465310000000  0.5147680000000  0.4716600000000 1.0
C      1  0.5593780000000  0.4836380000000  0.4676880000000 1.0
C      1  0.4399520000000  0.4849300000000  0.5301250000000 1.0
C      1  0.5542340000000  0.5165020000000  0.5280480000000 1.0
C      1  0.4762880000000  0.4947900000000  0.5200150000000 1.0
C      1  0.5202470000000  0.5001710000000  0.5172340000000 1.0
C      1  0.5238240000000  0.4931730000000  0.4777170000000 1.0
C      1  0.4836720000000  0.5002030000000  0.4796040000000 1.0
C      1  0.5004040000000  0.4821910000000  0.5188300000000 1.0
C      1  0.5070470000000  0.5234470000000  0.5146230000000 1.0
C      1  0.4940410000000  0.5231450000000  0.4854930000000 1.0
C      1  0.5017690000000  0.4846980000000  0.4780740000000 1.0
C      1  0.5331070000000  0.5033440000000  0.4136370000000 1.0
C      1  0.4687630000000  0.4977250000000  0.4121600000000 1.0
C      1  0.4710130000000  0.5023980000000  0.5858250000000 1.0
C      1  0.5324090000000  0.4968340000000  0.5867310000000 1.0
C      1  0.5027660000000  0.5306450000000  0.4131120000000 1.0
C      1  0.4971710000000  0.4682630000000  0.4129260000000 1.0
C      1  0.5035700000000  0.4685640000000  0.5876370000000 1.0
C      1  0.4954020000000  0.5337880000000  0.5856500000000 1.0
C      1  0.4109760000000  0.4633040000000  0.5135610000000 1.0
C      1  0.5884640000000  0.5356280000000  0.5142500000000 1.0
C      1  0.5884180000000  0.4633610000000  0.4854440000000 1.0
C      1  0.4118510000000  0.5359190000000  0.4838540000000 1.0
C      1  0.4662920000000  0.4106340000000  0.5147820000000 1.0
C      1  0.5361300000000  0.5871700000000  0.5142180000000 1.0
C      1  0.4638800000000  0.5870050000000  0.4847490000000 1.0
C      1  0.5348890000000  0.4121000000000  0.4830850000000 1.0
C      1  0.5592870000000  0.4620930000000  0.4097320000000 1.0
C      1  0.4431870000000  0.5404480000000  0.4105180000000 1.0
C      1  0.4430610000000  0.4593620000000  0.5878550000000 1.0
C      1  0.5591390000000  0.5391380000000  0.5891280000000 1.0
C      1  0.4639570000000  0.5601870000000  0.4116300000000 1.0
C      1  0.5397750000000  0.4412070000000  0.4091470000000 1.0
C      1  0.4628010000000  0.4392330000000  0.5857200000000 1.0
C      1  0.5379110000000  0.5583530000000  0.5897140000000 1.0
C      1  0.4733180000000  0.4914570000000  0.4549700000000 1.0
C      1  0.5226610000000  0.5028440000000  0.4505090000000 1.0
C      1  0.5218140000000  0.4994470000000  0.5472850000000 1.0
C      1  0.4742410000000  0.5165540000000  0.5391260000000 1.0
C      1  0.4959170000000  0.4733280000000  0.4544380000000 1.0
C      1  0.5078910000000  0.5260780000000  0.4566760000000 1.0
C      1  0.5022870000000  0.5253350000000  0.5446270000000 1.0
C      1  0.5041410000000  0.4744020000000  0.5460190000000 1.0
C      1  0.5250370000000  0.4530080000000  0.5756360000000 1.0
C      1  0.4737750000000  0.5458750000000  0.5732530000000 1.0
C      1  0.4746100000000  0.4539860000000  0.4243450000000 1.0
C      1  0.5246600000000  0.5453040000000  0.4237420000000 1.0
C      1  0.4545280000000  0.5241330000000  0.5738460000000 1.0
C      1  0.5451650000000  0.4733230000000  0.5741980000000 1.0
C      1  0.4540180000000  0.4748390000000  0.4247330000000 1.0
C      1  0.5463660000000  0.5265020000000  0.4253050000000 1.0
C      1  0.4853980000000  0.4595250000000  0.5703320000000 1.0
C      1  0.5163850000000  0.5472600000000  0.5749350000000 1.0
C      1  0.5182000000000  0.4521130000000  0.4210190000000 1.0
C      1  0.4836000000000  0.5461120000000  0.4248410000000 1.0
C      1  0.4546660000000  0.4824300000000  0.5739950000000 1.0
C      1  0.5488440000000  0.5173760000000  0.5774330000000 1.0
C      1  0.4532960000000  0.5182320000000  0.4220980000000 1.0
C      1  0.5464460000000  0.4825970000000  0.4256960000000 1.0
C      1  0.4806080000000  0.4286250000000  0.5662500000000 1.0
C      1  0.5249660000000  0.5742010000000  0.5684180000000 1.0
C      1  0.5263270000000  0.4268960000000  0.4302680000000 1.0
C      1  0.4822640000000  0.5725310000000  0.4325820000000 1.0
C      1  0.4270060000000  0.4736980000000  0.5677720000000 1.0
C      1  0.5739570000000  0.5264600000000  0.5680650000000 1.0
C      1  0.4274600000000  0.5261780000000  0.4303280000000 1.0
C      1  0.5730330000000  0.4756680000000  0.4315960000000 1.0
C      1  0.5289240000000  0.4558290000000  0.4973280000000 1.0
C      1  0.4769530000000  0.5428290000000  0.4897330000000 1.0
C      1  0.4708650000000  0.4561430000000  0.5014600000000 1.0
C      1  0.5221340000000  0.5448950000000  0.5081500000000 1.0
C      1  0.4551390000000  0.5292380000000  0.4962850000000 1.0
C      1  0.5429900000000  0.4790840000000  0.4891740000000 1.0
C      1  0.4552060000000  0.4795620000000  0.5075240000000 1.0
C      1  0.5421890000000  0.5271860000000  0.5009560000000 1.0
C      1  0.4271270000000  0.5324960000000  0.4584920000000 1.0
C      1  0.5775410000000  0.4628900000000  0.4576310000000 1.0
C      1  0.5735560000000  0.5347180000000  0.5401420000000 1.0
C      1  0.4242560000000  0.4663160000000  0.5402490000000 1.0
C      1  0.5318860000000  0.4281200000000  0.4585000000000 1.0
C      1  0.4657510000000  0.5772390000000  0.4569290000000 1.0
C      1  0.5332160000000  0.5749640000000  0.5409190000000 1.0
C      1  0.4670190000000  0.4259730000000  0.5401810000000 1.0
C      1  0.4429120000000  0.4229490000000  0.5068420000000 1.0
C      1  0.5578410000000  0.5723890000000  0.5060440000000 1.0
C      1  0.5548950000000  0.4222560000000  0.5000280000000 1.0
C      1  0.4442340000000  0.5753250000000  0.5037870000000 1.0
C      1  0.4254290000000  0.4407480000000  0.5065410000000 1.0
C      1  0.5778760000000  0.5563170000000  0.4967080000000 1.0
C      1  0.4254910000000  0.5565370000000  0.4959620000000 1.0
C      1  0.5726650000000  0.4416920000000  0.4931960000000 1.0
C      1  0.5068530000000  0.4294580000000  0.5290320000000 1.0
C      1  0.4897990000000  0.5720840000000  0.5294480000000 1.0
C      1  0.4906670000000  0.4281380000000  0.4694080000000 1.0
C      1  0.5059450000000  0.5726530000000  0.4692030000000 1.0
C      1  0.4250680000000  0.5081170000000  0.5307730000000 1.0
C      1  0.5706330000000  0.4908190000000  0.5289550000000 1.0
C      1  0.4279080000000  0.4916890000000  0.4696920000000 1.0
C      1  0.5729320000000  0.5095390000000  0.4678770000000 1.0
C      1  0.5208510000000  0.5677480000000  0.4437220000000 1.0
C      1  0.4751140000000  0.4322460000000  0.4446620000000 1.0
C      1  0.4718510000000  0.5671510000000  0.5506470000000 1.0
C      1  0.5217950000000  0.4318330000000  0.5539740000000 1.0
C      1  0.5680550000000  0.5264140000000  0.4456540000000 1.0
C      1  0.4326010000000  0.4750650000000  0.4463300000000 1.0
C      1  0.5662670000000  0.4739530000000  0.5529990000000 1.0
C      1  0.4310780000000  0.5248490000000  0.5539200000000 1.0
C      1  0.5668350000000  0.4499570000000  0.5369970000000 1.0
C      1  0.4322290000000  0.5481980000000  0.5359540000000 1.0
C      1  0.4310730000000  0.4509470000000  0.4620710000000 1.0
C      1  0.5707170000000  0.5508620000000  0.4638510000000 1.0
C      1  0.4484880000000  0.5725240000000  0.5346180000000 1.0
C      1  0.5470860000000  0.4276920000000  0.5371820000000 1.0
C      1  0.4505030000000  0.4290170000000  0.4598000000000 1.0
C      1  0.5454120000000  0.5666950000000  0.4600680000000 1.0
C      1  0.4876090000000  0.4115810000000  0.4935700000000 1.0
C      1  0.5128870000000  0.5870300000000  0.4935770000000 1.0
C      1  0.5141410000000  0.4125810000000  0.5048570000000 1.0
C      1  0.4864470000000  0.5875300000000  0.5040920000000 1.0
C      1  0.4117420000000  0.4869630000000  0.4937470000000 1.0
C      1  0.5880230000000  0.5135750000000  0.4936350000000 1.0
C      1  0.4117680000000  0.5130810000000  0.5052430000000 1.0
C      1  0.5872040000000  0.4868970000000  0.5045430000000 1.0
C      1  0.4578030000000  0.4532180000000  0.4766990000000 1.0
C      1  0.5442140000000  0.5413590000000  0.4757680000000 1.0
C      1  0.5400410000000  0.4525790000000  0.5230110000000 1.0
C      1  0.4557090000000  0.5331630000000  0.5236050000000 1.0
C      1  0.4978290000000  0.4980630000000  0.4085680000000 1.0
C      1  0.5009310000000  0.4979060000000  0.5905660000000 1.0
END
