TITL C-2441163-1170-1212 0.0140590272909236 125000 -13865.5933241711 0 0 97 (C1) n - 1
REM
REM in /home/bkarasulu/work/CARBON/AIRSS/Generating-Clusters/ReaxFF-fromJPCA2015/Units_Real/with-SteepDescent/Higher-Symm
REM
REM
REM
REM
REM
REM ./C.cell (1df0a924f5614ab8850e4351716899ee)
REM
REM compiler GCC version 9.2.1 20190827 (Red Hat 9.2.1-1)
REM options -cpp -mtune=generic -march=x86-64 -g -O0 -fpre-include=/usr/include/finclude/math-vector-fortran.h
REM seed 1025177418 1403641281 2131610943 58153996 1862926330 1091279610 -524184473 -1829457658 -1591815470 -90552541 1825877756 356354422 431472675 1283777301 -412973757 -1299169984 201985001 1734203166 1581677077 -1290817202 -105921894 319563358 -66559533 247993100 -1432687990 111373178 304880008 1477446287 -178315999 1567681383 -123333772 -289699051 1524949342
REM
CELL 1.54180   50.00000   50.00000   50.00000   90.00000   90.00000   90.00000
LATT -1
SFAC C  
C      1  0.4767060000000  0.4994010000000  0.5024980000000 1.0
C      1  0.5025020000000  0.5760060000000  0.4636870000000 1.0
C      1  0.4460780000000  0.5331100000000  0.5387390000000 1.0
C      1  0.4270560000000  0.4902570000000  0.5473360000000 1.0
C      1  0.5222850000000  0.5199760000000  0.5911830000000 1.0
C      1  0.4841830000000  0.4309960000000  0.5239540000000 1.0
C      1  0.5636730000000  0.4993170000000  0.5622430000000 1.0
C      1  0.4723140000000  0.4610600000000  0.5639110000000 1.0
C      1  0.5314660000000  0.4799820000000  0.5021600000000 1.0
C      1  0.5757880000000  0.5090850000000  0.5136190000000 1.0
C      1  0.5309660000000  0.4280040000000  0.5320060000000 1.0
C      1  0.5455240000000  0.5491060000000  0.5034130000000 1.0
C      1  0.5170410000000  0.5242180000000  0.4264210000000 1.0
C      1  0.4972720000000  0.5052910000000  0.5866310000000 1.0
C      1  0.4669110000000  0.5263290000000  0.4974770000000 1.0
C      1  0.4189410000000  0.5103460000000  0.4986660000000 1.0
C      1  0.5619110000000  0.5281700000000  0.4459280000000 1.0
C      1  0.4813290000000  0.5458820000000  0.4287960000000 1.0
C      1  0.5677050000000  0.5301270000000  0.4951370000000 1.0
C      1  0.5436160000000  0.5749300000000  0.4887400000000 1.0
C      1  0.4712260000000  0.4638370000000  0.4349630000000 1.0
C      1  0.5454940000000  0.5488100000000  0.4515720000000 1.0
C      1  0.4393490000000  0.5298960000000  0.4883370000000 1.0
C      1  0.5801680000000  0.4827310000000  0.5003450000000 1.0
C      1  0.5205310000000  0.5615130000000  0.4451730000000 1.0
C      1  0.4968090000000  0.4775190000000  0.5747700000000 1.0
C      1  0.5044510000000  0.4988630000000  0.4155660000000 1.0
C      1  0.5464320000000  0.4838410000000  0.4346990000000 1.0
C      1  0.4311810000000  0.5178660000000  0.5577510000000 1.0
C      1  0.4382230000000  0.4490220000000  0.5239430000000 1.0
C      1  0.4998610000000  0.4013580000000  0.4787570000000 1.0
C      1  0.4878500000000  0.5449570000000  0.4987730000000 1.0
C      1  0.4751770000000  0.5714740000000  0.4994080000000 1.0
C      1  0.4866070000000  0.4386230000000  0.5544340000000 1.0
C      1  0.4336490000000  0.4480150000000  0.4721760000000 1.0
C      1  0.5516560000000  0.4418030000000  0.5184030000000 1.0
C      1  0.5036760000000  0.5016700000000  0.4635290000000 1.0
C      1  0.4321040000000  0.4843120000000  0.4931250000000 1.0
C      1  0.4997260000000  0.5814550000000  0.5121890000000 1.0
C      1  0.5687810000000  0.4548290000000  0.5007440000000 1.0
C      1  0.4458400000000  0.4641090000000  0.4499520000000 1.0
C      1  0.4651410000000  0.5742030000000  0.5465870000000 1.0
C      1  0.5107360000000  0.5137020000000  0.5058140000000 1.0
C      1  0.5158790000000  0.5389120000000  0.4980830000000 1.0
C      1  0.4268290000000  0.5768640000000  0.5340730000000 1.0
C      1  0.4769750000000  0.4895670000000  0.4213600000000 1.0
C      1  0.4961050000000  0.5256440000000  0.4481710000000 1.0
C      1  0.5032830000000  0.4557360000000  0.4701050000000 1.0
C      1  0.4531700000000  0.5627960000000  0.4552900000000 1.0
C      1  0.4843060000000  0.4063650000000  0.4566360000000 1.0
C      1  0.5160040000000  0.5841580000000  0.4885950000000 1.0
C      1  0.5235010000000  0.4638620000000  0.5683080000000 1.0
C      1  0.5541390000000  0.5444570000000  0.5381950000000 1.0
C      1  0.5438450000000  0.5125540000000  0.4312410000000 1.0
C      1  0.5632340000000  0.4717080000000  0.4561060000000 1.0
C      1  0.5747080000000  0.5190130000000  0.4697610000000 1.0
C      1  0.5584340000000  0.4482850000000  0.4724530000000 1.0
C      1  0.4488090000000  0.5605780000000  0.5259610000000 1.0
C      1  0.4745210000000  0.5745430000000  0.4695830000000 1.0
C      1  0.5111810000000  0.4610230000000  0.4975250000000 1.0
C      1  0.5454410000000  0.5077650000000  0.5816930000000 1.0
C      1  0.4591130000000  0.4869720000000  0.4838720000000 1.0
C      1  0.4773960000000  0.4823510000000  0.5274950000000 1.0
C      1  0.4546370000000  0.4293150000000  0.5126720000000 1.0
C      1  0.5060800000000  0.5684100000000  0.5378910000000 1.0
C      1  0.4135950000000  0.5013380000000  0.5252570000000 1.0
C      1  0.4647060000000  0.5090320000000  0.4387610000000 1.0
C      1  0.5169310000000  0.4386060000000  0.4498170000000 1.0
C      1  0.5242750000000  0.5420860000000  0.5440460000000 1.0
C      1  0.5293930000000  0.5459140000000  0.5743480000000 1.0
C      1  0.5369000000000  0.4886230000000  0.5289680000000 1.0
C      1  0.4235300000000  0.4564610000000  0.4989970000000 1.0
C      1  0.5191570000000  0.4776770000000  0.4279330000000 1.0
C      1  0.5171460000000  0.5102910000000  0.5342640000000 1.0
C      1  0.4815810000000  0.5161780000000  0.5650580000000 1.0
C      1  0.5686520000000  0.5186640000000  0.5399600000000 1.0
C      1  0.4760320000000  0.4332000000000  0.4670680000000 1.0
C      1  0.5440020000000  0.5730850000000  0.4600440000000 1.0
C      1  0.5791260000000  0.4901070000000  0.4726560000000 1.0
C      1  0.4894480000000  0.4325350000000  0.4403080000000 1.0
C      1  0.4566060000000  0.5273080000000  0.5634840000000 1.0
C      1  0.4909700000000  0.4588700000000  0.5170720000000 1.0
C      1  0.5460640000000  0.4763600000000  0.5537120000000 1.0
C      1  0.4518830000000  0.5407550000000  0.4362120000000 1.0
C      1  0.5157530000000  0.4394710000000  0.5564210000000 1.0
C      1  0.5372170000000  0.4292160000000  0.4676370000000 1.0
C      1  0.5233410000000  0.4104160000000  0.4889810000000 1.0
C      1  0.5111080000000  0.4150260000000  0.5149590000000 1.0
C      1  0.5237220000000  0.5013890000000  0.4843960000000 1.0
C      1  0.4367660000000  0.5434340000000  0.4635030000000 1.0
C      1  0.4506940000000  0.4279440000000  0.4835130000000 1.0
C      1  0.4871750000000  0.5754300000000  0.5572140000000 1.0
C      1  0.4508280000000  0.4919490000000  0.4573600000000 1.0
C      1  0.4500330000000  0.4690660000000  0.5445850000000 1.0
C      1  0.4929810000000  0.4982570000000  0.5461050000000 1.0
C      1  0.4997320000000  0.4762640000000  0.4510900000000 1.0
C      1  0.5551370000000  0.5581710000000  0.5676460000000 1.0
END
