TITL C-2441160-1326-89 0.00352385101079966 125000 -12269.4206212235 0 0 81 (C1) n - 1
REM
REM in /home/bkarasulu/work/CARBON/AIRSS/Generating-Clusters/ReaxFF-fromJPCA2015/Units_Real/with-SteepDescent/Higher-Symm
REM
REM
REM
REM
REM
REM ./C.cell (1df0a924f5614ab8850e4351716899ee)
REM
REM compiler GCC version 9.2.1 20190827 (Red Hat 9.2.1-1)
REM options -cpp -mtune=generic -march=x86-64 -g -O0 -fpre-include=/usr/include/finclude/math-vector-fortran.h
REM seed -1964750962 1640130064 1183663026 2085603589 -658792861 847111196 1699415369 -1275787280 338245044 766403126 -394925 1021361170 -2137430335 1015617018 -408725960 1779431874 -1617744407 -1724094955 475205703 1252640598 -1949901464 473606869 -751477585 -32212800 -1844929334 1561723814 757375154 -577679274 -1676082306 -929393132 -1842939488 -648194195 1938867731
REM
CELL 1.54180   50.00000   50.00000   50.00000   90.00000   90.00000   90.00000
LATT -1
SFAC C  
C      1  0.4364610000000  0.5407610000000  0.4930900000000 1.0
C      1  0.5592570000000  0.4479980000000  0.4990270000000 1.0
C      1  0.5643200000000  0.5411090000000  0.5059620000000 1.0
C      1  0.4356660000000  0.4580600000000  0.5133130000000 1.0
C      1  0.4651130000000  0.4431810000000  0.5476970000000 1.0
C      1  0.5378910000000  0.5539160000000  0.5449360000000 1.0
C      1  0.5513860000000  0.4578750000000  0.4724200000000 1.0
C      1  0.4602810000000  0.5545520000000  0.4606980000000 1.0
C      1  0.5683570000000  0.4712830000000  0.5147770000000 1.0
C      1  0.4279640000000  0.5261570000000  0.5167180000000 1.0
C      1  0.4285610000000  0.4763120000000  0.4743930000000 1.0
C      1  0.5730780000000  0.5329100000000  0.4764540000000 1.0
C      1  0.4652860000000  0.5363840000000  0.5595990000000 1.0
C      1  0.5385230000000  0.4630380000000  0.5561650000000 1.0
C      1  0.5404650000000  0.5374380000000  0.4359880000000 1.0
C      1  0.4637080000000  0.4630480000000  0.4392300000000 1.0
C      1  0.4511650000000  0.5101790000000  0.4473310000000 1.0
C      1  0.5578010000000  0.4958320000000  0.4462440000000 1.0
C      1  0.5528880000000  0.5075710000000  0.5494590000000 1.0
C      1  0.4501050000000  0.4901890000000  0.5535790000000 1.0
C      1  0.4995830000000  0.5724500000000  0.4888470000000 1.0
C      1  0.4941710000000  0.4214850000000  0.4856630000000 1.0
C      1  0.5057200000000  0.5608710000000  0.5149770000000 1.0
C      1  0.4932790000000  0.4308740000000  0.5135850000000 1.0
C      1  0.4501090000000  0.4354020000000  0.5016910000000 1.0
C      1  0.5456810000000  0.5643890000000  0.4964570000000 1.0
C      1  0.5357810000000  0.4309650000000  0.5001220000000 1.0
C      1  0.4541000000000  0.5634640000000  0.5037520000000 1.0
C      1  0.4153080000000  0.4763160000000  0.4990120000000 1.0
C      1  0.5800110000000  0.5177610000000  0.4963190000000 1.0
C      1  0.5766640000000  0.4899260000000  0.4939760000000 1.0
C      1  0.4181020000000  0.5046570000000  0.5032360000000 1.0
C      1  0.5164460000000  0.5020990000000  0.4692410000000 1.0
C      1  0.4887670000000  0.5133540000000  0.4688030000000 1.0
C      1  0.4903230000000  0.4881110000000  0.5300700000000 1.0
C      1  0.5157170000000  0.5035900000000  0.5249160000000 1.0
C      1  0.4760450000000  0.4760070000000  0.4937500000000 1.0
C      1  0.5246190000000  0.5219330000000  0.4881990000000 1.0
C      1  0.5268510000000  0.4851860000000  0.5063230000000 1.0
C      1  0.4723720000000  0.5086040000000  0.5191000000000 1.0
C      1  0.5124500000000  0.5504730000000  0.5592720000000 1.0
C      1  0.4916370000000  0.4480320000000  0.5601030000000 1.0
C      1  0.5003410000000  0.5507880000000  0.4353440000000 1.0
C      1  0.5072660000000  0.4464310000000  0.4521810000000 1.0
C      1  0.4717290000000  0.4917840000000  0.5729680000000 1.0
C      1  0.5318540000000  0.5065750000000  0.5706990000000 1.0
C      1  0.5331980000000  0.4896520000000  0.4308100000000 1.0
C      1  0.4743350000000  0.5072260000000  0.4289650000000 1.0
C      1  0.5117150000000  0.4699690000000  0.4351740000000 1.0
C      1  0.4966340000000  0.5250000000000  0.4212270000000 1.0
C      1  0.4938360000000  0.4721560000000  0.5751660000000 1.0
C      1  0.5105500000000  0.5265790000000  0.5741740000000 1.0
C      1  0.4678520000000  0.5651890000000  0.5289430000000 1.0
C      1  0.5205540000000  0.4276050000000  0.5247290000000 1.0
C      1  0.5258740000000  0.5684280000000  0.4753770000000 1.0
C      1  0.4678320000000  0.4292270000000  0.4778120000000 1.0
C      1  0.5328040000000  0.5712660000000  0.5212290000000 1.0
C      1  0.4654550000000  0.4264580000000  0.5244850000000 1.0
C      1  0.4711800000000  0.5719200000000  0.4816100000000 1.0
C      1  0.5190060000000  0.4307280000000  0.4741920000000 1.0
C      1  0.4505000000000  0.5172120000000  0.5389420000000 1.0
C      1  0.5573070000000  0.4793090000000  0.5404210000000 1.0
C      1  0.5616650000000  0.5241850000000  0.4516910000000 1.0
C      1  0.4424610000000  0.4816260000000  0.4508820000000 1.0
C      1  0.5549890000000  0.5325710000000  0.5356930000000 1.0
C      1  0.4458500000000  0.4647500000000  0.5402610000000 1.0
C      1  0.4421110000000  0.5324470000000  0.4647780000000 1.0
C      1  0.5697960000000  0.4798530000000  0.4672280000000 1.0
C      1  0.4851720000000  0.5399670000000  0.4582280000000 1.0
C      1  0.5273420000000  0.4759440000000  0.4806060000000 1.0
C      1  0.5136680000000  0.5312370000000  0.5120750000000 1.0
C      1  0.4865570000000  0.4642200000000  0.5130000000000 1.0
C      1  0.4777610000000  0.4423210000000  0.4537070000000 1.0
C      1  0.5257390000000  0.5598980000000  0.4469500000000 1.0
C      1  0.5188910000000  0.4423480000000  0.5490960000000 1.0
C      1  0.4831130000000  0.5580700000000  0.5519370000000 1.0
C      1  0.5226160000000  0.4795660000000  0.5743210000000 1.0
C      1  0.4813230000000  0.5192930000000  0.5760460000000 1.0
C      1  0.4842970000000  0.4793350000000  0.4279350000000 1.0
C      1  0.5243070000000  0.5161640000000  0.4228360000000 1.0
C      1  0.4703180000000  0.5035270000000  0.4899770000000 1.0
END
