TITL C-2441157-2117-89 0.092606535044933 125000 -20149.1668618636 0 0 153 (C1) n - 1
REM
REM in /home/bkarasulu/work/CARBON/AIRSS/Generating-Clusters/ReaxFF-fromJPCA2015/Units_Real/with-SteepDescent/Higher-Symm
REM
REM
REM
REM
REM
REM ./C.cell (1df0a924f5614ab8850e4351716899ee)
REM
REM compiler GCC version 9.2.1 20190827 (Red Hat 9.2.1-1)
REM options -cpp -mtune=generic -march=x86-64 -g -O0 -fpre-include=/usr/include/finclude/math-vector-fortran.h
REM seed 1851248597 1367467554 -290514343 -437742690 -1774699620 12994929 -2109355474 315695873 -5045051 -1574194668 -809241766 591584579 -654321490 -218054265 -870912556 -1777726348 1397795463 1753889420 673168317 1192562938 -1678370254 -386160405 1233602576 -1896928009 -1207215364 362559784 -309646636 -117952880 -547053422 -1957244883 146911108 -77866846 1893047436
REM
CELL 1.54180   50.00000   50.00000   50.00000   90.00000   90.00000   90.00000
LATT -1
SFAC C  
C      1  0.5466960000000  0.4083070000000  0.4581230000000 1.0
C      1  0.5530730000000  0.4542890000000  0.4096810000000 1.0
C      1  0.5524390000000  0.5266430000000  0.4062160000000 1.0
C      1  0.5513840000000  0.5825960000000  0.4376360000000 1.0
C      1  0.5512190000000  0.5941190000000  0.5102140000000 1.0
C      1  0.5497360000000  0.5740610000000  0.5717540000000 1.0
C      1  0.5481980000000  0.5060150000000  0.5973110000000 1.0
C      1  0.5520590000000  0.4460900000000  0.5844810000000 1.0
C      1  0.5509840000000  0.4042700000000  0.5300960000000 1.0
C      1  0.5155410000000  0.4169860000000  0.5603060000000 1.0
C      1  0.5145710000000  0.3981970000000  0.4977800000000 1.0
C      1  0.5123750000000  0.4235340000000  0.4249800000000 1.0
C      1  0.5165020000000  0.4858880000000  0.3927250000000 1.0
C      1  0.5123570000000  0.5594870000000  0.4097760000000 1.0
C      1  0.5175730000000  0.5997490000000  0.4701770000000 1.0
C      1  0.5128140000000  0.6010910000000  0.5427480000000 1.0
C      1  0.5078110000000  0.5465000000000  0.6024920000000 1.0
C      1  0.5102920000000  0.4768020000000  0.6047170000000 1.0
C      1  0.5249730000000  0.5926340000000  0.4963060000000 1.0
C      1  0.5345870000000  0.5862540000000  0.5520610000000 1.0
C      1  0.5297500000000  0.5298790000000  0.5908090000000 1.0
C      1  0.5283250000000  0.4615960000000  0.5871640000000 1.0
C      1  0.5366340000000  0.4088310000000  0.5546980000000 1.0
C      1  0.5206270000000  0.4082210000000  0.4716090000000 1.0
C      1  0.5352810000000  0.4392690000000  0.4240360000000 1.0
C      1  0.5266190000000  0.5125340000000  0.4070510000000 1.0
C      1  0.5358240000000  0.5641870000000  0.4245380000000 1.0
C      1  0.5932730000000  0.5435310000000  0.5147130000000 1.0
C      1  0.5956400000000  0.5185810000000  0.5324890000000 1.0
C      1  0.6023150000000  0.4918290000000  0.5307860000000 1.0
C      1  0.5980240000000  0.4651720000000  0.5278870000000 1.0
C      1  0.5903640000000  0.4569740000000  0.5003760000000 1.0
C      1  0.5935330000000  0.4697300000000  0.4749450000000 1.0
C      1  0.5863710000000  0.4940280000000  0.4609210000000 1.0
C      1  0.5892740000000  0.5226750000000  0.4635110000000 1.0
C      1  0.5845650000000  0.5392970000000  0.4880530000000 1.0
C      1  0.4636490000000  0.4281050000000  0.4408650000000 1.0
C      1  0.4668440000000  0.4815010000000  0.4052230000000 1.0
C      1  0.4634760000000  0.5474610000000  0.4157890000000 1.0
C      1  0.4652550000000  0.5863580000000  0.4646930000000 1.0
C      1  0.4632850000000  0.5924700000000  0.5313490000000 1.0
C      1  0.4636520000000  0.5480100000000  0.5763560000000 1.0
C      1  0.4628470000000  0.4875480000000  0.5914330000000 1.0
C      1  0.4659290000000  0.4246830000000  0.5622180000000 1.0
C      1  0.4622310000000  0.4032380000000  0.5008420000000 1.0
C      1  0.5186300000000  0.5107180000000  0.5449930000000 1.0
C      1  0.5183290000000  0.4702770000000  0.5370080000000 1.0
C      1  0.5234450000000  0.4516130000000  0.5144230000000 1.0
C      1  0.5196350000000  0.4571400000000  0.4833710000000 1.0
C      1  0.5260120000000  0.4785320000000  0.4575480000000 1.0
C      1  0.5194720000000  0.5092170000000  0.4571760000000 1.0
C      1  0.5252950000000  0.5393160000000  0.4716080000000 1.0
C      1  0.5167620000000  0.5462960000000  0.5031110000000 1.0
C      1  0.5203110000000  0.5383540000000  0.5338450000000 1.0
C      1  0.4382540000000  0.5583200000000  0.4297540000000 1.0
C      1  0.4408840000000  0.5914630000000  0.4821430000000 1.0
C      1  0.4391540000000  0.5789260000000  0.5446430000000 1.0
C      1  0.4399710000000  0.5342640000000  0.5825860000000 1.0
C      1  0.4430590000000  0.4655460000000  0.5882250000000 1.0
C      1  0.4397780000000  0.4187620000000  0.5469360000000 1.0
C      1  0.4386160000000  0.4113680000000  0.4845700000000 1.0
C      1  0.4412060000000  0.4400130000000  0.4257130000000 1.0
C      1  0.4412820000000  0.4994990000000  0.4053340000000 1.0
C      1  0.5368870000000  0.4828440000000  0.6065730000000 1.0
C      1  0.5532560000000  0.4215630000000  0.5725580000000 1.0
C      1  0.5419420000000  0.3988850000000  0.5061710000000 1.0
C      1  0.5389820000000  0.4132790000000  0.4308130000000 1.0
C      1  0.5473990000000  0.4781320000000  0.3978290000000 1.0
C      1  0.5384320000000  0.5511420000000  0.4019500000000 1.0
C      1  0.5429340000000  0.5977400000000  0.4583520000000 1.0
C      1  0.5394650000000  0.6051500000000  0.5340240000000 1.0
C      1  0.5490970000000  0.5492690000000  0.5822890000000 1.0
C      1  0.4524640000000  0.5325780000000  0.4704510000000 1.0
C      1  0.4425930000000  0.5410540000000  0.4971320000000 1.0
C      1  0.4551590000000  0.5333280000000  0.5249070000000 1.0
C      1  0.4428850000000  0.5106070000000  0.5353560000000 1.0
C      1  0.4558380000000  0.4855900000000  0.5387090000000 1.0
C      1  0.4553510000000  0.4645450000000  0.5181760000000 1.0
C      1  0.4421360000000  0.4652430000000  0.4935420000000 1.0
C      1  0.4531620000000  0.4809730000000  0.4724570000000 1.0
C      1  0.4420200000000  0.5039820000000  0.4593500000000 1.0
C      1  0.4100160000000  0.4650250000000  0.5300670000000 1.0
C      1  0.4144690000000  0.4572080000000  0.4958410000000 1.0
C      1  0.4115140000000  0.4644700000000  0.4668550000000 1.0
C      1  0.4146800000000  0.4946280000000  0.4551070000000 1.0
C      1  0.4067670000000  0.5245970000000  0.4616900000000 1.0
C      1  0.4139450000000  0.5424430000000  0.4896860000000 1.0
C      1  0.4068230000000  0.5399540000000  0.5207770000000 1.0
C      1  0.4153540000000  0.5171460000000  0.5403680000000 1.0
C      1  0.4101090000000  0.4871320000000  0.5487570000000 1.0
C      1  0.4530010000000  0.5929330000000  0.5069190000000 1.0
C      1  0.4565420000000  0.5560730000000  0.5498590000000 1.0
C      1  0.4422620000000  0.5065820000000  0.5845670000000 1.0
C      1  0.4555190000000  0.4443860000000  0.5758710000000 1.0
C      1  0.4518110000000  0.4102380000000  0.5241040000000 1.0
C      1  0.4475370000000  0.4283580000000  0.4640910000000 1.0
C      1  0.4560520000000  0.4604550000000  0.4149900000000 1.0
C      1  0.4528750000000  0.5239940000000  0.4100860000000 1.0
C      1  0.4551990000000  0.5621750000000  0.4532830000000 1.0
C      1  0.5056520000000  0.4619570000000  0.5611730000000 1.0
C      1  0.5037870000000  0.4310700000000  0.5210010000000 1.0
C      1  0.5048510000000  0.4326170000000  0.4708000000000 1.0
C      1  0.5047940000000  0.4684360000000  0.4402750000000 1.0
C      1  0.5075870000000  0.5160230000000  0.4285030000000 1.0
C      1  0.5054250000000  0.5544610000000  0.4568550000000 1.0
C      1  0.5055360000000  0.5734590000000  0.5045800000000 1.0
C      1  0.5028720000000  0.5541300000000  0.5480480000000 1.0
C      1  0.5054500000000  0.5124880000000  0.5717710000000 1.0
C      1  0.4187570000000  0.5627350000000  0.5320630000000 1.0
C      1  0.4168680000000  0.5383500000000  0.5654910000000 1.0
C      1  0.4243510000000  0.4857780000000  0.5741650000000 1.0
C      1  0.4204980000000  0.4428130000000  0.5424940000000 1.0
C      1  0.4166560000000  0.4262760000000  0.4960380000000 1.0
C      1  0.4274460000000  0.4451820000000  0.4530520000000 1.0
C      1  0.4207670000000  0.4922840000000  0.4251910000000 1.0
C      1  0.4193890000000  0.5411070000000  0.4433390000000 1.0
C      1  0.4189040000000  0.5716810000000  0.4814990000000 1.0
C      1  0.4817130000000  0.4663820000000  0.5133880000000 1.0
C      1  0.4947640000000  0.4701630000000  0.4899490000000 1.0
C      1  0.4803500000000  0.4826170000000  0.4700620000000 1.0
C      1  0.4917980000000  0.5066310000000  0.4644700000000 1.0
C      1  0.4805410000000  0.5285420000000  0.4751510000000 1.0
C      1  0.4917250000000  0.5357650000000  0.4983770000000 1.0
C      1  0.4809450000000  0.5246380000000  0.5191970000000 1.0
C      1  0.4961400000000  0.5050960000000  0.5283530000000 1.0
C      1  0.4858080000000  0.4826240000000  0.5348930000000 1.0
C      1  0.4921370000000  0.5414020000000  0.5749540000000 1.0
C      1  0.4922010000000  0.4865740000000  0.5835000000000 1.0
C      1  0.4954230000000  0.4321740000000  0.5512070000000 1.0
C      1  0.4907980000000  0.4171060000000  0.4986000000000 1.0
C      1  0.4933140000000  0.4375930000000  0.4424830000000 1.0
C      1  0.4951920000000  0.4859740000000  0.4187470000000 1.0
C      1  0.4943480000000  0.5457700000000  0.4289380000000 1.0
C      1  0.4946150000000  0.5798020000000  0.4702520000000 1.0
C      1  0.4940950000000  0.5798380000000  0.5328780000000 1.0
C      1  0.5586260000000  0.4924140000000  0.5460820000000 1.0
C      1  0.5670750000000  0.4614680000000  0.5379610000000 1.0
C      1  0.5635820000000  0.4492540000000  0.5104350000000 1.0
C      1  0.5677350000000  0.4577040000000  0.4652980000000 1.0
C      1  0.5607090000000  0.4819830000000  0.4496650000000 1.0
C      1  0.5633490000000  0.5283750000000  0.4562850000000 1.0
C      1  0.5575280000000  0.5499130000000  0.4752300000000 1.0
C      1  0.5643060000000  0.5453670000000  0.5325620000000 1.0
C      1  0.5669110000000  0.5154080000000  0.5303780000000 1.0
C      1  0.5540660000000  0.4962520000000  0.5724710000000 1.0
C      1  0.5670420000000  0.4442400000000  0.5611090000000 1.0
C      1  0.5607930000000  0.4199920000000  0.5087640000000 1.0
C      1  0.5588580000000  0.4326150000000  0.4604800000000 1.0
C      1  0.5630430000000  0.4773190000000  0.4214560000000 1.0
C      1  0.5657480000000  0.5256140000000  0.4304390000000 1.0
C      1  0.5611610000000  0.5765900000000  0.4637590000000 1.0
C      1  0.5638640000000  0.5696790000000  0.5156260000000 1.0
C      1  0.5667720000000  0.5537290000000  0.5617880000000 1.0
END
