TITL C-2441154-10-594 -1.46646631693492e-10 125000 -5956.07777676636 0 0 39 (D3h) n - 1
REM
REM in /home/bkarasulu/work/CARBON/AIRSS/Generating-Clusters/ReaxFF-fromJPCA2015/Units_Real/with-SteepDescent/Higher-Symm
REM
REM
REM
REM
REM
REM ./C.cell (1df0a924f5614ab8850e4351716899ee)
REM
REM compiler GCC version 9.2.1 20190827 (Red Hat 9.2.1-1)
REM options -cpp -mtune=generic -march=x86-64 -g -O0 -fpre-include=/usr/include/finclude/math-vector-fortran.h
REM seed 1075299474 1254997485 -2144171093 -1936503674 -2118442307 -749817532 1708972693 -1733704245 -1234038232 30499572 330995423 -1495320556 675848797 -1885593825 1220945516 -1573483826 -1150966097 -1445311085 1713986416 -2061804842 -1952789548 1485203136 1026330558 1501886244 -1451814971 -1953687734 1854451735 -718346707 -535852342 -1557139960 1187197657 343645993 561015478
REM
CELL 1.54180   50.00000   50.00000   50.00000   90.00000   90.00000   90.00000
LATT -1
SFAC C  
C      1  0.4753460000000  0.4859730000000  0.5375010000000 1.0
C      1  0.5244750000000  0.4856630000000  0.5375010000000 1.0
C      1  0.5001790000000  0.5283650000000  0.5375010000000 1.0
C      1  0.4753460000000  0.4859720000000  0.4589100000000 1.0
C      1  0.5244750000000  0.4856620000000  0.4589100000000 1.0
C      1  0.5001790000000  0.5283650000000  0.4589100000000 1.0
C      1  0.4753460000000  0.5140280000000  0.5375010000000 1.0
C      1  0.5244750000000  0.5143380000000  0.5375010000000 1.0
C      1  0.5001790000000  0.4716350000000  0.5375010000000 1.0
C      1  0.4753460000000  0.5140270000000  0.4589100000000 1.0
C      1  0.5244750000000  0.5143370000000  0.4589100000000 1.0
C      1  0.5001790000000  0.4716350000000  0.4589100000000 1.0
C      1  0.4802500000000  0.5642010000000  0.4834760000000 1.0
C      1  0.4542760000000  0.4507950000000  0.4834760000000 1.0
C      1  0.5654750000000  0.4850040000000  0.4834760000000 1.0
C      1  0.4802500000000  0.5642010000000  0.5129350000000 1.0
C      1  0.4542760000000  0.4507950000000  0.5129350000000 1.0
C      1  0.5654750000000  0.4850040000000  0.5129350000000 1.0
C      1  0.4802500000000  0.4357990000000  0.4834760000000 1.0
C      1  0.4542760000000  0.5492050000000  0.4834760000000 1.0
C      1  0.5654750000000  0.5149960000000  0.4834760000000 1.0
C      1  0.4802500000000  0.4357990000000  0.5129350000000 1.0
C      1  0.4542760000000  0.5492050000000  0.5129350000000 1.0
C      1  0.5654750000000  0.5149960000000  0.5129350000000 1.0
C      1  0.5049030000000  0.4495640000000  0.4765210000000 1.0
C      1  0.5412270000000  0.5294640000000  0.4765210000000 1.0
C      1  0.4538700000000  0.5209720000000  0.4765210000000 1.0
C      1  0.5049030000000  0.4495650000000  0.5198900000000 1.0
C      1  0.5412270000000  0.5294640000000  0.5198900000000 1.0
C      1  0.4538700000000  0.5209720000000  0.5198900000000 1.0
C      1  0.5049030000000  0.5504350000000  0.4765210000000 1.0
C      1  0.5412270000000  0.4705360000000  0.4765210000000 1.0
C      1  0.4538700000000  0.4790280000000  0.4765210000000 1.0
C      1  0.5049030000000  0.5504360000000  0.5198900000000 1.0
C      1  0.5412270000000  0.4705360000000  0.5198900000000 1.0
C      1  0.4538700000000  0.4790280000000  0.5198900000000 1.0
C      1  0.5275890000000  0.4522150000000  0.4982060000000 1.0
C      1  0.5275890000000  0.5477850000000  0.4982050000000 1.0
C      1  0.4448220000000  0.5000000000000  0.4982050000000 1.0
END
