TITL C-2441167-4473-326 0.056690395484404 125000 -19117.9577616685 0 0 139 (C1) n - 1
REM
REM in /home/bkarasulu/work/CARBON/AIRSS/Generating-Clusters/ReaxFF-fromJPCA2015/Units_Real/with-SteepDescent/Higher-Symm
REM
REM
REM
REM
REM
REM ./C.cell (1df0a924f5614ab8850e4351716899ee)
REM
REM compiler GCC version 9.2.1 20190827 (Red Hat 9.2.1-1)
REM options -cpp -mtune=generic -march=x86-64 -g -O0 -fpre-include=/usr/include/finclude/math-vector-fortran.h
REM seed -556225319 -1725369976 303519548 -945073664 48261593 -1074798408 -260499388 328787882 912219470 1215173388 -2106534604 1278073205 -1102022608 1309706083 -1440601662 -1434274292 -156668804 1109818191 1980345161 1112050003 -252168644 -414012069 1693021160 1879184325 -2076512334 -1827789385 -1323357770 -542593351 -272462860 1484074766 -405768751 -1290071769 1097961932
REM
CELL 1.54180   50.00000   50.00000   50.00000   90.00000   90.00000   90.00000
LATT -1
SFAC C  
C      1  0.4559550000000  0.4341370000000  0.5186070000000 1.0
C      1  0.5427990000000  0.4347700000000  0.4778080000000 1.0
C      1  0.4598670000000  0.4327960000000  0.4785980000000 1.0
C      1  0.5443730000000  0.4342800000000  0.5182750000000 1.0
C      1  0.4587240000000  0.5110130000000  0.5219550000000 1.0
C      1  0.5409830000000  0.5144920000000  0.4807800000000 1.0
C      1  0.4591350000000  0.5002440000000  0.4763190000000 1.0
C      1  0.5463300000000  0.5004430000000  0.5281420000000 1.0
C      1  0.5516590000000  0.4577870000000  0.5633480000000 1.0
C      1  0.4502550000000  0.4567770000000  0.4369150000000 1.0
C      1  0.5520080000000  0.4568290000000  0.4337490000000 1.0
C      1  0.4517720000000  0.4600290000000  0.5682540000000 1.0
C      1  0.4573900000000  0.5203830000000  0.4562460000000 1.0
C      1  0.5518660000000  0.5103700000000  0.5543590000000 1.0
C      1  0.4552600000000  0.5149360000000  0.5516540000000 1.0
C      1  0.5419510000000  0.5118890000000  0.4524860000000 1.0
C      1  0.5915300000000  0.4676440000000  0.5259990000000 1.0
C      1  0.4082670000000  0.4639910000000  0.4725160000000 1.0
C      1  0.5910850000000  0.4704300000000  0.4709760000000 1.0
C      1  0.4126820000000  0.4641010000000  0.5278000000000 1.0
C      1  0.5669710000000  0.5354160000000  0.4317400000000 1.0
C      1  0.4344650000000  0.5303420000000  0.5675760000000 1.0
C      1  0.5673140000000  0.5331240000000  0.5676930000000 1.0
C      1  0.4318070000000  0.5344140000000  0.4277420000000 1.0
C      1  0.4242230000000  0.5431060000000  0.4738990000000 1.0
C      1  0.5812700000000  0.5518620000000  0.5227740000000 1.0
C      1  0.4207420000000  0.5448140000000  0.5245170000000 1.0
C      1  0.5821830000000  0.5438500000000  0.4749280000000 1.0
C      1  0.4759610000000  0.5507550000000  0.4212080000000 1.0
C      1  0.5250560000000  0.5536130000000  0.5711320000000 1.0
C      1  0.4747290000000  0.5570410000000  0.5729330000000 1.0
C      1  0.5268430000000  0.5524250000000  0.4293240000000 1.0
C      1  0.4715290000000  0.5631650000000  0.5212640000000 1.0
C      1  0.5302690000000  0.5641650000000  0.4764290000000 1.0
C      1  0.4617540000000  0.5752850000000  0.4683270000000 1.0
C      1  0.5304010000000  0.5509430000000  0.5230300000000 1.0
C      1  0.4487030000000  0.5821670000000  0.4923250000000 1.0
C      1  0.5455310000000  0.5749410000000  0.5152280000000 1.0
C      1  0.4481520000000  0.5831400000000  0.5202790000000 1.0
C      1  0.5522850000000  0.5799570000000  0.4860270000000 1.0
C      1  0.5259810000000  0.4747610000000  0.4227400000000 1.0
C      1  0.4753660000000  0.4781520000000  0.5750370000000 1.0
C      1  0.5263810000000  0.4771760000000  0.5744040000000 1.0
C      1  0.4712060000000  0.4726540000000  0.4222620000000 1.0
C      1  0.4790230000000  0.4828040000000  0.5163120000000 1.0
C      1  0.5206320000000  0.4799990000000  0.4793120000000 1.0
C      1  0.4785630000000  0.4808530000000  0.4676090000000 1.0
C      1  0.5239860000000  0.4834070000000  0.5237060000000 1.0
C      1  0.4769020000000  0.4540950000000  0.5181980000000 1.0
C      1  0.5133520000000  0.4527290000000  0.4765970000000 1.0
C      1  0.4856540000000  0.4538080000000  0.4756400000000 1.0
C      1  0.5242370000000  0.4544880000000  0.5203720000000 1.0
C      1  0.4860250000000  0.4907660000000  0.5450920000000 1.0
C      1  0.5219220000000  0.4911450000000  0.4517000000000 1.0
C      1  0.4949890000000  0.4984910000000  0.4531240000000 1.0
C      1  0.5129320000000  0.4938910000000  0.5484160000000 1.0
C      1  0.4326860000000  0.4968650000000  0.4852020000000 1.0
C      1  0.5685840000000  0.4991050000000  0.5131430000000 1.0
C      1  0.4324700000000  0.5009000000000  0.5123190000000 1.0
C      1  0.5651030000000  0.5008030000000  0.4862340000000 1.0
C      1  0.5458570000000  0.4322980000000  0.5521190000000 1.0
C      1  0.4565000000000  0.4313280000000  0.4485880000000 1.0
C      1  0.5473610000000  0.4317810000000  0.4471200000000 1.0
C      1  0.4510940000000  0.4322080000000  0.5536300000000 1.0
C      1  0.5738990000000  0.4637950000000  0.4495140000000 1.0
C      1  0.4309780000000  0.4552930000000  0.5495780000000 1.0
C      1  0.5730600000000  0.4623880000000  0.5462010000000 1.0
C      1  0.4251490000000  0.4658770000000  0.4488930000000 1.0
C      1  0.5800110000000  0.5101470000000  0.5562330000000 1.0
C      1  0.4391020000000  0.5077090000000  0.4349090000000 1.0
C      1  0.5699540000000  0.5096660000000  0.4427570000000 1.0
C      1  0.4292880000000  0.5032740000000  0.5573390000000 1.0
C      1  0.4323490000000  0.5668370000000  0.5397320000000 1.0
C      1  0.5685640000000  0.5680340000000  0.4642410000000 1.0
C      1  0.4371830000000  0.5633850000000  0.4562880000000 1.0
C      1  0.5638820000000  0.5712620000000  0.5377050000000 1.0
C      1  0.4784390000000  0.5235380000000  0.4096380000000 1.0
C      1  0.5241250000000  0.5302330000000  0.5898630000000 1.0
C      1  0.4725280000000  0.5320030000000  0.5857040000000 1.0
C      1  0.5279970000000  0.5302320000000  0.4100540000000 1.0
C      1  0.5210570000000  0.4210840000000  0.5614770000000 1.0
C      1  0.4808230000000  0.4184850000000  0.4402690000000 1.0
C      1  0.5227660000000  0.4193270000000  0.4383150000000 1.0
C      1  0.4788510000000  0.4239010000000  0.5608940000000 1.0
C      1  0.3940470000000  0.5391360000000  0.5137100000000 1.0
C      1  0.6065380000000  0.5291990000000  0.4847350000000 1.0
C      1  0.3963200000000  0.5392050000000  0.4825680000000 1.0
C      1  0.6115270000000  0.5162970000000  0.5107980000000 1.0
C      1  0.5874360000000  0.4999070000000  0.4663070000000 1.0
C      1  0.4149610000000  0.4923010000000  0.5335680000000 1.0
C      1  0.5939180000000  0.4988080000000  0.5295460000000 1.0
C      1  0.4169350000000  0.4891310000000  0.4628930000000 1.0
C      1  0.5296500000000  0.5015820000000  0.5918370000000 1.0
C      1  0.4626600000000  0.5000580000000  0.4173440000000 1.0
C      1  0.5270150000000  0.5002800000000  0.4070390000000 1.0
C      1  0.4784260000000  0.5056320000000  0.5924980000000 1.0
C      1  0.5543880000000  0.5599870000000  0.4380180000000 1.0
C      1  0.4458980000000  0.5573840000000  0.5639270000000 1.0
C      1  0.5525530000000  0.5578430000000  0.5618670000000 1.0
C      1  0.4474570000000  0.5577850000000  0.4281040000000 1.0
C      1  0.5060360000000  0.5353430000000  0.5260250000000 1.0
C      1  0.4982820000000  0.5394920000000  0.4776690000000 1.0
C      1  0.4634590000000  0.4119210000000  0.5002610000000 1.0
C      1  0.5337030000000  0.4151730000000  0.4969140000000 1.0
C      1  0.4370320000000  0.5406890000000  0.5000080000000 1.0
C      1  0.5672740000000  0.5428060000000  0.4996070000000 1.0
C      1  0.4988290000000  0.5630970000000  0.4346400000000 1.0
C      1  0.5004860000000  0.5663490000000  0.5610320000000 1.0
C      1  0.5626010000000  0.4445110000000  0.4974150000000 1.0
C      1  0.4406130000000  0.4455480000000  0.4973600000000 1.0
C      1  0.4897900000000  0.5766010000000  0.4583520000000 1.0
C      1  0.4952970000000  0.5757960000000  0.5337990000000 1.0
C      1  0.4646370000000  0.5378620000000  0.5087150000000 1.0
C      1  0.5387240000000  0.5410470000000  0.4945710000000 1.0
C      1  0.4862620000000  0.5253650000000  0.4550000000000 1.0
C      1  0.4955400000000  0.5180140000000  0.5470430000000 1.0
C      1  0.5008000000000  0.4632010000000  0.5811110000000 1.0
C      1  0.4985940000000  0.4614480000000  0.4194730000000 1.0
C      1  0.4998580000000  0.4344080000000  0.5792960000000 1.0
C      1  0.5005290000000  0.4327260000000  0.4226610000000 1.0
C      1  0.5031830000000  0.4110450000000  0.4585070000000 1.0
C      1  0.4996560000000  0.4179420000000  0.5413100000000 1.0
C      1  0.3822630000000  0.5583890000000  0.4974160000000 1.0
C      1  0.6074960000000  0.5442280000000  0.5117330000000 1.0
C      1  0.5046860000000  0.5166610000000  0.3980910000000 1.0
C      1  0.5048930000000  0.5119640000000  0.6038350000000 1.0
C      1  0.5864490000000  0.4586870000000  0.4983130000000 1.0
C      1  0.4139070000000  0.4544560000000  0.4996590000000 1.0
C      1  0.4877730000000  0.3976090000000  0.5015150000000 1.0
C      1  0.5044240000000  0.5720540000000  0.4819370000000 1.0
C      1  0.5041570000000  0.5902070000000  0.5096700000000 1.0
C      1  0.5065980000000  0.4128100000000  0.4880450000000 1.0
C      1  0.4996530000000  0.6397620000000  0.4987370000000 1.0
C      1  0.4942130000000  0.3707720000000  0.5008170000000 1.0
C      1  0.5024130000000  0.5229750000000  0.5000560000000 1.0
C      1  0.5022040000000  0.3481750000000  0.4995150000000 1.0
C      1  0.5017530000000  0.6161480000000  0.5046580000000 1.0
C      1  0.5045480000000  0.4931420000000  0.5004660000000 1.0
C      1  0.5007700000000  0.4384530000000  0.5186310000000 1.0
END
