TITL C-2441159-1093-773 0.271334717096683 125000 -10401.006341003 0 0 118 (C1) n - 1
REM
REM in /home/bkarasulu/work/CARBON/AIRSS/Generating-Clusters/ReaxFF-fromJPCA2015/Units_Real/with-SteepDescent/Higher-Symm
REM
REM
REM
REM
REM
REM ./C.cell (1df0a924f5614ab8850e4351716899ee)
REM
REM compiler GCC version 9.2.1 20190827 (Red Hat 9.2.1-1)
REM options -cpp -mtune=generic -march=x86-64 -g -O0 -fpre-include=/usr/include/finclude/math-vector-fortran.h
REM seed -1614705841 1612431425 -1018670429 -1535407763 1637173020 -709715355 -1764150707 2067733042 1476276863 -1041626117 -1761755570 -1381541106 1501723041 -1896541090 -300966075 1292102899 -1261321051 -1819717897 -1480387474 -1162584633 524890061 1258677424 379151252 -710346300 1147345821 -236583006 898084319 552303383 362079910 1745901455 -231504625 -1609216413 98251319
REM
CELL 1.54180   50.00000   50.00000   50.00000   90.00000   90.00000   90.00000
LATT -1
SFAC C  
C      1  0.5001450000000  0.5204390000000  0.5903490000000 1.0
C      1  0.5212290000000  0.5908660000000  0.5005970000000 1.0
C      1  0.5912150000000  0.5007300000000  0.5210740000000 1.0
C      1  0.4983660000000  0.5204930000000  0.4072690000000 1.0
C      1  0.4994450000000  0.4785290000000  0.5900570000000 1.0
C      1  0.5004520000000  0.4785310000000  0.4075360000000 1.0
C      1  0.4784770000000  0.5903560000000  0.4986950000000 1.0
C      1  0.4780050000000  0.4077320000000  0.4999060000000 1.0
C      1  0.5206520000000  0.4085450000000  0.4997100000000 1.0
C      1  0.4091630000000  0.4984740000000  0.4779670000000 1.0
C      1  0.4084990000000  0.4988040000000  0.5208570000000 1.0
C      1  0.5905470000000  0.4991150000000  0.4785700000000 1.0
C      1  0.5912820000000  0.5208400000000  0.5005300000000 1.0
C      1  0.4999090000000  0.5898110000000  0.5205870000000 1.0
C      1  0.5211970000000  0.5009940000000  0.5905710000000 1.0
C      1  0.4084990000000  0.5196230000000  0.4986250000000 1.0
C      1  0.5904610000000  0.4784260000000  0.4996500000000 1.0
C      1  0.4075760000000  0.4776820000000  0.5017480000000 1.0
C      1  0.4986480000000  0.5909510000000  0.4776880000000 1.0
C      1  0.5002970000000  0.4080400000000  0.4786960000000 1.0
C      1  0.4976450000000  0.4074690000000  0.5208330000000 1.0
C      1  0.4784480000000  0.4999900000000  0.4071840000000 1.0
C      1  0.5203370000000  0.4991260000000  0.4075830000000 1.0
C      1  0.4780010000000  0.4985180000000  0.5898570000000 1.0
C      1  0.4239940000000  0.4532640000000  0.5077880000000 1.0
C      1  0.4548960000000  0.5080150000000  0.4244880000000 1.0
C      1  0.5081480000000  0.4243260000000  0.4547530000000 1.0
C      1  0.5744580000000  0.4540490000000  0.4898550000000 1.0
C      1  0.5744660000000  0.5446530000000  0.5070910000000 1.0
C      1  0.4245000000000  0.5436470000000  0.4911440000000 1.0
C      1  0.5449910000000  0.5070190000000  0.5745560000000 1.0
C      1  0.5443460000000  0.4905510000000  0.4247050000000 1.0
C      1  0.4540510000000  0.4925880000000  0.5739750000000 1.0
C      1  0.4918330000000  0.4239290000000  0.5448970000000 1.0
C      1  0.4897320000000  0.5738680000000  0.4538890000000 1.0
C      1  0.5060430000000  0.5736930000000  0.5447890000000 1.0
C      1  0.5076080000000  0.4546730000000  0.4248940000000 1.0
C      1  0.4249110000000  0.5096870000000  0.4533160000000 1.0
C      1  0.4539880000000  0.4244600000000  0.5069220000000 1.0
C      1  0.4916970000000  0.4536240000000  0.5741470000000 1.0
C      1  0.5061530000000  0.5448370000000  0.5738460000000 1.0
C      1  0.4900670000000  0.5442420000000  0.4245520000000 1.0
C      1  0.5743980000000  0.5067090000000  0.5450280000000 1.0
C      1  0.4251320000000  0.4925770000000  0.5449670000000 1.0
C      1  0.5742360000000  0.4897860000000  0.4540170000000 1.0
C      1  0.5451500000000  0.4243660000000  0.4895750000000 1.0
C      1  0.4547840000000  0.5740030000000  0.4911600000000 1.0
C      1  0.5454620000000  0.5742580000000  0.5077610000000 1.0
C      1  0.4909950000000  0.4711850000000  0.5220020000000 1.0
C      1  0.4727530000000  0.5270700000000  0.4909510000000 1.0
C      1  0.5252900000000  0.4714380000000  0.4909190000000 1.0
C      1  0.4763600000000  0.4914850000000  0.5292360000000 1.0
C      1  0.4705440000000  0.4766990000000  0.5078040000000 1.0
C      1  0.5219830000000  0.5282830000000  0.5080630000000 1.0
C      1  0.5259120000000  0.4911800000000  0.4747100000000 1.0
C      1  0.4724450000000  0.5077230000000  0.4750030000000 1.0
C      1  0.5270560000000  0.5074780000000  0.5224880000000 1.0
C      1  0.5082200000000  0.4731130000000  0.4733400000000 1.0
C      1  0.5070950000000  0.5229310000000  0.5290690000000 1.0
C      1  0.4913520000000  0.5259580000000  0.4746400000000 1.0
C      1  0.5175270000000  0.5454450000000  0.5464140000000 1.0
C      1  0.5461390000000  0.5465510000000  0.5178330000000 1.0
C      1  0.4531080000000  0.4811460000000  0.5462300000000 1.0
C      1  0.5453970000000  0.4821510000000  0.4535080000000 1.0
C      1  0.4823050000000  0.5450570000000  0.4534740000000 1.0
C      1  0.4814300000000  0.4521790000000  0.5459510000000 1.0
C      1  0.5162420000000  0.4534630000000  0.4534680000000 1.0
C      1  0.4530770000000  0.5458320000000  0.4820580000000 1.0
C      1  0.4520000000000  0.4524230000000  0.5176760000000 1.0
C      1  0.5460590000000  0.4527640000000  0.4812150000000 1.0
C      1  0.5463150000000  0.5171830000000  0.5458990000000 1.0
C      1  0.4536890000000  0.5163740000000  0.4532200000000 1.0
C      1  0.4462960000000  0.5179970000000  0.5174460000000 1.0
C      1  0.4807250000000  0.5529780000000  0.5177690000000 1.0
C      1  0.5211240000000  0.4421180000000  0.5192510000000 1.0
C      1  0.5555260000000  0.5180250000000  0.4800690000000 1.0
C      1  0.5559270000000  0.4781290000000  0.5184880000000 1.0
C      1  0.4800450000000  0.5186710000000  0.5566630000000 1.0
C      1  0.5184900000000  0.5579590000000  0.4791130000000 1.0
C      1  0.5198880000000  0.5196060000000  0.4438580000000 1.0
C      1  0.5176170000000  0.4803340000000  0.5545540000000 1.0
C      1  0.4803370000000  0.4452600000000  0.4804790000000 1.0
C      1  0.4400290000000  0.4812970000000  0.4784250000000 1.0
C      1  0.4793990000000  0.4795050000000  0.4451570000000 1.0
C      1  0.5468420000000  0.4779190000000  0.5472380000000 1.0
C      1  0.5495990000000  0.5218670000000  0.4511210000000 1.0
C      1  0.4514590000000  0.5208630000000  0.5475880000000 1.0
C      1  0.5224020000000  0.5487180000000  0.4490860000000 1.0
C      1  0.4494830000000  0.4763740000000  0.4496810000000 1.0
C      1  0.5207380000000  0.4513440000000  0.5469010000000 1.0
C      1  0.4779060000000  0.5470300000000  0.5476370000000 1.0
C      1  0.5479110000000  0.4508810000000  0.5213510000000 1.0
C      1  0.5457280000000  0.5472920000000  0.4783750000000 1.0
C      1  0.4508490000000  0.5480600000000  0.5220050000000 1.0
C      1  0.4508910000000  0.4522620000000  0.4783680000000 1.0
C      1  0.4762010000000  0.4488640000000  0.4509060000000 1.0
C      1  0.5675220000000  0.5071790000000  0.4313040000000 1.0
C      1  0.4325830000000  0.5131430000000  0.5657570000000 1.0
C      1  0.5673340000000  0.4315500000000  0.5074790000000 1.0
C      1  0.4315890000000  0.5669200000000  0.5080610000000 1.0
C      1  0.5655250000000  0.5653400000000  0.4872400000000 1.0
C      1  0.5652180000000  0.4861110000000  0.5656010000000 1.0
C      1  0.5124160000000  0.4333870000000  0.5655510000000 1.0
C      1  0.5072110000000  0.5671440000000  0.4311370000000 1.0
C      1  0.4332050000000  0.4329150000000  0.4871270000000 1.0
C      1  0.4311600000000  0.4918260000000  0.4308340000000 1.0
C      1  0.4914790000000  0.4310910000000  0.4314590000000 1.0
C      1  0.4857030000000  0.5660430000000  0.5659450000000 1.0
C      1  0.4523430000000  0.4951320000000  0.4992690000000 1.0
C      1  0.4999540000000  0.4496500000000  0.5022600000000 1.0
C      1  0.5036280000000  0.5460220000000  0.4993930000000 1.0
C      1  0.5508970000000  0.4998420000000  0.5011560000000 1.0
C      1  0.4980810000000  0.4997100000000  0.5466200000000 1.0
C      1  0.4992630000000  0.4998230000000  0.4445430000000 1.0
C      1  0.4470540000000  0.4467160000000  0.4516060000000 1.0
C      1  0.4500330000000  0.5487770000000  0.5542440000000 1.0
C      1  0.5481960000000  0.4503300000000  0.5544860000000 1.0
C      1  0.5517360000000  0.5514840000000  0.4516870000000 1.0
END
