TITL C-2441164-471-475 0.00797958468053307 125000 -10168.9897017704 0 0 72 (C1) n - 1
REM
REM in /home/bkarasulu/work/CARBON/AIRSS/Generating-Clusters/ReaxFF-fromJPCA2015/Units_Real/with-SteepDescent/Higher-Symm
REM
REM
REM
REM
REM
REM ./C.cell (1df0a924f5614ab8850e4351716899ee)
REM
REM compiler GCC version 9.2.1 20190827 (Red Hat 9.2.1-1)
REM options -cpp -mtune=generic -march=x86-64 -g -O0 -fpre-include=/usr/include/finclude/math-vector-fortran.h
REM seed -203934014 -423613164 621263441 1609549203 -887741657 -1721322849 1362907349 866875720 30376637 -2083589091 1857489175 223125011 -616799672 19735215 312574686 -1711850038 -966650713 673537886 -326278843 -956172793 -1300313565 1143478105 295628203 -607419034 -608296154 398753763 -209930062 840055281 -1678765545 434752520 2119214529 -2107224083 -1971645371
REM
CELL 1.54180   50.00000   50.00000   50.00000   90.00000   90.00000   90.00000
LATT -1
SFAC C  
C      1  0.5685090000000  0.5198460000000  0.5314610000000 1.0
C      1  0.5641330000000  0.4677600000000  0.5063980000000 1.0
C      1  0.5690530000000  0.5206870000000  0.4655180000000 1.0
C      1  0.4321810000000  0.4790290000000  0.5372050000000 1.0
C      1  0.4315790000000  0.5414340000000  0.4999180000000 1.0
C      1  0.4308110000000  0.4788070000000  0.4648210000000 1.0
C      1  0.5455260000000  0.5611980000000  0.5214950000000 1.0
C      1  0.5462270000000  0.4514270000000  0.5420910000000 1.0
C      1  0.5458860000000  0.4878540000000  0.4370470000000 1.0
C      1  0.4554410000000  0.4378340000000  0.5216230000000 1.0
C      1  0.4552240000000  0.5494460000000  0.5427560000000 1.0
C      1  0.4544330000000  0.5121120000000  0.4363200000000 1.0
C      1  0.4815070000000  0.4322510000000  0.5092150000000 1.0
C      1  0.4801780000000  0.5256230000000  0.4358680000000 1.0
C      1  0.4820080000000  0.5430200000000  0.5537070000000 1.0
C      1  0.5193390000000  0.5673970000000  0.5098780000000 1.0
C      1  0.5200930000000  0.4745630000000  0.4357110000000 1.0
C      1  0.5187980000000  0.4570590000000  0.5532300000000 1.0
C      1  0.5481360000000  0.4416610000000  0.4528490000000 1.0
C      1  0.5508530000000  0.5644870000000  0.4739990000000 1.0
C      1  0.5499550000000  0.4911400000000  0.5711760000000 1.0
C      1  0.4519170000000  0.5582660000000  0.4528060000000 1.0
C      1  0.4490090000000  0.4343720000000  0.4742600000000 1.0
C      1  0.4489730000000  0.5097990000000  0.5704320000000 1.0
C      1  0.5578350000000  0.5272740000000  0.4919980000000 1.0
C      1  0.5582480000000  0.4904050000000  0.5263940000000 1.0
C      1  0.5539680000000  0.4782540000000  0.4812340000000 1.0
C      1  0.4431000000000  0.4718110000000  0.4906880000000 1.0
C      1  0.4434860000000  0.5053080000000  0.5297730000000 1.0
C      1  0.4445080000000  0.5225800000000  0.4808540000000 1.0
C      1  0.4872860000000  0.5217860000000  0.5726140000000 1.0
C      1  0.4880490000000  0.4265670000000  0.4815560000000 1.0
C      1  0.4778200000000  0.5542430000000  0.4414200000000 1.0
C      1  0.5126590000000  0.4777770000000  0.5721820000000 1.0
C      1  0.5123490000000  0.5733850000000  0.4824510000000 1.0
C      1  0.5224280000000  0.4460010000000  0.4412990000000 1.0
C      1  0.5248910000000  0.5044670000000  0.5742080000000 1.0
C      1  0.5239970000000  0.4327410000000  0.4689500000000 1.0
C      1  0.5262180000000  0.5607050000000  0.4601020000000 1.0
C      1  0.4740560000000  0.4958720000000  0.5731400000000 1.0
C      1  0.4759770000000  0.5669140000000  0.4691010000000 1.0
C      1  0.4732530000000  0.4392430000000  0.4598840000000 1.0
C      1  0.5465870000000  0.5162730000000  0.4453560000000 1.0
C      1  0.5465520000000  0.5379550000000  0.5401990000000 1.0
C      1  0.5466580000000  0.4454730000000  0.5134260000000 1.0
C      1  0.4532160000000  0.4836990000000  0.4446030000000 1.0
C      1  0.4548910000000  0.4592010000000  0.5419130000000 1.0
C      1  0.4542080000000  0.5557500000000  0.5141630000000 1.0
C      1  0.4722020000000  0.5058900000000  0.5165080000000 1.0
C      1  0.4724120000000  0.4824690000000  0.4970990000000 1.0
C      1  0.4721770000000  0.5106190000000  0.4869730000000 1.0
C      1  0.5263350000000  0.4939440000000  0.5161730000000 1.0
C      1  0.5270420000000  0.5174580000000  0.4977930000000 1.0
C      1  0.5262410000000  0.4893820000000  0.4866010000000 1.0
C      1  0.5223340000000  0.4442020000000  0.4963900000000 1.0
C      1  0.5226360000000  0.5309940000000  0.4525650000000 1.0
C      1  0.5214560000000  0.5258790000000  0.5509260000000 1.0
C      1  0.4781700000000  0.5557130000000  0.4965760000000 1.0
C      1  0.4769540000000  0.4688430000000  0.4517480000000 1.0
C      1  0.4788470000000  0.4733880000000  0.5509970000000 1.0
C      1  0.4980580000000  0.5153930000000  0.4573590000000 1.0
C      1  0.4978600000000  0.5276380000000  0.5328330000000 1.0
C      1  0.4974850000000  0.4576840000000  0.5075340000000 1.0
C      1  0.5012730000000  0.4847730000000  0.4565430000000 1.0
C      1  0.5026440000000  0.4722160000000  0.5322600000000 1.0
C      1  0.5029190000000  0.5419650000000  0.5080460000000 1.0
C      1  0.4376770000000  0.4428860000000  0.4987280000000 1.0
C      1  0.4400530000000  0.5313600000000  0.4530560000000 1.0
C      1  0.4380870000000  0.5269230000000  0.5506340000000 1.0
C      1  0.5629290000000  0.5568120000000  0.4983260000000 1.0
C      1  0.5599590000000  0.4685730000000  0.4543410000000 1.0
C      1  0.5622400000000  0.4742400000000  0.5527000000000 1.0
END
