TITL C-2441154-10-1272 0.0403324445480667 125000 -14448.3570981068 0 0 102 (C1) n - 1
REM
REM in /home/bkarasulu/work/CARBON/AIRSS/Generating-Clusters/ReaxFF-fromJPCA2015/Units_Real/with-SteepDescent/Higher-Symm
REM
REM
REM
REM
REM
REM ./C.cell (1df0a924f5614ab8850e4351716899ee)
REM
REM compiler GCC version 9.2.1 20190827 (Red Hat 9.2.1-1)
REM options -cpp -mtune=generic -march=x86-64 -g -O0 -fpre-include=/usr/include/finclude/math-vector-fortran.h
REM seed -1629435753 -1420434689 -540855542 332232561 1732110680 -513328070 -1264047139 618131548 -794857957 1672584201 -1146986217 -1247571786 61437174 864640297 190779341 591793595 -842767794 254682768 234528138 -1662438206 -1968322619 -1098559269 1399886746 -327259413 -1191416251 -301900824 462428484 -2140324504 146344995 1941559465 -1499262365 -1378053740 -1399811052
REM
CELL 1.54180   50.00000   50.00000   50.00000   90.00000   90.00000   90.00000
LATT -1
SFAC C  
C      1  0.5810620000000  0.4995960000000  0.5422310000000 1.0
C      1  0.5449950000000  0.5011380000000  0.5771190000000 1.0
C      1  0.4959480000000  0.5011290000000  0.5915140000000 1.0
C      1  0.4485750000000  0.5012660000000  0.5728910000000 1.0
C      1  0.4152580000000  0.4995020000000  0.5340040000000 1.0
C      1  0.4115070000000  0.5004160000000  0.4821510000000 1.0
C      1  0.4352140000000  0.4995540000000  0.4363730000000 1.0
C      1  0.4793580000000  0.5016320000000  0.4125180000000 1.0
C      1  0.5307390000000  0.5006600000000  0.4146570000000 1.0
C      1  0.5710550000000  0.5008910000000  0.4440100000000 1.0
C      1  0.5890960000000  0.5005770000000  0.4907170000000 1.0
C      1  0.5071540000000  0.4635360000000  0.4277630000000 1.0
C      1  0.5468170000000  0.4587100000000  0.4394530000000 1.0
C      1  0.5710330000000  0.4592920000000  0.4744740000000 1.0
C      1  0.5744160000000  0.4586420000000  0.5173340000000 1.0
C      1  0.5500270000000  0.4625050000000  0.5525170000000 1.0
C      1  0.5149810000000  0.4583280000000  0.5756410000000 1.0
C      1  0.4748710000000  0.4672460000000  0.5638850000000 1.0
C      1  0.4377440000000  0.4580050000000  0.5453930000000 1.0
C      1  0.4284150000000  0.4637020000000  0.5037920000000 1.0
C      1  0.4337500000000  0.4582730000000  0.4619370000000 1.0
C      1  0.4656250000000  0.4585270000000  0.4317060000000 1.0
C      1  0.4409350000000  0.4709630000000  0.4375850000000 1.0
C      1  0.4825490000000  0.4730240000000  0.4154870000000 1.0
C      1  0.5329890000000  0.4719360000000  0.4190780000000 1.0
C      1  0.5688400000000  0.4720080000000  0.4494090000000 1.0
C      1  0.5848490000000  0.4723720000000  0.4943980000000 1.0
C      1  0.5759450000000  0.4713540000000  0.5423090000000 1.0
C      1  0.5394490000000  0.4724960000000  0.5771780000000 1.0
C      1  0.4936110000000  0.4730100000000  0.5858800000000 1.0
C      1  0.4468830000000  0.4729870000000  0.5676880000000 1.0
C      1  0.4182170000000  0.4711680000000  0.5303960000000 1.0
C      1  0.4157390000000  0.4719790000000  0.4792080000000 1.0
C      1  0.4894640000000  0.5326160000000  0.5624120000000 1.0
C      1  0.4471090000000  0.5351670000000  0.5412440000000 1.0
C      1  0.4343270000000  0.5339220000000  0.5162270000000 1.0
C      1  0.4412510000000  0.5343650000000  0.4698890000000 1.0
C      1  0.4634310000000  0.5330130000000  0.4491750000000 1.0
C      1  0.5030520000000  0.5360950000000  0.4376160000000 1.0
C      1  0.5344130000000  0.5380820000000  0.4415740000000 1.0
C      1  0.5539700000000  0.5310580000000  0.4684780000000 1.0
C      1  0.5712500000000  0.5337570000000  0.5158100000000 1.0
C      1  0.5523110000000  0.5352420000000  0.5373600000000 1.0
C      1  0.5189220000000  0.5355820000000  0.5623740000000 1.0
C      1  0.5056050000000  0.4421690000000  0.4492990000000 1.0
C      1  0.5326530000000  0.4426860000000  0.4590400000000 1.0
C      1  0.5491120000000  0.4430190000000  0.4830820000000 1.0
C      1  0.5503730000000  0.4421370000000  0.5123660000000 1.0
C      1  0.5348750000000  0.4408380000000  0.5364340000000 1.0
C      1  0.5097260000000  0.4409650000000  0.5507400000000 1.0
C      1  0.4815370000000  0.4411650000000  0.5455880000000 1.0
C      1  0.4578800000000  0.4408620000000  0.5292740000000 1.0
C      1  0.4503270000000  0.4404050000000  0.5012680000000 1.0
C      1  0.4558560000000  0.4417610000000  0.4733120000000 1.0
C      1  0.4772950000000  0.4423360000000  0.4527260000000 1.0
C      1  0.4509110000000  0.5554320000000  0.4362790000000 1.0
C      1  0.4912180000000  0.5632840000000  0.4393100000000 1.0
C      1  0.5362060000000  0.5667060000000  0.4370230000000 1.0
C      1  0.5691880000000  0.5555950000000  0.4733380000000 1.0
C      1  0.5766790000000  0.5564610000000  0.5012890000000 1.0
C      1  0.5529440000000  0.5643340000000  0.5325990000000 1.0
C      1  0.5284710000000  0.5633050000000  0.5638400000000 1.0
C      1  0.4755540000000  0.5583740000000  0.5688190000000 1.0
C      1  0.4516140000000  0.5623130000000  0.5516530000000 1.0
C      1  0.4276830000000  0.5617010000000  0.5118580000000 1.0
C      1  0.4331880000000  0.5598780000000  0.4831030000000 1.0
C      1  0.4234680000000  0.5136370000000  0.4594050000000 1.0
C      1  0.4567640000000  0.5156420000000  0.4255370000000 1.0
C      1  0.5043430000000  0.5156680000000  0.4170470000000 1.0
C      1  0.5504960000000  0.5150270000000  0.4287910000000 1.0
C      1  0.5800320000000  0.5160730000000  0.4670450000000 1.0
C      1  0.5871530000000  0.5120790000000  0.5165680000000 1.0
C      1  0.5612660000000  0.5146890000000  0.5567700000000 1.0
C      1  0.5210310000000  0.5156790000000  0.5844480000000 1.0
C      1  0.4736810000000  0.5153450000000  0.5801360000000 1.0
C      1  0.4323720000000  0.5136820000000  0.5532300000000 1.0
C      1  0.4158380000000  0.5127790000000  0.5086700000000 1.0
C      1  0.5064950000000  0.4959600000000  0.5342040000000 1.0
C      1  0.4806130000000  0.4908070000000  0.5449100000000 1.0
C      1  0.4683090000000  0.4957450000000  0.5196990000000 1.0
C      1  0.4487450000000  0.4879040000000  0.5019890000000 1.0
C      1  0.4636070000000  0.4937760000000  0.4794190000000 1.0
C      1  0.4823350000000  0.4928260000000  0.4647660000000 1.0
C      1  0.5060570000000  0.4889750000000  0.4518170000000 1.0
C      1  0.5240850000000  0.4967050000000  0.4686440000000 1.0
C      1  0.5429850000000  0.5048110000000  0.4862480000000 1.0
C      1  0.5414170000000  0.4956340000000  0.5125590000000 1.0
C      1  0.5341820000000  0.4878680000000  0.5360740000000 1.0
C      1  0.4466510000000  0.5791510000000  0.5266210000000 1.0
C      1  0.4574680000000  0.5875700000000  0.5020780000000 1.0
C      1  0.4522400000000  0.5809060000000  0.4756700000000 1.0
C      1  0.4656500000000  0.5765490000000  0.4477320000000 1.0
C      1  0.5137670000000  0.5809270000000  0.4381600000000 1.0
C      1  0.5347930000000  0.5868720000000  0.4570210000000 1.0
C      1  0.5517600000000  0.5788720000000  0.4789870000000 1.0
C      1  0.5585950000000  0.5780400000000  0.5083980000000 1.0
C      1  0.5385270000000  0.5822830000000  0.5437210000000 1.0
C      1  0.5119270000000  0.5861710000000  0.5578230000000 1.0
C      1  0.4856310000000  0.5808470000000  0.5570290000000 1.0
C      1  0.4986590000000  0.4640650000000  0.5012510000000 1.0
C      1  0.4948420000000  0.4915300000000  0.5064430000000 1.0
C      1  0.5016310000000  0.4401940000000  0.4975330000000 1.0
END
