TITL C-2441168-9922-404 0.0257978186367247 125000 -9030.35858979074 0 0 66 (C1) n - 1
REM
REM in /home/bkarasulu/work/CARBON/AIRSS/Generating-Clusters/ReaxFF-fromJPCA2015/Units_Real/with-SteepDescent/Higher-Symm
REM
REM
REM
REM
REM
REM ./C.cell (1df0a924f5614ab8850e4351716899ee)
REM
REM compiler GCC version 9.2.1 20190827 (Red Hat 9.2.1-1)
REM options -cpp -mtune=generic -march=x86-64 -g -O0 -fpre-include=/usr/include/finclude/math-vector-fortran.h
REM seed 195816498 635387880 -1908717877 2114310232 279939410 -683752661 -1647518871 506123637 -490020011 -2067667282 -1647164658 1905325148 1071606239 1812967789 -1741649301 566764784 1619175341 1205962447 1335588335 -652111840 677505789 1410788087 -156528995 665022749 644257283 -1682713585 1279252266 2063605642 1425107762 232865941 -809371127 1702014101 -446080096
REM
CELL 1.54180   50.00000   50.00000   50.00000   90.00000   90.00000   90.00000
LATT -1
SFAC C  
C      1  0.4265900000000  0.5357820000000  0.5156960000000 1.0
C      1  0.5210900000000  0.4177900000000  0.5395060000000 1.0
C      1  0.5309110000000  0.5167530000000  0.4203190000000 1.0
C      1  0.4177690000000  0.4650940000000  0.4852960000000 1.0
C      1  0.5769870000000  0.4664580000000  0.5149400000000 1.0
C      1  0.5756390000000  0.5299360000000  0.4804830000000 1.0
C      1  0.5055340000000  0.5837830000000  0.4780520000000 1.0
C      1  0.4783080000000  0.5831360000000  0.5384560000000 1.0
C      1  0.4831080000000  0.4274490000000  0.4701570000000 1.0
C      1  0.5361120000000  0.4827660000000  0.5866450000000 1.0
C      1  0.4604440000000  0.4795470000000  0.4149690000000 1.0
C      1  0.4696470000000  0.5172560000000  0.5761780000000 1.0
C      1  0.4204220000000  0.5183340000000  0.5297220000000 1.0
C      1  0.5153880000000  0.5364330000000  0.4200790000000 1.0
C      1  0.5380930000000  0.4174860000000  0.5228520000000 1.0
C      1  0.4230330000000  0.4807610000000  0.4691720000000 1.0
C      1  0.5841670000000  0.5173400000000  0.4633880000000 1.0
C      1  0.5766720000000  0.4824760000000  0.5336460000000 1.0
C      1  0.5163810000000  0.4682630000000  0.5784760000000 1.0
C      1  0.4861960000000  0.5346900000000  0.5694170000000 1.0
C      1  0.4817490000000  0.4670170000000  0.4185980000000 1.0
C      1  0.5310910000000  0.5813590000000  0.4910340000000 1.0
C      1  0.4656500000000  0.4180040000000  0.4846750000000 1.0
C      1  0.4602530000000  0.5856040000000  0.5235530000000 1.0
C      1  0.5614620000000  0.4542010000000  0.4948100000000 1.0
C      1  0.5013410000000  0.5655340000000  0.4577460000000 1.0
C      1  0.4558950000000  0.4950960000000  0.5656260000000 1.0
C      1  0.5586960000000  0.5406770000000  0.5014220000000 1.0
C      1  0.4458850000000  0.5450000000000  0.4980700000000 1.0
C      1  0.4332660000000  0.4543550000000  0.5078130000000 1.0
C      1  0.5010650000000  0.4367670000000  0.5385420000000 1.0
C      1  0.4984060000000  0.4490810000000  0.4618520000000 1.0
C      1  0.5006290000000  0.5668070000000  0.5324710000000 1.0
C      1  0.4562770000000  0.4941980000000  0.4360630000000 1.0
C      1  0.5479620000000  0.4933160000000  0.5692250000000 1.0
C      1  0.5431790000000  0.4950490000000  0.4336620000000 1.0
C      1  0.5648720000000  0.4954180000000  0.4589620000000 1.0
C      1  0.4955510000000  0.4579410000000  0.5613350000000 1.0
C      1  0.4632920000000  0.5700150000000  0.5009190000000 1.0
C      1  0.5587780000000  0.5015130000000  0.5440770000000 1.0
C      1  0.4328630000000  0.4957150000000  0.5420900000000 1.0
C      1  0.4388430000000  0.5013130000000  0.4576670000000 1.0
C      1  0.4980380000000  0.5417820000000  0.4435380000000 1.0
C      1  0.5047560000000  0.4568740000000  0.4328020000000 1.0
C      1  0.5032850000000  0.5415210000000  0.5487590000000 1.0
C      1  0.4543960000000  0.4374400000000  0.4965490000000 1.0
C      1  0.5466760000000  0.5651650000000  0.4966940000000 1.0
C      1  0.5365440000000  0.4359500000000  0.5035150000000 1.0
C      1  0.4632530000000  0.5214900000000  0.4964880000000 1.0
C      1  0.5009850000000  0.4728730000000  0.5057650000000 1.0
C      1  0.5028620000000  0.5192180000000  0.4631120000000 1.0
C      1  0.4611410000000  0.5043340000000  0.4748300000000 1.0
C      1  0.5379870000000  0.5020050000000  0.5221530000000 1.0
C      1  0.5366080000000  0.5209680000000  0.5014540000000 1.0
C      1  0.5117200000000  0.5244510000000  0.4891800000000 1.0
C      1  0.4903510000000  0.5235100000000  0.5067170000000 1.0
C      1  0.4963110000000  0.4735830000000  0.4777380000000 1.0
C      1  0.5111280000000  0.4916350000000  0.5262910000000 1.0
C      1  0.4855450000000  0.4968160000000  0.4638000000000 1.0
C      1  0.4964930000000  0.5159760000000  0.5346770000000 1.0
C      1  0.5085350000000  0.4445660000000  0.5107620000000 1.0
C      1  0.5226430000000  0.4782090000000  0.4307400000000 1.0
C      1  0.4307530000000  0.4797250000000  0.5208440000000 1.0
C      1  0.4934660000000  0.5689860000000  0.5031700000000 1.0
C      1  0.4772570000000  0.4786200000000  0.5646170000000 1.0
C      1  0.5636890000000  0.4753790000000  0.4773620000000 1.0
END
