TITL C-2441165-58-740 0.0898135556691411 125000 -19553.8417164198 0 0 149 (C1) n - 1
REM
REM in /home/bkarasulu/work/CARBON/AIRSS/Generating-Clusters/ReaxFF-fromJPCA2015/Units_Real/with-SteepDescent/Higher-Symm
REM
REM
REM
REM
REM
REM ./C.cell (1df0a924f5614ab8850e4351716899ee)
REM
REM compiler GCC version 9.2.1 20190827 (Red Hat 9.2.1-1)
REM options -cpp -mtune=generic -march=x86-64 -g -O0 -fpre-include=/usr/include/finclude/math-vector-fortran.h
REM seed 162725331 -488121328 659383070 -796994310 431878788 1171377297 1495608927 -759465929 1513210487 -1194353267 -1044071987 -1441815621 -779444660 904678696 -1453066902 89195685 -1545529666 -515381676 -98619491 -313997114 248186890 439071486 168952295 -1767444003 -650183160 -394847989 2045062447 -1910918197 -1808051111 562732808 -973647167 -2111601101 1072876837
REM
CELL 1.54180   50.00000   50.00000   50.00000   90.00000   90.00000   90.00000
LATT -1
SFAC C  
C      1  0.4317940000000  0.4266840000000  0.5230210000000 1.0
C      1  0.5151540000000  0.5425290000000  0.5141480000000 1.0
C      1  0.4505260000000  0.4114990000000  0.5065530000000 1.0
C      1  0.4137230000000  0.4666860000000  0.4849870000000 1.0
C      1  0.5171770000000  0.5049600000000  0.3983120000000 1.0
C      1  0.5468370000000  0.5167630000000  0.4847490000000 1.0
C      1  0.5836520000000  0.4871160000000  0.5514340000000 1.0
C      1  0.5132360000000  0.5917170000000  0.5217940000000 1.0
C      1  0.4608680000000  0.5736590000000  0.5020000000000 1.0
C      1  0.4900780000000  0.5819450000000  0.5374920000000 1.0
C      1  0.4613770000000  0.5731450000000  0.4592290000000 1.0
C      1  0.4075110000000  0.4701120000000  0.5324090000000 1.0
C      1  0.5280020000000  0.4332850000000  0.5659480000000 1.0
C      1  0.3990960000000  0.4949430000000  0.5185430000000 1.0
C      1  0.4822450000000  0.3997510000000  0.4680270000000 1.0
C      1  0.4553470000000  0.4017190000000  0.4801400000000 1.0
C      1  0.4168600000000  0.4622850000000  0.4559830000000 1.0
C      1  0.4695450000000  0.5621350000000  0.4375310000000 1.0
C      1  0.5216570000000  0.5170000000000  0.4994790000000 1.0
C      1  0.5767090000000  0.4403560000000  0.5175970000000 1.0
C      1  0.5139640000000  0.4131110000000  0.5289430000000 1.0
C      1  0.4236250000000  0.5376210000000  0.5166700000000 1.0
C      1  0.4926250000000  0.4648600000000  0.5309430000000 1.0
C      1  0.4148080000000  0.4488800000000  0.5143600000000 1.0
C      1  0.4284200000000  0.5387880000000  0.4411840000000 1.0
C      1  0.4685520000000  0.5430130000000  0.4184770000000 1.0
C      1  0.5038170000000  0.4217700000000  0.5539890000000 1.0
C      1  0.4977210000000  0.4619990000000  0.5907230000000 1.0
C      1  0.5427710000000  0.5425680000000  0.5560640000000 1.0
C      1  0.5349690000000  0.4699440000000  0.4688820000000 1.0
C      1  0.4734590000000  0.4477760000000  0.5815150000000 1.0
C      1  0.4691010000000  0.4335120000000  0.5060530000000 1.0
C      1  0.4187480000000  0.5696530000000  0.5170840000000 1.0
C      1  0.5002770000000  0.5344270000000  0.5981170000000 1.0
C      1  0.5853570000000  0.5563950000000  0.4944400000000 1.0
C      1  0.4342610000000  0.5865370000000  0.5016350000000 1.0
C      1  0.5959150000000  0.5118790000000  0.4743990000000 1.0
C      1  0.4750370000000  0.4279960000000  0.5607400000000 1.0
C      1  0.5160330000000  0.5570490000000  0.4400420000000 1.0
C      1  0.4620490000000  0.4509610000000  0.4815880000000 1.0
C      1  0.5755590000000  0.5149860000000  0.5590920000000 1.0
C      1  0.4847490000000  0.4894570000000  0.4202700000000 1.0
C      1  0.4213850000000  0.4873090000000  0.4412630000000 1.0
C      1  0.4648810000000  0.4543650000000  0.5269970000000 1.0
C      1  0.4472530000000  0.4566720000000  0.4284760000000 1.0
C      1  0.5859380000000  0.4963130000000  0.4521220000000 1.0
C      1  0.4945680000000  0.5059830000000  0.5607780000000 1.0
C      1  0.5478330000000  0.5718540000000  0.5483760000000 1.0
C      1  0.4770000000000  0.5454730000000  0.5471940000000 1.0
C      1  0.4677410000000  0.4663580000000  0.4120070000000 1.0
C      1  0.5408630000000  0.4935430000000  0.5694500000000 1.0
C      1  0.5701640000000  0.4647010000000  0.5660420000000 1.0
C      1  0.4618250000000  0.5116620000000  0.4617140000000 1.0
C      1  0.4880320000000  0.4937810000000  0.5326740000000 1.0
C      1  0.5543500000000  0.4535280000000  0.4390780000000 1.0
C      1  0.5411150000000  0.5714590000000  0.4852170000000 1.0
C      1  0.4654460000000  0.6031840000000  0.5011860000000 1.0
C      1  0.5636550000000  0.5017020000000  0.5010340000000 1.0
C      1  0.5962920000000  0.4850140000000  0.5243340000000 1.0
C      1  0.5523540000000  0.4848620000000  0.5222220000000 1.0
C      1  0.5553640000000  0.4408170000000  0.5576740000000 1.0
C      1  0.5537320000000  0.4294200000000  0.4551490000000 1.0
C      1  0.5388380000000  0.5516580000000  0.4206850000000 1.0
C      1  0.5919440000000  0.5048820000000  0.5028100000000 1.0
C      1  0.4736980000000  0.4156150000000  0.4461120000000 1.0
C      1  0.4874680000000  0.4818190000000  0.4936980000000 1.0
C      1  0.4993910000000  0.4226190000000  0.5048080000000 1.0
C      1  0.4917930000000  0.4489220000000  0.4086200000000 1.0
C      1  0.5141420000000  0.5245450000000  0.5739170000000 1.0
C      1  0.4449790000000  0.5240360000000  0.4215790000000 1.0
C      1  0.4896730000000  0.5352320000000  0.4010430000000 1.0
C      1  0.4516790000000  0.4348620000000  0.5439580000000 1.0
C      1  0.5616800000000  0.4203410000000  0.5019700000000 1.0
C      1  0.4004960000000  0.4927830000000  0.4903190000000 1.0
C      1  0.4460500000000  0.5165460000000  0.5286260000000 1.0
C      1  0.5829400000000  0.5497440000000  0.5233510000000 1.0
C      1  0.4268810000000  0.5342260000000  0.4864650000000 1.0
C      1  0.4939220000000  0.4872370000000  0.6026960000000 1.0
C      1  0.4509470000000  0.4674000000000  0.5837810000000 1.0
C      1  0.5265490000000  0.4693740000000  0.4960780000000 1.0
C      1  0.4831900000000  0.4927160000000  0.4517220000000 1.0
C      1  0.4651760000000  0.5516370000000  0.5777470000000 1.0
C      1  0.4126750000000  0.5146280000000  0.4480180000000 1.0
C      1  0.5031800000000  0.5365300000000  0.4548770000000 1.0
C      1  0.5568990000000  0.5390370000000  0.4698510000000 1.0
C      1  0.4870510000000  0.4645910000000  0.4704220000000 1.0
C      1  0.5667890000000  0.5782310000000  0.4981650000000 1.0
C      1  0.5311270000000  0.4930170000000  0.4483830000000 1.0
C      1  0.5571430000000  0.5564400000000  0.4465630000000 1.0
C      1  0.5755400000000  0.4686650000000  0.4532080000000 1.0
C      1  0.5172850000000  0.5102590000000  0.6008770000000 1.0
C      1  0.4517390000000  0.4256520000000  0.4620310000000 1.0
C      1  0.4635580000000  0.5062260000000  0.5723460000000 1.0
C      1  0.5516160000000  0.4492980000000  0.5301440000000 1.0
C      1  0.4659430000000  0.4897690000000  0.5977140000000 1.0
C      1  0.5258870000000  0.4910740000000  0.5161870000000 1.0
C      1  0.5268200000000  0.5910280000000  0.5529750000000 1.0
C      1  0.5378040000000  0.4988700000000  0.5421040000000 1.0
C      1  0.5490870000000  0.5109940000000  0.5912630000000 1.0
C      1  0.5873570000000  0.4570750000000  0.4778950000000 1.0
C      1  0.4377400000000  0.5566630000000  0.4623070000000 1.0
C      1  0.5134990000000  0.5754900000000  0.5736010000000 1.0
C      1  0.5638210000000  0.5313630000000  0.5373970000000 1.0
C      1  0.5078630000000  0.4058050000000  0.4804650000000 1.0
C      1  0.5208350000000  0.4547220000000  0.4141670000000 1.0
C      1  0.5094880000000  0.4517060000000  0.5100280000000 1.0
C      1  0.5219370000000  0.5883460000000  0.4719910000000 1.0
C      1  0.4903170000000  0.5606780000000  0.5896370000000 1.0
C      1  0.4490310000000  0.5154820000000  0.4873780000000 1.0
C      1  0.4160120000000  0.5112210000000  0.5575440000000 1.0
C      1  0.5096890000000  0.5833670000000  0.4483550000000 1.0
C      1  0.5170620000000  0.4468810000000  0.4639360000000 1.0
C      1  0.4927880000000  0.5215480000000  0.5361270000000 1.0
C      1  0.4675480000000  0.5676250000000  0.5299730000000 1.0
C      1  0.4413350000000  0.4960340000000  0.4244430000000 1.0
C      1  0.4915750000000  0.5502550000000  0.5012400000000 1.0
C      1  0.5485860000000  0.4705630000000  0.5843840000000 1.0
C      1  0.4493330000000  0.4811890000000  0.5581370000000 1.0
C      1  0.4059510000000  0.5168370000000  0.4759890000000 1.0
C      1  0.4484180000000  0.4888400000000  0.5171900000000 1.0
C      1  0.4918110000000  0.4303250000000  0.4294830000000 1.0
C      1  0.4042310000000  0.5203740000000  0.5321170000000 1.0
C      1  0.5396120000000  0.4231640000000  0.5213040000000 1.0
C      1  0.4430440000000  0.5232140000000  0.5574870000000 1.0
C      1  0.4880590000000  0.5070090000000  0.3972130000000 1.0
C      1  0.5610360000000  0.5335660000000  0.5784640000000 1.0
C      1  0.4741530000000  0.5279860000000  0.4975720000000 1.0
C      1  0.5160000000000  0.4838180000000  0.4200080000000 1.0
C      1  0.5181850000000  0.5336290000000  0.4053430000000 1.0
C      1  0.5269860000000  0.5679970000000  0.5101290000000 1.0
C      1  0.4933430000000  0.6027220000000  0.4987980000000 1.0
C      1  0.4432790000000  0.4718790000000  0.4937120000000 1.0
C      1  0.5314050000000  0.4210040000000  0.4738130000000 1.0
C      1  0.4328440000000  0.4415650000000  0.4460170000000 1.0
C      1  0.5075520000000  0.5088670000000  0.4542050000000 1.0
C      1  0.5012280000000  0.5612030000000  0.5515640000000 1.0
C      1  0.5784420000000  0.5116820000000  0.4285970000000 1.0
C      1  0.4767110000000  0.5359800000000  0.4673640000000 1.0
C      1  0.5519370000000  0.5033450000000  0.4292160000000 1.0
C      1  0.5929620000000  0.4617440000000  0.5067650000000 1.0
C      1  0.5853530000000  0.5391090000000  0.4711220000000 1.0
C      1  0.4913370000000  0.5906010000000  0.4712170000000 1.0
C      1  0.5246820000000  0.4544650000000  0.5831200000000 1.0
C      1  0.5707840000000  0.4339830000000  0.4775050000000 1.0
C      1  0.4205770000000  0.4813510000000  0.5572980000000 1.0
C      1  0.5186530000000  0.4363710000000  0.4367930000000 1.0
C      1  0.5570940000000  0.5272080000000  0.4169200000000 1.0
C      1  0.5689580000000  0.5752100000000  0.5274040000000 1.0
C      1  0.4949780000000  0.5089620000000  0.4945810000000 1.0
END
