TITL C-2441160-1326-723 0.055689321792192 125000 -17959.8822406206 0 0 131 (C1) n - 1
REM
REM in /home/bkarasulu/work/CARBON/AIRSS/Generating-Clusters/ReaxFF-fromJPCA2015/Units_Real/with-SteepDescent/Higher-Symm
REM
REM
REM
REM
REM
REM ./C.cell (1df0a924f5614ab8850e4351716899ee)
REM
REM compiler GCC version 9.2.1 20190827 (Red Hat 9.2.1-1)
REM options -cpp -mtune=generic -march=x86-64 -g -O0 -fpre-include=/usr/include/finclude/math-vector-fortran.h
REM seed 1761621182 986082590 -1277116416 -440382264 396071622 -1619693791 1933669645 190158236 -1882525280 442414538 -1428232222 1286593146 -1901442202 -1404362715 -334496438 -1427523445 499735486 1359292152 -414689155 1093690495 -1387817276 197345550 -400969328 1283070119 1113478623 1731962338 1691262547 1591016129 1237050380 -298734781 920238025 61597199 84897772
REM
CELL 1.54180   50.00000   50.00000   50.00000   90.00000   90.00000   90.00000
LATT -1
SFAC C  
C      1  0.4250840000000  0.4730670000000  0.4571750000000 1.0
C      1  0.4252650000000  0.5514690000000  0.4967060000000 1.0
C      1  0.4259250000000  0.4761310000000  0.5445670000000 1.0
C      1  0.5312980000000  0.4974160000000  0.5833730000000 1.0
C      1  0.5319950000000  0.4274520000000  0.4537370000000 1.0
C      1  0.5281600000000  0.5737270000000  0.4654200000000 1.0
C      1  0.4582210000000  0.5152500000000  0.5897770000000 1.0
C      1  0.4583070000000  0.4154140000000  0.4686630000000 1.0
C      1  0.4570160000000  0.5727660000000  0.4397310000000 1.0
C      1  0.4876740000000  0.4888910000000  0.5561760000000 1.0
C      1  0.4843690000000  0.4611070000000  0.4596720000000 1.0
C      1  0.4811160000000  0.5442570000000  0.4715060000000 1.0
C      1  0.5013840000000  0.5243790000000  0.4655040000000 1.0
C      1  0.4898600000000  0.5163260000000  0.5462590000000 1.0
C      1  0.4860570000000  0.4538240000000  0.4873340000000 1.0
C      1  0.5641940000000  0.5244670000000  0.4476460000000 1.0
C      1  0.5543820000000  0.5357690000000  0.5298450000000 1.0
C      1  0.5531800000000  0.4574860000000  0.5164560000000 1.0
C      1  0.4966060000000  0.5438750000000  0.4256420000000 1.0
C      1  0.4972300000000  0.5346390000000  0.5682320000000 1.0
C      1  0.4961820000000  0.4159770000000  0.4993790000000 1.0
C      1  0.5550320000000  0.4541890000000  0.4841880000000 1.0
C      1  0.5667390000000  0.5431300000000  0.4669020000000 1.0
C      1  0.5583840000000  0.5154350000000  0.5500390000000 1.0
C      1  0.5008420000000  0.4959170000000  0.4074490000000 1.0
C      1  0.5026990000000  0.5790560000000  0.5402260000000 1.0
C      1  0.4996750000000  0.4211270000000  0.5489670000000 1.0
C      1  0.3934150000000  0.5143460000000  0.4926220000000 1.0
C      1  0.3937190000000  0.4988010000000  0.5155850000000 1.0
C      1  0.3935860000000  0.4866650000000  0.4910230000000 1.0
C      1  0.4469490000000  0.4246240000000  0.4440450000000 1.0
C      1  0.4451040000000  0.5843150000000  0.4631450000000 1.0
C      1  0.4463050000000  0.4892390000000  0.5900630000000 1.0
C      1  0.5396320000000  0.4763620000000  0.5365300000000 1.0
C      1  0.5384500000000  0.4698290000000  0.4649190000000 1.0
C      1  0.5281760000000  0.5399660000000  0.5104110000000 1.0
C      1  0.5023960000000  0.5501740000000  0.5137070000000 1.0
C      1  0.5027320000000  0.4596750000000  0.5312380000000 1.0
C      1  0.4999180000000  0.5006820000000  0.4493020000000 1.0
C      1  0.4513920000000  0.5685880000000  0.5355090000000 1.0
C      1  0.4524090000000  0.4347570000000  0.5395420000000 1.0
C      1  0.4536790000000  0.4995040000000  0.4256630000000 1.0
C      1  0.5302900000000  0.4986580000000  0.5216980000000 1.0
C      1  0.5090900000000  0.4614570000000  0.5026710000000 1.0
C      1  0.5319140000000  0.5040140000000  0.4826570000000 1.0
C      1  0.4848080000000  0.5708870000000  0.4333270000000 1.0
C      1  0.4864400000000  0.5203940000000  0.5918460000000 1.0
C      1  0.4864030000000  0.4111850000000  0.4727650000000 1.0
C      1  0.5021610000000  0.5064240000000  0.5177960000000 1.0
C      1  0.5191070000000  0.4793420000000  0.4811700000000 1.0
C      1  0.5129070000000  0.5201350000000  0.4914670000000 1.0
C      1  0.5272360000000  0.4125700000000  0.5050380000000 1.0
C      1  0.5238610000000  0.5381410000000  0.4190290000000 1.0
C      1  0.5345740000000  0.5510480000000  0.5718260000000 1.0
C      1  0.4213440000000  0.5244630000000  0.4536300000000 1.0
C      1  0.4234770000000  0.5269820000000  0.5418030000000 1.0
C      1  0.4218530000000  0.4483470000000  0.5018850000000 1.0
C      1  0.4744710000000  0.4833390000000  0.4129670000000 1.0
C      1  0.4760080000000  0.5832510000000  0.5281040000000 1.0
C      1  0.4741990000000  0.4325320000000  0.5588970000000 1.0
C      1  0.5741130000000  0.4476430000000  0.5496240000000 1.0
C      1  0.5718830000000  0.4841850000000  0.4341660000000 1.0
C      1  0.5733720000000  0.5675220000000  0.5114460000000 1.0
C      1  0.4416200000000  0.5454770000000  0.4386080000000 1.0
C      1  0.4431230000000  0.5301590000000  0.5673750000000 1.0
C      1  0.4429290000000  0.4275680000000  0.4922180000000 1.0
C      1  0.5829010000000  0.4598460000000  0.5242990000000 1.0
C      1  0.5844140000000  0.5052710000000  0.4497370000000 1.0
C      1  0.5862710000000  0.5397120000000  0.5164010000000 1.0
C      1  0.4477020000000  0.4777960000000  0.5627700000000 1.0
C      1  0.4396670000000  0.4521380000000  0.4454460000000 1.0
C      1  0.4468040000000  0.5669040000000  0.4868000000000 1.0
C      1  0.5719080000000  0.4578850000000  0.4455020000000 1.0
C      1  0.5619010000000  0.5800000000000  0.4879200000000 1.0
C      1  0.5723170000000  0.4732100000000  0.5629970000000 1.0
C      1  0.5836240000000  0.4552780000000  0.4727780000000 1.0
C      1  0.5880460000000  0.5377400000000  0.4859680000000 1.0
C      1  0.5821790000000  0.4989630000000  0.5497500000000 1.0
C      1  0.5023920000000  0.5831150000000  0.4535160000000 1.0
C      1  0.5045150000000  0.4972860000000  0.5949410000000 1.0
C      1  0.5035030000000  0.4206560000000  0.4509780000000 1.0
C      1  0.4599300000000  0.5343290000000  0.4562700000000 1.0
C      1  0.4634180000000  0.5270560000000  0.5466110000000 1.0
C      1  0.4636050000000  0.4459120000000  0.4994280000000 1.0
C      1  0.4137190000000  0.5004900000000  0.5355780000000 1.0
C      1  0.4129080000000  0.4677860000000  0.4829140000000 1.0
C      1  0.4123920000000  0.5316330000000  0.4800240000000 1.0
C      1  0.5426080000000  0.4754760000000  0.5656440000000 1.0
C      1  0.5421260000000  0.4535020000000  0.4413050000000 1.0
C      1  0.5335980000000  0.5850810000000  0.4919800000000 1.0
C      1  0.4774970000000  0.4547180000000  0.4173470000000 1.0
C      1  0.4790180000000  0.5937340000000  0.5004360000000 1.0
C      1  0.4776030000000  0.4507100000000  0.5814970000000 1.0
C      1  0.5945370000000  0.5117200000000  0.4758950000000 1.0
C      1  0.5918560000000  0.5112840000000  0.5256240000000 1.0
C      1  0.5926120000000  0.4663960000000  0.4976880000000 1.0
C      1  0.4631240000000  0.5267320000000  0.4288200000000 1.0
C      1  0.4592450000000  0.5530860000000  0.5578830000000 1.0
C      1  0.4627850000000  0.4223720000000  0.5154250000000 1.0
C      1  0.5424230000000  0.5218320000000  0.5733570000000 1.0
C      1  0.5418060000000  0.4271800000000  0.4801170000000 1.0
C      1  0.5564690000000  0.5688690000000  0.4619840000000 1.0
C      1  0.5527520000000  0.5569040000000  0.5499170000000 1.0
C      1  0.5465650000000  0.4286990000000  0.5211490000000 1.0
C      1  0.5451900000000  0.5219390000000  0.4271490000000 1.0
C      1  0.5476540000000  0.4336940000000  0.5488690000000 1.0
C      1  0.5460960000000  0.4932110000000  0.4229500000000 1.0
C      1  0.5525520000000  0.5768000000000  0.5299640000000 1.0
C      1  0.4765860000000  0.4729910000000  0.5354210000000 1.0
C      1  0.4767220000000  0.4882200000000  0.4613710000000 1.0
C      1  0.4761100000000  0.5435890000000  0.5013400000000 1.0
C      1  0.5192100000000  0.4431880000000  0.5511300000000 1.0
C      1  0.5185470000000  0.4855820000000  0.4288410000000 1.0
C      1  0.5254970000000  0.5828710000000  0.5202180000000 1.0
C      1  0.4699240000000  0.4917790000000  0.5125910000000 1.0
C      1  0.4625530000000  0.4958840000000  0.4852540000000 1.0
C      1  0.4626130000000  0.5179930000000  0.5027070000000 1.0
C      1  0.4950710000000  0.4457090000000  0.4385970000000 1.0
C      1  0.4891510000000  0.5773830000000  0.4784940000000 1.0
C      1  0.4951990000000  0.4743760000000  0.5791190000000 1.0
C      1  0.4307660000000  0.5492030000000  0.5246290000000 1.0
C      1  0.4304370000000  0.4523430000000  0.5290720000000 1.0
C      1  0.4308770000000  0.4984350000000  0.4447070000000 1.0
C      1  0.5080800000000  0.5609100000000  0.5637510000000 1.0
C      1  0.5044310000000  0.4072010000000  0.5239250000000 1.0
C      1  0.5038800000000  0.5250950000000  0.4047620000000 1.0
C      1  0.4533890000000  0.4430970000000  0.4237120000000 1.0
C      1  0.4522240000000  0.5945710000000  0.4891330000000 1.0
C      1  0.4526050000000  0.4624140000000  0.5850100000000 1.0
C      1  0.5518590000000  0.5049330000000  0.5025860000000 1.0
C      1  0.5846140000000  0.4969230000000  0.5002350000000 1.0
END
