TITL C-2441159-1093-1269 0.000737044226025038 125000 -7438.11051621448 0 0 53 (C1) n - 1
REM
REM in /home/bkarasulu/work/CARBON/AIRSS/Generating-Clusters/ReaxFF-fromJPCA2015/Units_Real/with-SteepDescent/Higher-Symm
REM
REM
REM
REM
REM
REM ./C.cell (1df0a924f5614ab8850e4351716899ee)
REM
REM compiler GCC version 9.2.1 20190827 (Red Hat 9.2.1-1)
REM options -cpp -mtune=generic -march=x86-64 -g -O0 -fpre-include=/usr/include/finclude/math-vector-fortran.h
REM seed 715198501 1816725954 -631042790 1018046043 763156191 -1819899316 1678920073 -707589943 -392194140 -187036677 -644816662 -742412819 1580527922 95571668 -1922885282 -644834094 -1116691472 -1933075914 -1621135555 610771630 1292385854 576305188 1253287804 -1571719293 1678237600 -2061312256 -1778204550 -991731227 -639344686 1433841403 -290809679 1806196178 28785729
REM
CELL 1.54180   50.00000   50.00000   50.00000   90.00000   90.00000   90.00000
LATT -1
SFAC C  
C      1  0.4498020000000  0.4759710000000  0.5034490000000 1.0
C      1  0.4382160000000  0.5211770000000  0.5199620000000 1.0
C      1  0.4349820000000  0.5085350000000  0.4711470000000 1.0
C      1  0.4915710000000  0.4601740000000  0.5302850000000 1.0
C      1  0.4894610000000  0.5345050000000  0.5240290000000 1.0
C      1  0.4893500000000  0.4967790000000  0.4581720000000 1.0
C      1  0.5009130000000  0.4749510000000  0.4365400000000 1.0
C      1  0.5063360000000  0.4576060000000  0.5537560000000 1.0
C      1  0.5027550000000  0.5714920000000  0.5101110000000 1.0
C      1  0.4791860000000  0.4523860000000  0.4735270000000 1.0
C      1  0.4807190000000  0.4982970000000  0.5570480000000 1.0
C      1  0.4786860000000  0.5467060000000  0.4754420000000 1.0
C      1  0.5215770000000  0.4523420000000  0.4781350000000 1.0
C      1  0.5221680000000  0.5031370000000  0.5522490000000 1.0
C      1  0.5208850000000  0.5423770000000  0.4719770000000 1.0
C      1  0.4687290000000  0.4535050000000  0.5398000000000 1.0
C      1  0.4768520000000  0.5602640000000  0.5209530000000 1.0
C      1  0.4726210000000  0.4893820000000  0.4389230000000 1.0
C      1  0.5323820000000  0.5485980000000  0.5459220000000 1.0
C      1  0.5330460000000  0.5161640000000  0.4361360000000 1.0
C      1  0.5347290000000  0.4359820000000  0.5195470000000 1.0
C      1  0.4857730000000  0.4876700000000  0.5280310000000 1.0
C      1  0.4863640000000  0.5266230000000  0.4983300000000 1.0
C      1  0.4820090000000  0.4820230000000  0.4811000000000 1.0
C      1  0.5495850000000  0.5456090000000  0.5087160000000 1.0
C      1  0.5500410000000  0.4849230000000  0.4569570000000 1.0
C      1  0.5517440000000  0.4703050000000  0.5350250000000 1.0
C      1  0.4364290000000  0.4809300000000  0.4777550000000 1.0
C      1  0.4388500000000  0.4923660000000  0.5232750000000 1.0
C      1  0.4376210000000  0.5298210000000  0.4918090000000 1.0
C      1  0.5058290000000  0.4839520000000  0.5643910000000 1.0
C      1  0.5032410000000  0.5627820000000  0.4828280000000 1.0
C      1  0.5031880000000  0.4525330000000  0.4560430000000 1.0
C      1  0.5516540000000  0.5308710000000  0.5331780000000 1.0
C      1  0.5526290000000  0.5136050000000  0.4580180000000 1.0
C      1  0.5536020000000  0.4563440000000  0.5099460000000 1.0
C      1  0.5417190000000  0.4997040000000  0.5302720000000 1.0
C      1  0.5413030000000  0.5250720000000  0.4860040000000 1.0
C      1  0.5415700000000  0.4740100000000  0.4862370000000 1.0
C      1  0.4816140000000  0.5249630000000  0.5677820000000 1.0
C      1  0.4814580000000  0.5435480000000  0.4464170000000 1.0
C      1  0.4834410000000  0.4290630000000  0.4915640000000 1.0
C      1  0.5294780000000  0.5643770000000  0.5211530000000 1.0
C      1  0.5300620000000  0.4871420000000  0.4354900000000 1.0
C      1  0.5331820000000  0.4499120000000  0.5454630000000 1.0
C      1  0.4456020000000  0.4649350000000  0.5301510000000 1.0
C      1  0.4512180000000  0.5464850000000  0.5120280000000 1.0
C      1  0.4472790000000  0.4889880000000  0.4517620000000 1.0
C      1  0.5096510000000  0.4406750000000  0.5030130000000 1.0
C      1  0.5082270000000  0.5291440000000  0.5492600000000 1.0
C      1  0.5075510000000  0.5263610000000  0.4505570000000 1.0
C      1  0.4964330000000  0.4983090000000  0.5019530000000 1.0
C      1  0.5301420000000  0.4991240000000  0.5008490000000 1.0
END
