TITL C-2441162-9305-618 0.0891257186680753 125000 -19689.6101820681 0 0 146 (C1) n - 1
REM
REM in /home/bkarasulu/work/CARBON/AIRSS/Generating-Clusters/ReaxFF-fromJPCA2015/Units_Real/with-SteepDescent/Higher-Symm
REM
REM
REM
REM
REM
REM ./C.cell (1df0a924f5614ab8850e4351716899ee)
REM
REM compiler GCC version 9.2.1 20190827 (Red Hat 9.2.1-1)
REM options -cpp -mtune=generic -march=x86-64 -g -O0 -fpre-include=/usr/include/finclude/math-vector-fortran.h
REM seed 1990709672 -1436322444 278206665 -1564344193 911744325 -399372504 1561042991 1235818911 777813956 -2085163442 1362251339 593538002 625289316 -542763693 -649955372 -1176298057 -1272122327 2045719257 1001368609 786491780 -1625094515 1396507330 -989612789 1538998282 -831353548 2114031853 1865789543 1165404427 -733558904 -1679032885 -1504053605 -852491313 1310303846
REM
CELL 1.54180   50.00000   50.00000   50.00000   90.00000   90.00000   90.00000
LATT -1
SFAC C  
C      1  0.5667750000000  0.5503790000000  0.4739740000000 1.0
C      1  0.5301720000000  0.5768970000000  0.4742650000000 1.0
C      1  0.4864480000000  0.5797510000000  0.4744070000000 1.0
C      1  0.4324170000000  0.5742350000000  0.4841550000000 1.0
C      1  0.4242770000000  0.5206790000000  0.4774510000000 1.0
C      1  0.4043850000000  0.4610560000000  0.4814840000000 1.0
C      1  0.4512140000000  0.4400470000000  0.4791400000000 1.0
C      1  0.4960040000000  0.4188400000000  0.4735300000000 1.0
C      1  0.5416900000000  0.4207280000000  0.4790690000000 1.0
C      1  0.5696580000000  0.4624340000000  0.4752860000000 1.0
C      1  0.5798580000000  0.5072830000000  0.4765380000000 1.0
C      1  0.4930970000000  0.6016860000000  0.4548700000000 1.0
C      1  0.4355700000000  0.5843550000000  0.4542140000000 1.0
C      1  0.4073980000000  0.5297000000000  0.4549480000000 1.0
C      1  0.3970260000000  0.4760480000000  0.4596390000000 1.0
C      1  0.4318480000000  0.4311100000000  0.4576510000000 1.0
C      1  0.4810230000000  0.3999410000000  0.4570670000000 1.0
C      1  0.5362400000000  0.4096600000000  0.4537520000000 1.0
C      1  0.5808840000000  0.4411700000000  0.4585550000000 1.0
C      1  0.5948270000000  0.4970620000000  0.4535950000000 1.0
C      1  0.5916850000000  0.5485340000000  0.4589760000000 1.0
C      1  0.5490830000000  0.5865980000000  0.4527130000000 1.0
C      1  0.5155640000000  0.4503790000000  0.4259000000000 1.0
C      1  0.5354170000000  0.4720260000000  0.4333770000000 1.0
C      1  0.5541240000000  0.4922310000000  0.4244450000000 1.0
C      1  0.5496010000000  0.5230910000000  0.4291090000000 1.0
C      1  0.5312060000000  0.5464590000000  0.4239810000000 1.0
C      1  0.5030430000000  0.5555480000000  0.4286800000000 1.0
C      1  0.4730570000000  0.5500450000000  0.4271170000000 1.0
C      1  0.4540520000000  0.5295280000000  0.4340210000000 1.0
C      1  0.4500560000000  0.4884510000000  0.4300110000000 1.0
C      1  0.4602850000000  0.4613110000000  0.4237140000000 1.0
C      1  0.4878830000000  0.4555150000000  0.4327400000000 1.0
C      1  0.5500920000000  0.5078250000000  0.4764330000000 1.0
C      1  0.5429080000000  0.5323520000000  0.4625530000000 1.0
C      1  0.5209760000000  0.5494790000000  0.4710040000000 1.0
C      1  0.4925580000000  0.5513950000000  0.4645090000000 1.0
C      1  0.4757860000000  0.5315580000000  0.4747100000000 1.0
C      1  0.4544630000000  0.5170870000000  0.4633790000000 1.0
C      1  0.4599400000000  0.4871260000000  0.4574040000000 1.0
C      1  0.4679870000000  0.4622560000000  0.4704620000000 1.0
C      1  0.4949300000000  0.4512500000000  0.4636840000000 1.0
C      1  0.5179850000000  0.4679510000000  0.4735000000000 1.0
C      1  0.5429300000000  0.4766390000000  0.4625280000000 1.0
C      1  0.4789560000000  0.4028620000000  0.5077070000000 1.0
C      1  0.5355440000000  0.4065100000000  0.5064270000000 1.0
C      1  0.5787010000000  0.4415370000000  0.5102810000000 1.0
C      1  0.5969830000000  0.4928700000000  0.5110460000000 1.0
C      1  0.5877560000000  0.5463160000000  0.5103560000000 1.0
C      1  0.5502740000000  0.5860610000000  0.5092920000000 1.0
C      1  0.4979720000000  0.5982920000000  0.5100180000000 1.0
C      1  0.4461200000000  0.5836510000000  0.5078950000000 1.0
C      1  0.4010530000000  0.5363620000000  0.5083210000000 1.0
C      1  0.4099230000000  0.4642470000000  0.5266210000000 1.0
C      1  0.4305130000000  0.4226630000000  0.5112680000000 1.0
C      1  0.4729640000000  0.5907490000000  0.4971890000000 1.0
C      1  0.4142580000000  0.5578730000000  0.4969580000000 1.0
C      1  0.4067810000000  0.5095080000000  0.4974780000000 1.0
C      1  0.4118270000000  0.4458820000000  0.5036000000000 1.0
C      1  0.4548900000000  0.4163250000000  0.4969370000000 1.0
C      1  0.5055800000000  0.4043790000000  0.4961820000000 1.0
C      1  0.5616870000000  0.4199230000000  0.4992700000000 1.0
C      1  0.5853080000000  0.4677840000000  0.4984670000000 1.0
C      1  0.5935660000000  0.5192930000000  0.4990400000000 1.0
C      1  0.5697570000000  0.5664960000000  0.4978630000000 1.0
C      1  0.5249350000000  0.5937270000000  0.4976830000000 1.0
C      1  0.4594160000000  0.4963560000000  0.5128280000000 1.0
C      1  0.4681760000000  0.4725060000000  0.5123640000000 1.0
C      1  0.4851290000000  0.4510760000000  0.5149520000000 1.0
C      1  0.5120350000000  0.4492040000000  0.5133550000000 1.0
C      1  0.5272770000000  0.4660410000000  0.4988970000000 1.0
C      1  0.5327590000000  0.4900910000000  0.5113630000000 1.0
C      1  0.5423590000000  0.5149760000000  0.5033580000000 1.0
C      1  0.5278520000000  0.5390460000000  0.5127550000000 1.0
C      1  0.5023660000000  0.5406020000000  0.5086270000000 1.0
C      1  0.4746120000000  0.5383970000000  0.5017650000000 1.0
C      1  0.4531790000000  0.5218520000000  0.5136990000000 1.0
C      1  0.5729560000000  0.4464800000000  0.5376470000000 1.0
C      1  0.5914220000000  0.4943850000000  0.5383730000000 1.0
C      1  0.5813870000000  0.5442110000000  0.5388160000000 1.0
C      1  0.5387000000000  0.5672700000000  0.5296350000000 1.0
C      1  0.4942750000000  0.5904890000000  0.5371210000000 1.0
C      1  0.4455960000000  0.5746220000000  0.5361310000000 1.0
C      1  0.4256050000000  0.5311720000000  0.5295700000000 1.0
C      1  0.4097300000000  0.4922500000000  0.5216520000000 1.0
C      1  0.4347120000000  0.4299260000000  0.5395100000000 1.0
C      1  0.4815100000000  0.4210320000000  0.5321720000000 1.0
C      1  0.5269080000000  0.4264210000000  0.5296160000000 1.0
C      1  0.4579480000000  0.5760970000000  0.4325710000000 1.0
C      1  0.4261210000000  0.5399570000000  0.4331000000000 1.0
C      1  0.4196340000000  0.4915640000000  0.4271690000000 1.0
C      1  0.4343310000000  0.4479090000000  0.4331710000000 1.0
C      1  0.4675500000000  0.4065520000000  0.4294450000000 1.0
C      1  0.5193020000000  0.4212850000000  0.4334710000000 1.0
C      1  0.5677860000000  0.4343030000000  0.4340580000000 1.0
C      1  0.5806790000000  0.4824180000000  0.4322560000000 1.0
C      1  0.5787620000000  0.5322670000000  0.4234060000000 1.0
C      1  0.5517190000000  0.5671920000000  0.4299140000000 1.0
C      1  0.5058850000000  0.5872190000000  0.4308700000000 1.0
C      1  0.4105680000000  0.4648370000000  0.4338560000000 1.0
C      1  0.4437790000000  0.4096250000000  0.4440180000000 1.0
C      1  0.4963970000000  0.4028610000000  0.4326180000000 1.0
C      1  0.5582650000000  0.4114990000000  0.4425670000000 1.0
C      1  0.5868850000000  0.4538310000000  0.4337270000000 1.0
C      1  0.5991690000000  0.5238020000000  0.4431190000000 1.0
C      1  0.5803340000000  0.5595800000000  0.4332490000000 1.0
C      1  0.5294190000000  0.6003920000000  0.4384260000000 1.0
C      1  0.4685280000000  0.6006160000000  0.4402620000000 1.0
C      1  0.4190600000000  0.5657810000000  0.4411580000000 1.0
C      1  0.3998840000000  0.5032020000000  0.4452420000000 1.0
C      1  0.5167760000000  0.5777630000000  0.5469820000000 1.0
C      1  0.4720370000000  0.5764480000000  0.5466580000000 1.0
C      1  0.4348960000000  0.5506930000000  0.5476110000000 1.0
C      1  0.4206840000000  0.5069030000000  0.5430560000000 1.0
C      1  0.4261700000000  0.4557360000000  0.5481090000000 1.0
C      1  0.4607790000000  0.4284880000000  0.5498890000000 1.0
C      1  0.5054720000000  0.4206270000000  0.5476940000000 1.0
C      1  0.5484170000000  0.4371830000000  0.5467080000000 1.0
C      1  0.5765580000000  0.4724880000000  0.5480760000000 1.0
C      1  0.5803340000000  0.5175520000000  0.5492570000000 1.0
C      1  0.5571170000000  0.5561220000000  0.5478240000000 1.0
C      1  0.5485540000000  0.5120240000000  0.5931550000000 1.0
C      1  0.5352230000000  0.5369730000000  0.5909990000000 1.0
C      1  0.5096760000000  0.5501070000000  0.5928420000000 1.0
C      1  0.4814150000000  0.5466450000000  0.5902980000000 1.0
C      1  0.4579210000000  0.5299770000000  0.5911300000000 1.0
C      1  0.4481670000000  0.5027830000000  0.5879800000000 1.0
C      1  0.4548100000000  0.4750550000000  0.5907540000000 1.0
C      1  0.4760690000000  0.4560020000000  0.5914170000000 1.0
C      1  0.5041590000000  0.4496940000000  0.5915730000000 1.0
C      1  0.5306570000000  0.4602930000000  0.5915560000000 1.0
C      1  0.5463990000000  0.4840480000000  0.5891860000000 1.0
C      1  0.4424170000000  0.4991330000000  0.5591730000000 1.0
C      1  0.4470910000000  0.4721460000000  0.5603200000000 1.0
C      1  0.4739560000000  0.4514420000000  0.5615140000000 1.0
C      1  0.5032500000000  0.4453520000000  0.5622010000000 1.0
C      1  0.5326790000000  0.4574590000000  0.5609180000000 1.0
C      1  0.5498210000000  0.4828510000000  0.5579470000000 1.0
C      1  0.5538250000000  0.5127730000000  0.5611100000000 1.0
C      1  0.5388730000000  0.5382800000000  0.5601430000000 1.0
C      1  0.5110280000000  0.5533210000000  0.5620010000000 1.0
C      1  0.4795770000000  0.5503600000000  0.5581170000000 1.0
C      1  0.4548440000000  0.5360690000000  0.5619120000000 1.0
C      1  0.4981630000000  0.4998060000000  0.5433170000000 1.0
C      1  0.4971330000000  0.5017280000000  0.5671370000000 1.0
C      1  0.5021530000000  0.4959480000000  0.5134050000000 1.0
END
