TITL C-2441158-471-653 0.0310492033539015 125000 -17133.8213958814 0 0 128 (C1) n - 1
REM
REM in /home/bkarasulu/work/CARBON/AIRSS/Generating-Clusters/ReaxFF-fromJPCA2015/Units_Real/with-SteepDescent/Higher-Symm
REM
REM
REM
REM
REM
REM ./C.cell (1df0a924f5614ab8850e4351716899ee)
REM
REM compiler GCC version 9.2.1 20190827 (Red Hat 9.2.1-1)
REM options -cpp -mtune=generic -march=x86-64 -g -O0 -fpre-include=/usr/include/finclude/math-vector-fortran.h
REM seed 855865858 -94361192 1429370248 -1754145472 337326500 1790100824 -1689578403 1329027368 326856821 -1900751260 980414344 179072194 1777851540 1920623374 1726640921 -971243481 -866723831 -2023593385 -823464291 -1198822683 955418990 990517087 799729916 -497656586 -967399392 -2058572204 -1029981713 -1277800709 224172457 390787967 17298365 -10528435 -1471857922
REM
CELL 1.54180   50.00000   50.00000   50.00000   90.00000   90.00000   90.00000
LATT -1
SFAC C  
C      1  0.5197380000000  0.5337190000000  0.5065930000000 1.0
C      1  0.4933740000000  0.5334060000000  0.5208000000000 1.0
C      1  0.4798520000000  0.5335140000000  0.4938950000000 1.0
C      1  0.5055810000000  0.5333010000000  0.4801440000000 1.0
C      1  0.4802100000000  0.4665380000000  0.5078780000000 1.0
C      1  0.5080760000000  0.4659880000000  0.5196430000000 1.0
C      1  0.5199090000000  0.4666340000000  0.4919230000000 1.0
C      1  0.4920780000000  0.4667150000000  0.4799430000000 1.0
C      1  0.4679050000000  0.5073120000000  0.4882770000000 1.0
C      1  0.5107150000000  0.5063520000000  0.4677710000000 1.0
C      1  0.5301960000000  0.5073520000000  0.5111050000000 1.0
C      1  0.4892530000000  0.5056610000000  0.5307560000000 1.0
C      1  0.5290650000000  0.4935290000000  0.4869880000000 1.0
C      1  0.4837790000000  0.4931510000000  0.4684480000000 1.0
C      1  0.4709550000000  0.4930440000000  0.5129480000000 1.0
C      1  0.5157050000000  0.4930950000000  0.5314330000000 1.0
C      1  0.5801690000000  0.5556760000000  0.5223450000000 1.0
C      1  0.4778910000000  0.5564800000000  0.5808570000000 1.0
C      1  0.4199420000000  0.5570330000000  0.4781880000000 1.0
C      1  0.5196350000000  0.5617370000000  0.4223690000000 1.0
C      1  0.4197870000000  0.4441030000000  0.5220050000000 1.0
C      1  0.5218430000000  0.4437850000000  0.5806860000000 1.0
C      1  0.5805860000000  0.4438590000000  0.4780330000000 1.0
C      1  0.4780040000000  0.4435840000000  0.4190360000000 1.0
C      1  0.5061730000000  0.5501060000000  0.5810010000000 1.0
C      1  0.4195560000000  0.5499650000000  0.5058390000000 1.0
C      1  0.4946550000000  0.5514630000000  0.4173060000000 1.0
C      1  0.5801170000000  0.5497170000000  0.4940320000000 1.0
C      1  0.4936310000000  0.4502880000000  0.5805100000000 1.0
C      1  0.5804940000000  0.4501370000000  0.5063950000000 1.0
C      1  0.5062960000000  0.4496000000000  0.4192530000000 1.0
C      1  0.4198370000000  0.4501290000000  0.4936420000000 1.0
C      1  0.5207240000000  0.5565490000000  0.5522290000000 1.0
C      1  0.4483410000000  0.5567680000000  0.5209930000000 1.0
C      1  0.4790380000000  0.5564610000000  0.4471850000000 1.0
C      1  0.5518090000000  0.5575300000000  0.4793650000000 1.0
C      1  0.4795150000000  0.4430440000000  0.5515200000000 1.0
C      1  0.5518710000000  0.4439600000000  0.5208700000000 1.0
C      1  0.5204580000000  0.4429410000000  0.4483480000000 1.0
C      1  0.4483850000000  0.4440070000000  0.4790840000000 1.0
C      1  0.4376260000000  0.5117310000000  0.5754380000000 1.0
C      1  0.4243230000000  0.5113500000000  0.4374650000000 1.0
C      1  0.5626980000000  0.5114460000000  0.4230040000000 1.0
C      1  0.5753930000000  0.5113920000000  0.5624030000000 1.0
C      1  0.5619550000000  0.4884890000000  0.5754330000000 1.0
C      1  0.5755820000000  0.4883480000000  0.4374790000000 1.0
C      1  0.4382670000000  0.4885750000000  0.4246060000000 1.0
C      1  0.4246490000000  0.4884330000000  0.5623450000000 1.0
C      1  0.4763920000000  0.4182570000000  0.5118150000000 1.0
C      1  0.4845430000000  0.4181670000000  0.4782940000000 1.0
C      1  0.5235270000000  0.4182890000000  0.4880830000000 1.0
C      1  0.5156630000000  0.4179770000000  0.5215920000000 1.0
C      1  0.5218040000000  0.5816400000000  0.5145820000000 1.0
C      1  0.5132220000000  0.5814340000000  0.4764370000000 1.0
C      1  0.4779550000000  0.5814960000000  0.4859790000000 1.0
C      1  0.4870630000000  0.5814880000000  0.5226980000000 1.0
C      1  0.4170710000000  0.4923560000000  0.5350590000000 1.0
C      1  0.4653620000000  0.4926740000000  0.4162720000000 1.0
C      1  0.5829210000000  0.4924070000000  0.4647640000000 1.0
C      1  0.5348250000000  0.4924090000000  0.5837680000000 1.0
C      1  0.5828930000000  0.5073770000000  0.5350630000000 1.0
C      1  0.5347240000000  0.5052580000000  0.4187010000000 1.0
C      1  0.4173640000000  0.5072370000000  0.4649690000000 1.0
C      1  0.4648780000000  0.5079040000000  0.5833010000000 1.0
C      1  0.4880440000000  0.5099690000000  0.4088460000000 1.0
C      1  0.5901400000000  0.5094060000000  0.4876540000000 1.0
C      1  0.5120790000000  0.5095620000000  0.5906590000000 1.0
C      1  0.4096590000000  0.5093940000000  0.5122720000000 1.0
C      1  0.5119150000000  0.4899300000000  0.4086020000000 1.0
C      1  0.4097000000000  0.4904250000000  0.4877280000000 1.0
C      1  0.4874980000000  0.4906290000000  0.5903780000000 1.0
C      1  0.5903460000000  0.4905290000000  0.5122450000000 1.0
C      1  0.5631080000000  0.5388410000000  0.5630660000000 1.0
C      1  0.4368030000000  0.5392240000000  0.5633710000000 1.0
C      1  0.4366550000000  0.5386200000000  0.4372120000000 1.0
C      1  0.5618740000000  0.5392120000000  0.4345440000000 1.0
C      1  0.4368910000000  0.4610020000000  0.5629700000000 1.0
C      1  0.5622610000000  0.4615170000000  0.5622580000000 1.0
C      1  0.5635290000000  0.4609160000000  0.4367830000000 1.0
C      1  0.4378980000000  0.4617000000000  0.4379660000000 1.0
C      1  0.4608570000000  0.4214630000000  0.4614160000000 1.0
C      1  0.5388110000000  0.4206780000000  0.4627440000000 1.0
C      1  0.5392790000000  0.4214080000000  0.5385180000000 1.0
C      1  0.4613430000000  0.4207070000000  0.5371870000000 1.0
C      1  0.5382930000000  0.5791680000000  0.4615400000000 1.0
C      1  0.4618370000000  0.5785600000000  0.4617550000000 1.0
C      1  0.4621840000000  0.5792180000000  0.5387400000000 1.0
C      1  0.5385380000000  0.5790300000000  0.5384050000000 1.0
C      1  0.5036600000000  0.5573710000000  0.4638920000000 1.0
C      1  0.5342080000000  0.5580900000000  0.5036030000000 1.0
C      1  0.4961210000000  0.5572940000000  0.5355410000000 1.0
C      1  0.4654470000000  0.5577920000000  0.4965730000000 1.0
C      1  0.4965490000000  0.4412930000000  0.4660700000000 1.0
C      1  0.4646470000000  0.4432160000000  0.5038250000000 1.0
C      1  0.5034660000000  0.4409710000000  0.5338790000000 1.0
C      1  0.5354070000000  0.4432050000000  0.4960860000000 1.0
C      1  0.5020680000000  0.5248480000000  0.5685990000000 1.0
C      1  0.4318090000000  0.5245750000000  0.5021880000000 1.0
C      1  0.4997230000000  0.5263150000000  0.4291960000000 1.0
C      1  0.5677950000000  0.5243120000000  0.4976440000000 1.0
C      1  0.4970860000000  0.4755870000000  0.5679370000000 1.0
C      1  0.5682340000000  0.4754460000000  0.5019930000000 1.0
C      1  0.5027470000000  0.4751060000000  0.4314800000000 1.0
C      1  0.4320250000000  0.4755370000000  0.4978600000000 1.0
C      1  0.4522570000000  0.5335090000000  0.5405320000000 1.0
C      1  0.4601820000000  0.5329920000000  0.4516210000000 1.0
C      1  0.5491200000000  0.5338260000000  0.4588820000000 1.0
C      1  0.5401510000000  0.5331770000000  0.5477310000000 1.0
C      1  0.5462160000000  0.4684390000000  0.5397480000000 1.0
C      1  0.5403170000000  0.4660780000000  0.4518640000000 1.0
C      1  0.4541140000000  0.4687240000000  0.4603560000000 1.0
C      1  0.4599440000000  0.4664090000000  0.5477120000000 1.0
C      1  0.5651910000000  0.5277590000000  0.5253320000000 1.0
C      1  0.4746120000000  0.5287420000000  0.5661390000000 1.0
C      1  0.4364060000000  0.5261640000000  0.4748750000000 1.0
C      1  0.5244540000000  0.5188110000000  0.4439500000000 1.0
C      1  0.4345880000000  0.4718810000000  0.5252220000000 1.0
C      1  0.5247120000000  0.4717890000000  0.5665240000000 1.0
C      1  0.5660090000000  0.4714320000000  0.4746140000000 1.0
C      1  0.4754170000000  0.4716870000000  0.4330460000000 1.0
C      1  0.4554200000000  0.4353470000000  0.4353090000000 1.0
C      1  0.5648800000000  0.4339280000000  0.4558310000000 1.0
C      1  0.5445230000000  0.4351860000000  0.5647340000000 1.0
C      1  0.4353050000000  0.4340830000000  0.5442300000000 1.0
C      1  0.5441110000000  0.5664750000000  0.4341230000000 1.0
C      1  0.4352330000000  0.5654460000000  0.4555730000000 1.0
C      1  0.4556140000000  0.5660230000000  0.5649510000000 1.0
C      1  0.5648330000000  0.5656550000000  0.5446920000000 1.0
END
