TITL C-2441164-471-1226 0.0120623637821995 125000 -8787.18765099983 0 0 63 (C1) n - 1
REM
REM in /home/bkarasulu/work/CARBON/AIRSS/Generating-Clusters/ReaxFF-fromJPCA2015/Units_Real/with-SteepDescent/Higher-Symm
REM
REM
REM
REM
REM
REM ./C.cell (1df0a924f5614ab8850e4351716899ee)
REM
REM compiler GCC version 9.2.1 20190827 (Red Hat 9.2.1-1)
REM options -cpp -mtune=generic -march=x86-64 -g -O0 -fpre-include=/usr/include/finclude/math-vector-fortran.h
REM seed 458922951 1015000918 -1887632435 1849376075 -917824705 -1976534934 1566484351 -1469131293 1886282188 -2127958435 -1279478602 -1603374357 239048897 252827393 -532986179 -139305265 -1781151826 -1614426608 -1580200629 1018527335 -379172673 -1683598134 -744385767 -1724540749 1321188852 162271809 -255051257 1272015548 -1098191205 -1961126872 449804135 -894323390 -1812787985
REM
CELL 1.54180   50.00000   50.00000   50.00000   90.00000   90.00000   90.00000
LATT -1
SFAC C  
C      1  0.4521450000000  0.5412580000000  0.5377460000000 1.0
C      1  0.5467420000000  0.5048070000000  0.5204070000000 1.0
C      1  0.5014370000000  0.4691930000000  0.5682380000000 1.0
C      1  0.4590850000000  0.4904670000000  0.5498690000000 1.0
C      1  0.4831480000000  0.4881910000000  0.4925060000000 1.0
C      1  0.5455850000000  0.5161830000000  0.4395950000000 1.0
C      1  0.5610500000000  0.5424160000000  0.5081720000000 1.0
C      1  0.5465690000000  0.5260020000000  0.4685350000000 1.0
C      1  0.4810780000000  0.4514030000000  0.4626430000000 1.0
C      1  0.4623280000000  0.5591170000000  0.5161350000000 1.0
C      1  0.4405750000000  0.4610360000000  0.5112950000000 1.0
C      1  0.4984290000000  0.5462200000000  0.5389800000000 1.0
C      1  0.5102410000000  0.4791900000000  0.4300450000000 1.0
C      1  0.5192010000000  0.4916470000000  0.4711050000000 1.0
C      1  0.5379210000000  0.4876750000000  0.4342050000000 1.0
C      1  0.5110800000000  0.4797600000000  0.4932490000000 1.0
C      1  0.4963700000000  0.4424400000000  0.5619270000000 1.0
C      1  0.5288540000000  0.4464100000000  0.4617550000000 1.0
C      1  0.5391000000000  0.4775900000000  0.5534790000000 1.0
C      1  0.5635780000000  0.4836090000000  0.4840740000000 1.0
C      1  0.4776450000000  0.4208800000000  0.5070320000000 1.0
C      1  0.5119100000000  0.4768370000000  0.5390030000000 1.0
C      1  0.4662560000000  0.5095270000000  0.4398560000000 1.0
C      1  0.4393650000000  0.5389350000000  0.4779770000000 1.0
C      1  0.4885740000000  0.4590680000000  0.5230550000000 1.0
C      1  0.5599070000000  0.4813890000000  0.5323680000000 1.0
C      1  0.5317620000000  0.4560480000000  0.5044760000000 1.0
C      1  0.4816320000000  0.4434670000000  0.4911720000000 1.0
C      1  0.4747890000000  0.5441050000000  0.5572330000000 1.0
C      1  0.4821370000000  0.5307810000000  0.4752090000000 1.0
C      1  0.4808670000000  0.5156350000000  0.4997850000000 1.0
C      1  0.5405420000000  0.5610210000000  0.5076210000000 1.0
C      1  0.5503320000000  0.5500000000000  0.5341970000000 1.0
C      1  0.5029460000000  0.5274830000000  0.4295260000000 1.0
C      1  0.4259750000000  0.5061310000000  0.5154250000000 1.0
C      1  0.4575120000000  0.5607640000000  0.4868870000000 1.0
C      1  0.5610600000000  0.4671860000000  0.5066410000000 1.0
C      1  0.4622000000000  0.4667730000000  0.5318390000000 1.0
C      1  0.5186960000000  0.5033350000000  0.5268200000000 1.0
C      1  0.5279470000000  0.4315050000000  0.4860720000000 1.0
C      1  0.5224690000000  0.4317430000000  0.5145460000000 1.0
C      1  0.4314340000000  0.5300560000000  0.5030780000000 1.0
C      1  0.4984550000000  0.4338330000000  0.5301540000000 1.0
C      1  0.4798080000000  0.4926320000000  0.5704080000000 1.0
C      1  0.5224350000000  0.5385420000000  0.4774600000000 1.0
C      1  0.5413780000000  0.5052140000000  0.5613030000000 1.0
C      1  0.4688690000000  0.4770890000000  0.4691690000000 1.0
C      1  0.5445200000000  0.5293780000000  0.5528720000000 1.0
C      1  0.4416550000000  0.4888720000000  0.4678630000000 1.0
C      1  0.4986240000000  0.5226210000000  0.5209480000000 1.0
C      1  0.5441210000000  0.4743060000000  0.4609810000000 1.0
C      1  0.5292540000000  0.5335380000000  0.4240940000000 1.0
C      1  0.4850180000000  0.5596720000000  0.4763020000000 1.0
C      1  0.4898520000000  0.5012080000000  0.4259290000000 1.0
C      1  0.4838370000000  0.5197440000000  0.5675590000000 1.0
C      1  0.5104670000000  0.5625980000000  0.4930080000000 1.0
C      1  0.4429020000000  0.5130730000000  0.5387660000000 1.0
C      1  0.5057010000000  0.4548110000000  0.4463180000000 1.0
C      1  0.5608110000000  0.5126040000000  0.4914250000000 1.0
C      1  0.4908680000000  0.5641860000000  0.5175500000000 1.0
C      1  0.4305670000000  0.4835450000000  0.4952630000000 1.0
C      1  0.4447840000000  0.5158530000000  0.4569680000000 1.0
C      1  0.5056000000000  0.5194000000000  0.4618830000000 1.0
END
