TITL C-2441166-8118-1422 0.157221021310386 125000 -25455.3728918694 0 0 197 (C1) n - 1
REM
REM in /home/bkarasulu/work/CARBON/AIRSS/Generating-Clusters/ReaxFF-fromJPCA2015/Units_Real/with-SteepDescent/Higher-Symm
REM
REM
REM
REM
REM
REM ./C.cell (1df0a924f5614ab8850e4351716899ee)
REM
REM compiler GCC version 9.2.1 20190827 (Red Hat 9.2.1-1)
REM options -cpp -mtune=generic -march=x86-64 -g -O0 -fpre-include=/usr/include/finclude/math-vector-fortran.h
REM seed 1936650264 1409309852 2140965581 -1705508705 2013555226 1919780137 -1262051183 2057073891 -1817643814 389036952 -271136777 -477928241 -1467302597 -705143067 -1366990211 -1769197227 -352038330 713299202 -1020134866 50977916 1513585253 -1108240571 -1046956845 1212503936 1281982770 -233460160 -1450308634 -589005393 -461376896 -715193617 -1903129307 -127632392 -997237725
REM
CELL 1.54180   50.00000   50.00000   50.00000   90.00000   90.00000   90.00000
LATT -1
SFAC C  
C      1  0.5491260000000  0.4680420000000  0.5333480000000 1.0
C      1  0.5607230000000  0.4812010000000  0.5833300000000 1.0
C      1  0.4440740000000  0.4706220000000  0.4343300000000 1.0
C      1  0.5358490000000  0.4903130000000  0.4847670000000 1.0
C      1  0.5046370000000  0.5027860000000  0.5286640000000 1.0
C      1  0.4809670000000  0.5443430000000  0.5060700000000 1.0
C      1  0.5036030000000  0.5853840000000  0.5846010000000 1.0
C      1  0.4920600000000  0.5497180000000  0.5373450000000 1.0
C      1  0.6126520000000  0.5271290000000  0.4949940000000 1.0
C      1  0.5494130000000  0.5081950000000  0.5942740000000 1.0
C      1  0.5917550000000  0.5684750000000  0.5073920000000 1.0
C      1  0.4518460000000  0.5181950000000  0.4014830000000 1.0
C      1  0.4844280000000  0.6052450000000  0.4879590000000 1.0
C      1  0.4440120000000  0.4509030000000  0.4137870000000 1.0
C      1  0.4766950000000  0.4484560000000  0.4896990000000 1.0
C      1  0.4848180000000  0.4542080000000  0.5957930000000 1.0
C      1  0.5333430000000  0.4386700000000  0.5712430000000 1.0
C      1  0.4735240000000  0.5762690000000  0.4273710000000 1.0
C      1  0.4848090000000  0.5651880000000  0.5848950000000 1.0
C      1  0.4520130000000  0.4562450000000  0.5059990000000 1.0
C      1  0.4742440000000  0.5003350000000  0.3948750000000 1.0
C      1  0.4885230000000  0.5949460000000  0.5381140000000 1.0
C      1  0.4002550000000  0.5261380000000  0.5179380000000 1.0
C      1  0.5731880000000  0.5402860000000  0.4424240000000 1.0
C      1  0.5517020000000  0.4604940000000  0.5625690000000 1.0
C      1  0.6008130000000  0.4588400000000  0.5007860000000 1.0
C      1  0.4735550000000  0.4205400000000  0.5586790000000 1.0
C      1  0.5284140000000  0.4199680000000  0.5490830000000 1.0
C      1  0.5301460000000  0.5713120000000  0.5319740000000 1.0
C      1  0.5045830000000  0.5350020000000  0.4959260000000 1.0
C      1  0.4953900000000  0.4015930000000  0.4463850000000 1.0
C      1  0.5856730000000  0.4861320000000  0.5689300000000 1.0
C      1  0.5104640000000  0.5046460000000  0.4471780000000 1.0
C      1  0.4509950000000  0.5931930000000  0.4679920000000 1.0
C      1  0.4713520000000  0.5349050000000  0.4163070000000 1.0
C      1  0.4938200000000  0.5145300000000  0.5989810000000 1.0
C      1  0.4137080000000  0.4590240000000  0.5594710000000 1.0
C      1  0.4614490000000  0.5278080000000  0.5603430000000 1.0
C      1  0.4501290000000  0.4292690000000  0.5728940000000 1.0
C      1  0.5199550000000  0.4870710000000  0.5662030000000 1.0
C      1  0.5171830000000  0.4261510000000  0.4810570000000 1.0
C      1  0.4814110000000  0.4147130000000  0.4251940000000 1.0
C      1  0.4259430000000  0.4847330000000  0.5660590000000 1.0
C      1  0.5185130000000  0.4669260000000  0.3879480000000 1.0
C      1  0.3980750000000  0.4992490000000  0.5050380000000 1.0
C      1  0.6077870000000  0.4792690000000  0.4319530000000 1.0
C      1  0.4462350000000  0.4878020000000  0.5174130000000 1.0
C      1  0.4256890000000  0.4164920000000  0.5302930000000 1.0
C      1  0.4986480000000  0.5279090000000  0.4556250000000 1.0
C      1  0.6138640000000  0.5073560000000  0.4728450000000 1.0
C      1  0.4723240000000  0.5226310000000  0.4563470000000 1.0
C      1  0.5801230000000  0.4234230000000  0.5325930000000 1.0
C      1  0.4795490000000  0.4489080000000  0.5485510000000 1.0
C      1  0.6111090000000  0.5075010000000  0.4428220000000 1.0
C      1  0.5214740000000  0.4758670000000  0.5942630000000 1.0
C      1  0.5028760000000  0.4912170000000  0.6106230000000 1.0
C      1  0.4072030000000  0.4358570000000  0.5213010000000 1.0
C      1  0.4626300000000  0.5818630000000  0.5419410000000 1.0
C      1  0.4930620000000  0.5178100000000  0.4082520000000 1.0
C      1  0.4626340000000  0.4879090000000  0.4740840000000 1.0
C      1  0.4080940000000  0.5450520000000  0.4534790000000 1.0
C      1  0.3985790000000  0.4592140000000  0.5364090000000 1.0
C      1  0.5139360000000  0.4435840000000  0.4559000000000 1.0
C      1  0.5447290000000  0.5112970000000  0.5001430000000 1.0
C      1  0.4216110000000  0.5486510000000  0.5294790000000 1.0
C      1  0.4400680000000  0.4547680000000  0.4561870000000 1.0
C      1  0.5428370000000  0.5033590000000  0.5548580000000 1.0
C      1  0.5907440000000  0.4602780000000  0.4463410000000 1.0
C      1  0.4485050000000  0.4048750000000  0.5159650000000 1.0
C      1  0.4372730000000  0.5022720000000  0.4752120000000 1.0
C      1  0.5634430000000  0.4018110000000  0.5256090000000 1.0
C      1  0.4556070000000  0.4496480000000  0.5340780000000 1.0
C      1  0.4728220000000  0.5293650000000  0.6065150000000 1.0
C      1  0.5146900000000  0.4744670000000  0.4953550000000 1.0
C      1  0.5382770000000  0.5076890000000  0.4387750000000 1.0
C      1  0.4097380000000  0.5232880000000  0.5679600000000 1.0
C      1  0.5449640000000  0.4861480000000  0.4587730000000 1.0
C      1  0.3979600000000  0.4829510000000  0.4812060000000 1.0
C      1  0.4467130000000  0.5877420000000  0.5186350000000 1.0
C      1  0.4546340000000  0.5424880000000  0.4665010000000 1.0
C      1  0.5488400000000  0.4980860000000  0.4113570000000 1.0
C      1  0.5264810000000  0.4947570000000  0.3844090000000 1.0
C      1  0.4590350000000  0.5739290000000  0.5700040000000 1.0
C      1  0.4521440000000  0.4038960000000  0.4860460000000 1.0
C      1  0.5822170000000  0.5124800000000  0.4465720000000 1.0
C      1  0.4653710000000  0.5583900000000  0.4866400000000 1.0
C      1  0.5255080000000  0.4461510000000  0.5014500000000 1.0
C      1  0.5317920000000  0.5305490000000  0.5906430000000 1.0
C      1  0.5223230000000  0.5767520000000  0.4327680000000 1.0
C      1  0.6004470000000  0.5515400000000  0.4863370000000 1.0
C      1  0.4963800000000  0.6081900000000  0.5135990000000 1.0
C      1  0.5241480000000  0.6032900000000  0.5064000000000 1.0
C      1  0.5633000000000  0.4178580000000  0.4730290000000 1.0
C      1  0.5302560000000  0.5600690000000  0.4546610000000 1.0
C      1  0.5748080000000  0.5477650000000  0.4694450000000 1.0
C      1  0.4870570000000  0.4546390000000  0.4615270000000 1.0
C      1  0.5954610000000  0.4478130000000  0.5295610000000 1.0
C      1  0.5916050000000  0.5299040000000  0.5435000000000 1.0
C      1  0.5003330000000  0.4355000000000  0.4193070000000 1.0
C      1  0.4945510000000  0.4557820000000  0.4002630000000 1.0
C      1  0.4338250000000  0.5438950000000  0.4426750000000 1.0
C      1  0.5773020000000  0.5153200000000  0.5640300000000 1.0
C      1  0.4446890000000  0.5721250000000  0.4345450000000 1.0
C      1  0.4714530000000  0.4030300000000  0.5351530000000 1.0
C      1  0.4609470000000  0.5248580000000  0.5145900000000 1.0
C      1  0.5872470000000  0.4824310000000  0.4962840000000 1.0
C      1  0.5376940000000  0.4596020000000  0.4508650000000 1.0
C      1  0.5850800000000  0.5019030000000  0.4744890000000 1.0
C      1  0.4311590000000  0.4360620000000  0.5536160000000 1.0
C      1  0.4237100000000  0.5743340000000  0.5103490000000 1.0
C      1  0.5162620000000  0.4375820000000  0.5274790000000 1.0
C      1  0.5949940000000  0.4722190000000  0.5452180000000 1.0
C      1  0.3955380000000  0.5250460000000  0.4627450000000 1.0
C      1  0.4217000000000  0.4419630000000  0.4989530000000 1.0
C      1  0.4377230000000  0.5112890000000  0.5014190000000 1.0
C      1  0.5257370000000  0.5744410000000  0.5716920000000 1.0
C      1  0.5518530000000  0.5911000000000  0.5340410000000 1.0
C      1  0.5669200000000  0.5768780000000  0.5552940000000 1.0
C      1  0.4378040000000  0.5577680000000  0.5790390000000 1.0
C      1  0.4853200000000  0.5584630000000  0.4075660000000 1.0
C      1  0.5379160000000  0.4492770000000  0.4010210000000 1.0
C      1  0.5521580000000  0.5335660000000  0.4831970000000 1.0
C      1  0.5091420000000  0.5949790000000  0.5586390000000 1.0
C      1  0.5333060000000  0.5200270000000  0.3937090000000 1.0
C      1  0.5702190000000  0.5406710000000  0.5787910000000 1.0
C      1  0.5131450000000  0.4479430000000  0.5907790000000 1.0
C      1  0.5342940000000  0.3891520000000  0.5210620000000 1.0
C      1  0.4460720000000  0.4901720000000  0.5461910000000 1.0
C      1  0.5503040000000  0.4193670000000  0.4472350000000 1.0
C      1  0.4581810000000  0.4535050000000  0.5844040000000 1.0
C      1  0.4689840000000  0.4992720000000  0.5594680000000 1.0
C      1  0.5556940000000  0.4169890000000  0.5020320000000 1.0
C      1  0.4289080000000  0.4182890000000  0.4786320000000 1.0
C      1  0.5000550000000  0.5408590000000  0.6020330000000 1.0
C      1  0.4864320000000  0.4892650000000  0.4904660000000 1.0
C      1  0.4310940000000  0.5180460000000  0.4217690000000 1.0
C      1  0.4917960000000  0.4825800000000  0.4407180000000 1.0
C      1  0.5236290000000  0.3939810000000  0.4941790000000 1.0
C      1  0.3961570000000  0.5134310000000  0.5435510000000 1.0
C      1  0.4286390000000  0.5837910000000  0.4565860000000 1.0
C      1  0.4084840000000  0.4998690000000  0.4594420000000 1.0
C      1  0.5967620000000  0.4497410000000  0.4737400000000 1.0
C      1  0.5126410000000  0.5429980000000  0.3983570000000 1.0
C      1  0.4169080000000  0.5505770000000  0.5603080000000 1.0
C      1  0.4266590000000  0.5073040000000  0.5860880000000 1.0
C      1  0.4048810000000  0.4556440000000  0.4796910000000 1.0
C      1  0.5620900000000  0.4514600000000  0.4359310000000 1.0
C      1  0.4230850000000  0.4713570000000  0.4152400000000 1.0
C      1  0.5657370000000  0.5582630000000  0.5146810000000 1.0
C      1  0.4618570000000  0.5873440000000  0.4909410000000 1.0
C      1  0.4167440000000  0.5717950000000  0.4826150000000 1.0
C      1  0.5265480000000  0.4076050000000  0.4374000000000 1.0
C      1  0.5290020000000  0.6069760000000  0.4775770000000 1.0
C      1  0.5214350000000  0.5731360000000  0.5042660000000 1.0
C      1  0.4489530000000  0.5399650000000  0.5363420000000 1.0
C      1  0.5177520000000  0.4780170000000  0.5241960000000 1.0
C      1  0.4769470000000  0.4968130000000  0.5159300000000 1.0
C      1  0.5884920000000  0.4931420000000  0.5230270000000 1.0
C      1  0.4172280000000  0.4383020000000  0.4596970000000 1.0
C      1  0.5056060000000  0.4595250000000  0.5410850000000 1.0
C      1  0.4771640000000  0.4781820000000  0.6104250000000 1.0
C      1  0.4968510000000  0.5008060000000  0.5565890000000 1.0
C      1  0.5447300000000  0.5569950000000  0.4962260000000 1.0
C      1  0.4970200000000  0.5896970000000  0.4397390000000 1.0
C      1  0.4944700000000  0.4136130000000  0.5198100000000 1.0
C      1  0.4625300000000  0.4389500000000  0.4531900000000 1.0
C      1  0.4915360000000  0.4260100000000  0.4934420000000 1.0
C      1  0.3937910000000  0.4870460000000  0.5299660000000 1.0
C      1  0.5220440000000  0.5241880000000  0.5153200000000 1.0
C      1  0.5527980000000  0.5666290000000  0.5783720000000 1.0
C      1  0.5684590000000  0.5885870000000  0.5081190000000 1.0
C      1  0.5130230000000  0.3972290000000  0.5390140000000 1.0
C      1  0.5259680000000  0.4251580000000  0.4143430000000 1.0
C      1  0.4783910000000  0.3937650000000  0.4693130000000 1.0
C      1  0.5559720000000  0.4963190000000  0.5287020000000 1.0
C      1  0.6026720000000  0.5184140000000  0.5208210000000 1.0
C      1  0.5863720000000  0.5544620000000  0.5575700000000 1.0
C      1  0.4556930000000  0.4279690000000  0.4273330000000 1.0
C      1  0.5559630000000  0.5943940000000  0.4773560000000 1.0
C      1  0.4881050000000  0.5439090000000  0.5622710000000 1.0
C      1  0.5447960000000  0.5411700000000  0.4374470000000 1.0
C      1  0.4818610000000  0.4782520000000  0.4119850000000 1.0
C      1  0.5005970000000  0.3861930000000  0.4835600000000 1.0
C      1  0.5335590000000  0.5566020000000  0.4142360000000 1.0
C      1  0.5354440000000  0.5434150000000  0.5361590000000 1.0
C      1  0.5332290000000  0.5297170000000  0.5612290000000 1.0
C      1  0.5088410000000  0.5507260000000  0.4721920000000 1.0
C      1  0.5549060000000  0.4466020000000  0.5050660000000 1.0
C      1  0.4670350000000  0.4964910000000  0.4474250000000 1.0
C      1  0.4526140000000  0.4797820000000  0.5948210000000 1.0
C      1  0.5026050000000  0.6022460000000  0.4655140000000 1.0
C      1  0.4151130000000  0.4965090000000  0.4276230000000 1.0
C      1  0.4043530000000  0.5453520000000  0.4818950000000 1.0
C      1  0.5550960000000  0.4687380000000  0.4122120000000 1.0
C      1  0.4473530000000  0.5303790000000  0.5904750000000 1.0
C      1  0.5673310000000  0.5782770000000  0.4569530000000 1.0
C      1  0.5685090000000  0.4464280000000  0.4787370000000 1.0
END
