TITL C-2441157-2117-6 0.100135921366199 125000 -23239.0430748707 0 0 176 (C1) n - 1
REM
REM in /home/bkarasulu/work/CARBON/AIRSS/Generating-Clusters/ReaxFF-fromJPCA2015/Units_Real/with-SteepDescent/Higher-Symm
REM
REM
REM
REM
REM
REM ./C.cell (1df0a924f5614ab8850e4351716899ee)
REM
REM compiler GCC version 9.2.1 20190827 (Red Hat 9.2.1-1)
REM options -cpp -mtune=generic -march=x86-64 -g -O0 -fpre-include=/usr/include/finclude/math-vector-fortran.h
REM seed -1385341619 1645689319 157521941 1405045138 -1165009678 -2006154903 255213868 -884006799 2095481737 -1723687964 -257125520 -449170684 1194325914 -1854500190 659575153 -450947472 -1576098634 621932582 -1786921501 465627461 1282723533 1189969081 1421513737 1472553305 2097253855 228877660 690255383 1379590222 1964889140 771830820 295642004 1760238737 925482087
REM
CELL 1.54180   50.00000   50.00000   50.00000   90.00000   90.00000   90.00000
LATT -1
SFAC C  
C      1  0.5068750000000  0.5899700000000  0.5627620000000 1.0
C      1  0.4924750000000  0.4064700000000  0.4338890000000 1.0
C      1  0.5053700000000  0.4540030000000  0.5137250000000 1.0
C      1  0.4934550000000  0.5338080000000  0.4968590000000 1.0
C      1  0.4370590000000  0.4494590000000  0.4698950000000 1.0
C      1  0.5729200000000  0.5518280000000  0.5312050000000 1.0
C      1  0.4153280000000  0.4516260000000  0.4885320000000 1.0
C      1  0.5825380000000  0.5509200000000  0.5058940000000 1.0
C      1  0.4967420000000  0.6090010000000  0.4916030000000 1.0
C      1  0.4994800000000  0.3896440000000  0.5070620000000 1.0
C      1  0.5627230000000  0.4993730000000  0.4956660000000 1.0
C      1  0.4402330000000  0.4870930000000  0.5099760000000 1.0
C      1  0.5417320000000  0.4099960000000  0.5506560000000 1.0
C      1  0.4585180000000  0.5909810000000  0.4498760000000 1.0
C      1  0.4879810000000  0.5204830000000  0.4546970000000 1.0
C      1  0.5170850000000  0.4704780000000  0.5509490000000 1.0
C      1  0.5001550000000  0.5799980000000  0.4963460000000 1.0
C      1  0.4979620000000  0.4181270000000  0.5010730000000 1.0
C      1  0.5149640000000  0.4796590000000  0.4304460000000 1.0
C      1  0.4857180000000  0.5179900000000  0.5671750000000 1.0
C      1  0.5862860000000  0.5065010000000  0.5381590000000 1.0
C      1  0.4142560000000  0.4963220000000  0.4617390000000 1.0
C      1  0.4030870000000  0.5233530000000  0.4737970000000 1.0
C      1  0.5995430000000  0.4789370000000  0.5222750000000 1.0
C      1  0.4756120000000  0.4668670000000  0.5998230000000 1.0
C      1  0.5265120000000  0.5348640000000  0.4021740000000 1.0
C      1  0.5425950000000  0.4459200000000  0.4893190000000 1.0
C      1  0.4572210000000  0.5550310000000  0.5097160000000 1.0
C      1  0.4438120000000  0.5066420000000  0.4320840000000 1.0
C      1  0.5560790000000  0.4911940000000  0.5663770000000 1.0
C      1  0.5865410000000  0.4911850000000  0.4340160000000 1.0
C      1  0.4221560000000  0.5072050000000  0.5583310000000 1.0
C      1  0.5375880000000  0.4832560000000  0.4696500000000 1.0
C      1  0.4610540000000  0.5183690000000  0.5306470000000 1.0
C      1  0.5913100000000  0.4981760000000  0.4982170000000 1.0
C      1  0.4098760000000  0.4946710000000  0.5018500000000 1.0
C      1  0.4442110000000  0.4984860000000  0.4708300000000 1.0
C      1  0.5559210000000  0.5006600000000  0.5249390000000 1.0
C      1  0.5552260000000  0.5820270000000  0.4782830000000 1.0
C      1  0.4419370000000  0.4190680000000  0.5241170000000 1.0
C      1  0.5133730000000  0.4304540000000  0.5229610000000 1.0
C      1  0.4927110000000  0.5559720000000  0.4770020000000 1.0
C      1  0.5389370000000  0.4170200000000  0.4746670000000 1.0
C      1  0.4601930000000  0.5860600000000  0.5276540000000 1.0
C      1  0.4697960000000  0.4928860000000  0.5605570000000 1.0
C      1  0.5281220000000  0.5054130000000  0.4360250000000 1.0
C      1  0.4653660000000  0.4516280000000  0.4812040000000 1.0
C      1  0.5315970000000  0.5499660000000  0.5179220000000 1.0
C      1  0.4583320000000  0.5799220000000  0.5562180000000 1.0
C      1  0.5424030000000  0.4206950000000  0.4457010000000 1.0
C      1  0.5918910000000  0.5324790000000  0.5264580000000 1.0
C      1  0.4018040000000  0.4760540000000  0.4813670000000 1.0
C      1  0.5504580000000  0.4328940000000  0.5679200000000 1.0
C      1  0.4480150000000  0.5684950000000  0.4324810000000 1.0
C      1  0.4825350000000  0.4040930000000  0.4611130000000 1.0
C      1  0.5172470000000  0.5964830000000  0.5383690000000 1.0
C      1  0.4053440000000  0.4644830000000  0.5427630000000 1.0
C      1  0.5956220000000  0.5305490000000  0.4581090000000 1.0
C      1  0.4925380000000  0.5553560000000  0.5406030000000 1.0
C      1  0.5086900000000  0.4453700000000  0.4627710000000 1.0
C      1  0.4337390000000  0.5869250000000  0.5114860000000 1.0
C      1  0.5658820000000  0.4126110000000  0.4895950000000 1.0
C      1  0.5396190000000  0.5522880000000  0.4209240000000 1.0
C      1  0.4599300000000  0.4482910000000  0.5800260000000 1.0
C      1  0.4959980000000  0.4296570000000  0.4157460000000 1.0
C      1  0.4959740000000  0.5614800000000  0.5892490000000 1.0
C      1  0.5800790000000  0.4571450000000  0.4658500000000 1.0
C      1  0.4152720000000  0.5407730000000  0.5275520000000 1.0
C      1  0.4847960000000  0.4785490000000  0.4484800000000 1.0
C      1  0.5143790000000  0.5181470000000  0.5490950000000 1.0
C      1  0.5323610000000  0.5875620000000  0.4598230000000 1.0
C      1  0.4665910000000  0.4128160000000  0.5402500000000 1.0
C      1  0.4523830000000  0.5788190000000  0.4716240000000 1.0
C      1  0.5416700000000  0.4256820000000  0.5271060000000 1.0
C      1  0.4823640000000  0.4514100000000  0.4577580000000 1.0
C      1  0.5196950000000  0.5482510000000  0.5438540000000 1.0
C      1  0.5626110000000  0.5341100000000  0.4212170000000 1.0
C      1  0.4338530000000  0.4576200000000  0.5724350000000 1.0
C      1  0.5919310000000  0.4690840000000  0.5531560000000 1.0
C      1  0.4068500000000  0.5323840000000  0.4450030000000 1.0
C      1  0.4893700000000  0.5158030000000  0.4251210000000 1.0
C      1  0.5168640000000  0.4884110000000  0.5735340000000 1.0
C      1  0.4349240000000  0.5250050000000  0.5991840000000 1.0
C      1  0.5653560000000  0.4787250000000  0.4018950000000 1.0
C      1  0.4282690000000  0.5350330000000  0.5744770000000 1.0
C      1  0.5717400000000  0.4671050000000  0.4250750000000 1.0
C      1  0.5198350000000  0.4153390000000  0.4278940000000 1.0
C      1  0.4832480000000  0.5834940000000  0.5742740000000 1.0
C      1  0.3972500000000  0.4900840000000  0.5279100000000 1.0
C      1  0.6032180000000  0.5049060000000  0.4728370000000 1.0
C      1  0.4464500000000  0.4970800000000  0.5414890000000 1.0
C      1  0.5445910000000  0.5084570000000  0.4600560000000 1.0
C      1  0.4712890000000  0.4290160000000  0.4977590000000 1.0
C      1  0.5257680000000  0.5730780000000  0.5036250000000 1.0
C      1  0.5634220000000  0.5549130000000  0.4823910000000 1.0
C      1  0.4337280000000  0.4575830000000  0.5116900000000 1.0
C      1  0.4905000000000  0.3966200000000  0.5337660000000 1.0
C      1  0.5076770000000  0.6024860000000  0.4654600000000 1.0
C      1  0.4141560000000  0.5631490000000  0.5083040000000 1.0
C      1  0.5827660000000  0.4389000000000  0.4894490000000 1.0
C      1  0.4421900000000  0.5352010000000  0.5205970000000 1.0
C      1  0.5586770000000  0.4699370000000  0.4842550000000 1.0
C      1  0.4453480000000  0.5077010000000  0.4036530000000 1.0
C      1  0.5532640000000  0.4959900000000  0.5941920000000 1.0
C      1  0.4720800000000  0.5385270000000  0.5531650000000 1.0
C      1  0.5295890000000  0.4603760000000  0.4480890000000 1.0
C      1  0.5575240000000  0.4467260000000  0.4429240000000 1.0
C      1  0.4471400000000  0.5537380000000  0.5620390000000 1.0
C      1  0.5153940000000  0.4863490000000  0.4869460000000 1.0
C      1  0.4835260000000  0.5110060000000  0.5126910000000 1.0
C      1  0.5245810000000  0.5282500000000  0.6027240000000 1.0
C      1  0.4741530000000  0.4725950000000  0.3970770000000 1.0
C      1  0.5835730000000  0.5203910000000  0.4342870000000 1.0
C      1  0.4141410000000  0.4769980000000  0.5670750000000 1.0
C      1  0.4737410000000  0.4478970000000  0.4135130000000 1.0
C      1  0.5202850000000  0.5517310000000  0.5902040000000 1.0
C      1  0.5368540000000  0.5328050000000  0.4746740000000 1.0
C      1  0.4816190000000  0.4666350000000  0.5205820000000 1.0
C      1  0.5849630000000  0.4943670000000  0.5660780000000 1.0
C      1  0.4150890000000  0.5062980000000  0.4327380000000 1.0
C      1  0.5458470000000  0.5152430000000  0.5526940000000 1.0
C      1  0.4553610000000  0.4840560000000  0.4467280000000 1.0
C      1  0.4168130000000  0.5462740000000  0.4847390000000 1.0
C      1  0.5841500000000  0.4560880000000  0.5124120000000 1.0
C      1  0.4406940000000  0.4333130000000  0.4468200000000 1.0
C      1  0.5567180000000  0.5641310000000  0.5510350000000 1.0
C      1  0.5008760000000  0.4801200000000  0.6090980000000 1.0
C      1  0.5031750000000  0.5181980000000  0.3991790000000 1.0
C      1  0.4681300000000  0.5295760000000  0.4104350000000 1.0
C      1  0.5288110000000  0.4749770000000  0.5957720000000 1.0
C      1  0.4475360000000  0.5475000000000  0.4799370000000 1.0
C      1  0.5589870000000  0.4546790000000  0.5297150000000 1.0
C      1  0.4018010000000  0.5167930000000  0.5388350000000 1.0
C      1  0.5962760000000  0.4812900000000  0.4583220000000 1.0
C      1  0.5431450000000  0.4882400000000  0.3899580000000 1.0
C      1  0.4583140000000  0.5132840000000  0.6077030000000 1.0
C      1  0.4872600000000  0.4742700000000  0.5463850000000 1.0
C      1  0.5102040000000  0.5409290000000  0.4614810000000 1.0
C      1  0.4692460000000  0.4786780000000  0.4966380000000 1.0
C      1  0.5260810000000  0.5262700000000  0.5026940000000 1.0
C      1  0.4546520000000  0.4121400000000  0.4651850000000 1.0
C      1  0.5452290000000  0.5872900000000  0.5351450000000 1.0
C      1  0.4488390000000  0.4116600000000  0.4957350000000 1.0
C      1  0.5475350000000  0.5919110000000  0.5059130000000 1.0
C      1  0.5246850000000  0.5720430000000  0.4359700000000 1.0
C      1  0.4750680000000  0.4287090000000  0.5635550000000 1.0
C      1  0.4264990000000  0.5515750000000  0.4388630000000 1.0
C      1  0.5733460000000  0.4473610000000  0.5564250000000 1.0
C      1  0.4722740000000  0.5565820000000  0.4208370000000 1.0
C      1  0.5255280000000  0.4460860000000  0.5753800000000 1.0
C      1  0.5192740000000  0.4751130000000  0.4000700000000 1.0
C      1  0.4834490000000  0.5267570000000  0.5958510000000 1.0
C      1  0.5804090000000  0.5524650000000  0.4657030000000 1.0
C      1  0.4258560000000  0.4428880000000  0.5352880000000 1.0
C      1  0.5399060000000  0.4770620000000  0.5313080000000 1.0
C      1  0.4590930000000  0.5229690000000  0.4677970000000 1.0
C      1  0.5121380000000  0.4044830000000  0.5533230000000 1.0
C      1  0.4869000000000  0.5936770000000  0.4466830000000 1.0
C      1  0.4599890000000  0.4887280000000  0.5914260000000 1.0
C      1  0.5431540000000  0.5141110000000  0.4105040000000 1.0
C      1  0.4954430000000  0.5730840000000  0.4293130000000 1.0
C      1  0.5034300000000  0.4266110000000  0.5703900000000 1.0
C      1  0.4469740000000  0.4785930000000  0.4040310000000 1.0
C      1  0.5513680000000  0.5256230000000  0.5921140000000 1.0
C      1  0.4831510000000  0.5520730000000  0.5147830000000 1.0
C      1  0.5166230000000  0.4580000000000  0.4900560000000 1.0
C      1  0.5071150000000  0.4004950000000  0.4801480000000 1.0
C      1  0.4908930000000  0.5978850000000  0.5181360000000 1.0
C      1  0.4973180000000  0.4899130000000  0.3897750000000 1.0
C      1  0.5025930000000  0.5090880000000  0.6081150000000 1.0
C      1  0.5112600000000  0.5046270000000  0.5200410000000 1.0
C      1  0.4901540000000  0.4925080000000  0.4742640000000 1.0
C      1  0.5561570000000  0.5391460000000  0.5663080000000 1.0
C      1  0.4481350000000  0.4561860000000  0.4286860000000 1.0
C      1  0.4429640000000  0.5955320000000  0.4864780000000 1.0
C      1  0.5579330000000  0.4048980000000  0.5154070000000 1.0
END
