TITL C-2441158-471-853 0.108312503445947 125000 -25150.9637345942 0 0 184 (C1) n - 1
REM
REM in /home/bkarasulu/work/CARBON/AIRSS/Generating-Clusters/ReaxFF-fromJPCA2015/Units_Real/with-SteepDescent/Higher-Symm
REM
REM
REM
REM
REM
REM ./C.cell (1df0a924f5614ab8850e4351716899ee)
REM
REM compiler GCC version 9.2.1 20190827 (Red Hat 9.2.1-1)
REM options -cpp -mtune=generic -march=x86-64 -g -O0 -fpre-include=/usr/include/finclude/math-vector-fortran.h
REM seed 1189713365 837452565 -934455902 -285678226 191982377 -1517035906 423944612 973000258 -497550988 539096009 -1174191594 -411817759 -1324654478 1208669875 1710032432 -1760579534 104507855 -685912254 682231935 1584549240 -764599767 515652757 -1498431208 -68679808 -2040641968 1794140829 1760092328 1738395916 -261489751 1346759229 -1526260481 -1976468399 -824298917
REM
CELL 1.54180   50.00000   50.00000   50.00000   90.00000   90.00000   90.00000
LATT -1
SFAC C  
C      1  0.5917670000000  0.5222910000000  0.5240660000000 1.0
C      1  0.5758990000000  0.5264960000000  0.5017720000000 1.0
C      1  0.5805290000000  0.5094740000000  0.4817780000000 1.0
C      1  0.5886780000000  0.4831910000000  0.4903370000000 1.0
C      1  0.5816170000000  0.4780580000000  0.5176930000000 1.0
C      1  0.4066110000000  0.5117660000000  0.4898490000000 1.0
C      1  0.4240810000000  0.5292830000000  0.5034730000000 1.0
C      1  0.4090810000000  0.5008650000000  0.5328710000000 1.0
C      1  0.4301110000000  0.4667190000000  0.5132100000000 1.0
C      1  0.4139870000000  0.4926790000000  0.4722620000000 1.0
C      1  0.4449250000000  0.4117630000000  0.4783660000000 1.0
C      1  0.4395660000000  0.4487600000000  0.5689030000000 1.0
C      1  0.4354450000000  0.5534890000000  0.5714830000000 1.0
C      1  0.4474700000000  0.5901780000000  0.4609750000000 1.0
C      1  0.4397850000000  0.5028760000000  0.4075030000000 1.0
C      1  0.5531030000000  0.4035190000000  0.5149090000000 1.0
C      1  0.5505010000000  0.4538030000000  0.4152560000000 1.0
C      1  0.5546240000000  0.5622030000000  0.4357950000000 1.0
C      1  0.5470950000000  0.5795250000000  0.5385620000000 1.0
C      1  0.5515460000000  0.5062130000000  0.5925350000000 1.0
C      1  0.4120420000000  0.5561330000000  0.4699260000000 1.0
C      1  0.4227320000000  0.4868680000000  0.4260120000000 1.0
C      1  0.4084000000000  0.4441830000000  0.4863320000000 1.0
C      1  0.4170290000000  0.4658120000000  0.5632120000000 1.0
C      1  0.4172490000000  0.5501250000000  0.5487330000000 1.0
C      1  0.5907360000000  0.5511970000000  0.5289570000000 1.0
C      1  0.5870220000000  0.4931350000000  0.5647850000000 1.0
C      1  0.5865520000000  0.4363270000000  0.5004090000000 1.0
C      1  0.5849530000000  0.4690600000000  0.4467740000000 1.0
C      1  0.5888710000000  0.5493440000000  0.4588090000000 1.0
C      1  0.5812620000000  0.4649080000000  0.5704630000000 1.0
C      1  0.5844990000000  0.5472430000000  0.5578690000000 1.0
C      1  0.5875500000000  0.5737060000000  0.4720480000000 1.0
C      1  0.5834780000000  0.4904690000000  0.4250150000000 1.0
C      1  0.5873830000000  0.4225280000000  0.4771110000000 1.0
C      1  0.4192130000000  0.4567480000000  0.4313930000000 1.0
C      1  0.4186020000000  0.5504060000000  0.4470230000000 1.0
C      1  0.4182160000000  0.5759660000000  0.5332770000000 1.0
C      1  0.4136930000000  0.4899400000000  0.5818300000000 1.0
C      1  0.4121100000000  0.4269810000000  0.5111590000000 1.0
C      1  0.5191220000000  0.4534180000000  0.4462730000000 1.0
C      1  0.5198630000000  0.4308140000000  0.5375730000000 1.0
C      1  0.5210300000000  0.5196900000000  0.5663090000000 1.0
C      1  0.5274090000000  0.5788640000000  0.5005900000000 1.0
C      1  0.5358160000000  0.5230680000000  0.4142880000000 1.0
C      1  0.4790430000000  0.4468380000000  0.5498090000000 1.0
C      1  0.4836180000000  0.4317410000000  0.4716550000000 1.0
C      1  0.4784680000000  0.5204440000000  0.4301250000000 1.0
C      1  0.4803670000000  0.5665110000000  0.4820430000000 1.0
C      1  0.4762890000000  0.5276960000000  0.5704160000000 1.0
C      1  0.4763090000000  0.4890580000000  0.6115070000000 1.0
C      1  0.4775870000000  0.6009420000000  0.5483180000000 1.0
C      1  0.4732600000000  0.5760830000000  0.4168480000000 1.0
C      1  0.4775540000000  0.4431120000000  0.4007390000000 1.0
C      1  0.4779850000000  0.3909240000000  0.5202290000000 1.0
C      1  0.5237300000000  0.4811460000000  0.3876130000000 1.0
C      1  0.5220700000000  0.6025030000000  0.4544750000000 1.0
C      1  0.5241870000000  0.5751350000000  0.5794030000000 1.0
C      1  0.5218080000000  0.4447730000000  0.6005660000000 1.0
C      1  0.5256740000000  0.3923350000000  0.4818220000000 1.0
C      1  0.4893550000000  0.4782410000000  0.5197920000000 1.0
C      1  0.4927460000000  0.5269930000000  0.5308040000000 1.0
C      1  0.4729010000000  0.5423780000000  0.4926950000000 1.0
C      1  0.4794570000000  0.5065340000000  0.4610620000000 1.0
C      1  0.4836870000000  0.4598060000000  0.4769800000000 1.0
C      1  0.5123130000000  0.4682880000000  0.4693290000000 1.0
C      1  0.5042940000000  0.5140520000000  0.4740470000000 1.0
C      1  0.5310120000000  0.5348780000000  0.5117390000000 1.0
C      1  0.5346290000000  0.5022280000000  0.5482820000000 1.0
C      1  0.5150360000000  0.4703960000000  0.5184400000000 1.0
C      1  0.4360710000000  0.4901260000000  0.5996360000000 1.0
C      1  0.4392570000000  0.5932720000000  0.5409440000000 1.0
C      1  0.4369570000000  0.5696870000000  0.4406860000000 1.0
C      1  0.4391840000000  0.4423100000000  0.4177850000000 1.0
C      1  0.4347150000000  0.4102600000000  0.5053000000000 1.0
C      1  0.5645920000000  0.4808740000000  0.4067290000000 1.0
C      1  0.5662550000000  0.5836740000000  0.4542440000000 1.0
C      1  0.5629520000000  0.5670470000000  0.5610120000000 1.0
C      1  0.5604180000000  0.4566240000000  0.5883280000000 1.0
C      1  0.5644180000000  0.4054400000000  0.4858990000000 1.0
C      1  0.5175410000000  0.5358750000000  0.4867390000000 1.0
C      1  0.5199070000000  0.4954570000000  0.4612820000000 1.0
C      1  0.5283230000000  0.4646920000000  0.4930600000000 1.0
C      1  0.5303690000000  0.4746990000000  0.5422520000000 1.0
C      1  0.5380680000000  0.5089530000000  0.5203640000000 1.0
C      1  0.4767650000000  0.5440200000000  0.5177140000000 1.0
C      1  0.4810940000000  0.5010220000000  0.5359970000000 1.0
C      1  0.4698820000000  0.4650830000000  0.5037300000000 1.0
C      1  0.4734920000000  0.4786140000000  0.4584800000000 1.0
C      1  0.4641660000000  0.5164620000000  0.4840190000000 1.0
C      1  0.5047180000000  0.6028130000000  0.5385490000000 1.0
C      1  0.5009180000000  0.5673990000000  0.4135260000000 1.0
C      1  0.5057840000000  0.4364900000000  0.4051670000000 1.0
C      1  0.5048610000000  0.3899210000000  0.5295630000000 1.0
C      1  0.5047980000000  0.4963940000000  0.6108530000000 1.0
C      1  0.4941510000000  0.6048190000000  0.4621860000000 1.0
C      1  0.4966450000000  0.5692710000000  0.5869820000000 1.0
C      1  0.4936820000000  0.4402450000000  0.5933330000000 1.0
C      1  0.4997000000000  0.3906220000000  0.4706640000000 1.0
C      1  0.4966450000000  0.4923430000000  0.3882900000000 1.0
C      1  0.5804100000000  0.5231410000000  0.4579750000000 1.0
C      1  0.5651430000000  0.4716800000000  0.4676810000000 1.0
C      1  0.5780620000000  0.4513050000000  0.5224520000000 1.0
C      1  0.5848300000000  0.4973560000000  0.5369510000000 1.0
C      1  0.5709320000000  0.5521450000000  0.5082000000000 1.0
C      1  0.4231190000000  0.5269320000000  0.5316840000000 1.0
C      1  0.4284840000000  0.4783410000000  0.5381730000000 1.0
C      1  0.4249610000000  0.4683100000000  0.4864340000000 1.0
C      1  0.4218540000000  0.5031510000000  0.4479510000000 1.0
C      1  0.4242560000000  0.5530860000000  0.4913430000000 1.0
C      1  0.5078310000000  0.4089250000000  0.5518040000000 1.0
C      1  0.5114230000000  0.5195190000000  0.5940680000000 1.0
C      1  0.5075820000000  0.5978490000000  0.5098270000000 1.0
C      1  0.5098550000000  0.5403120000000  0.4058660000000 1.0
C      1  0.5108750000000  0.4289810000000  0.4337060000000 1.0
C      1  0.4945970000000  0.4140480000000  0.4524780000000 1.0
C      1  0.4918920000000  0.5182270000000  0.4031380000000 1.0
C      1  0.4881320000000  0.5942910000000  0.4887110000000 1.0
C      1  0.4910090000000  0.5402000000000  0.5920540000000 1.0
C      1  0.4895870000000  0.4265040000000  0.5671650000000 1.0
C      1  0.4144680000000  0.4394590000000  0.4573820000000 1.0
C      1  0.4168300000000  0.4335440000000  0.5388370000000 1.0
C      1  0.4166590000000  0.5177510000000  0.5756800000000 1.0
C      1  0.4218850000000  0.5782510000000  0.5027790000000 1.0
C      1  0.4176340000000  0.5268230000000  0.4317130000000 1.0
C      1  0.5772190000000  0.4404100000000  0.5510100000000 1.0
C      1  0.5833630000000  0.4378510000000  0.4493530000000 1.0
C      1  0.5823400000000  0.5197670000000  0.4307400000000 1.0
C      1  0.5777780000000  0.5764250000000  0.4998610000000 1.0
C      1  0.5845780000000  0.5223850000000  0.5735660000000 1.0
C      1  0.5572060000000  0.4326430000000  0.4411480000000 1.0
C      1  0.5611030000000  0.4177690000000  0.5483550000000 1.0
C      1  0.5617060000000  0.5313640000000  0.5907930000000 1.0
C      1  0.5529090000000  0.5920240000000  0.4993050000000 1.0
C      1  0.5606170000000  0.5376830000000  0.4220350000000 1.0
C      1  0.4386630000000  0.4247720000000  0.5529770000000 1.0
C      1  0.4382410000000  0.4257730000000  0.4541390000000 1.0
C      1  0.4377530000000  0.5321620000000  0.4112400000000 1.0
C      1  0.4429950000000  0.5922710000000  0.4888550000000 1.0
C      1  0.4356000000000  0.5307690000000  0.5897060000000 1.0
C      1  0.5282020000000  0.4504830000000  0.5562080000000 1.0
C      1  0.5100260000000  0.5404590000000  0.5490770000000 1.0
C      1  0.5234740000000  0.5613440000000  0.4773070000000 1.0
C      1  0.5302500000000  0.4982680000000  0.4357850000000 1.0
C      1  0.5361720000000  0.4375850000000  0.4890910000000 1.0
C      1  0.4677850000000  0.4680560000000  0.4351770000000 1.0
C      1  0.4798590000000  0.5416540000000  0.4422160000000 1.0
C      1  0.4650270000000  0.5636690000000  0.5307510000000 1.0
C      1  0.4714700000000  0.5005900000000  0.5616690000000 1.0
C      1  0.4702990000000  0.4399290000000  0.5230970000000 1.0
C      1  0.5272980000000  0.4533240000000  0.3960660000000 1.0
C      1  0.5280520000000  0.3876610000000  0.5098490000000 1.0
C      1  0.5219920000000  0.4730140000000  0.6096190000000 1.0
C      1  0.5270200000000  0.5921820000000  0.5549780000000 1.0
C      1  0.5195260000000  0.5833580000000  0.4314120000000 1.0
C      1  0.4761800000000  0.4633970000000  0.5961870000000 1.0
C      1  0.4792590000000  0.3908650000000  0.4918780000000 1.0
C      1  0.4766700000000  0.4708580000000  0.3903200000000 1.0
C      1  0.4728160000000  0.5938820000000  0.4435090000000 1.0
C      1  0.4767690000000  0.5823520000000  0.5703820000000 1.0
C      1  0.5416060000000  0.4808090000000  0.5894170000000 1.0
C      1  0.5283560000000  0.5568150000000  0.5309730000000 1.0
C      1  0.5280890000000  0.5612470000000  0.4486550000000 1.0
C      1  0.5340220000000  0.4706080000000  0.4317720000000 1.0
C      1  0.5364390000000  0.4275320000000  0.5142660000000 1.0
C      1  0.4635000000000  0.4853600000000  0.4119000000000 1.0
C      1  0.4813620000000  0.5642790000000  0.4548100000000 1.0
C      1  0.4636810000000  0.5566290000000  0.5593880000000 1.0
C      1  0.4664590000000  0.4678940000000  0.5687080000000 1.0
C      1  0.4709760000000  0.4182790000000  0.4908660000000 1.0
C      1  0.4650500000000  0.4377760000000  0.4278490000000 1.0
C      1  0.4557180000000  0.4128740000000  0.5268990000000 1.0
C      1  0.4540850000000  0.5080340000000  0.6070950000000 1.0
C      1  0.4591910000000  0.5913730000000  0.5207540000000 1.0
C      1  0.4495770000000  0.5592380000000  0.4164400000000 1.0
C      1  0.5409780000000  0.4366940000000  0.5789480000000 1.0
C      1  0.5447980000000  0.4192990000000  0.4674570000000 1.0
C      1  0.5449990000000  0.4994490000000  0.3961570000000 1.0
C      1  0.5470750000000  0.5981560000000  0.4705140000000 1.0
C      1  0.5475610000000  0.5583110000000  0.5829990000000 1.0
C      1  0.4564720000000  0.4947740000000  0.5010940000000 1.0
C      1  0.5460700000000  0.4915020000000  0.4983160000000 1.0
C      1  0.6161830000000  0.4927630000000  0.4846710000000 1.0
C      1  0.3966970000000  0.4948230000000  0.5086390000000 1.0
END
