TITL C-2441163-1170-187 0.113179104792293 125000 -21858.3069681307 0 0 166 (C1) n - 1
REM
REM in /home/bkarasulu/work/CARBON/AIRSS/Generating-Clusters/ReaxFF-fromJPCA2015/Units_Real/with-SteepDescent/Higher-Symm
REM
REM
REM
REM
REM
REM ./C.cell (1df0a924f5614ab8850e4351716899ee)
REM
REM compiler GCC version 9.2.1 20190827 (Red Hat 9.2.1-1)
REM options -cpp -mtune=generic -march=x86-64 -g -O0 -fpre-include=/usr/include/finclude/math-vector-fortran.h
REM seed 893077363 -1849720789 1085978720 -695771497 -1956620658 -2105490793 397829705 -528854033 1546338919 1819667751 -1285787845 741317467 -680600822 -1308379593 -608831915 58198516 -1715581429 374445354 874671612 303234759 -1621814215 -1785082618 -1572594730 656370709 -1793632124 -1923943180 1685267303 431249389 -208245832 -729085136 1916930801 -1587531296 243112042
REM
CELL 1.54180   50.00000   50.00000   50.00000   90.00000   90.00000   90.00000
LATT -1
SFAC C  
C      1  0.5284400000000  0.4391660000000  0.5548010000000 1.0
C      1  0.4316110000000  0.5638860000000  0.5343670000000 1.0
C      1  0.5623290000000  0.5321600000000  0.4341510000000 1.0
C      1  0.4694230000000  0.4404510000000  0.4335140000000 1.0
C      1  0.4671640000000  0.5656620000000  0.5559260000000 1.0
C      1  0.5347940000000  0.5664610000000  0.4409430000000 1.0
C      1  0.5656280000000  0.5532690000000  0.4691310000000 1.0
C      1  0.5666240000000  0.4444450000000  0.5343360000000 1.0
C      1  0.4400790000000  0.4433100000000  0.4709280000000 1.0
C      1  0.4459350000000  0.5265910000000  0.5598930000000 1.0
C      1  0.4411850000000  0.4683610000000  0.4353250000000 1.0
C      1  0.5634120000000  0.4664750000000  0.5690110000000 1.0
C      1  0.5570140000000  0.4912620000000  0.4172230000000 1.0
C      1  0.4918940000000  0.4177480000000  0.5581260000000 1.0
C      1  0.4182840000000  0.5558190000000  0.4926620000000 1.0
C      1  0.4428240000000  0.4925720000000  0.5838060000000 1.0
C      1  0.4433140000000  0.5094050000000  0.4186200000000 1.0
C      1  0.5564030000000  0.5070330000000  0.5864120000000 1.0
C      1  0.5018930000000  0.4181920000000  0.4463020000000 1.0
C      1  0.5077060000000  0.5816180000000  0.5560240000000 1.0
C      1  0.4935020000000  0.5865280000000  0.4418480000000 1.0
C      1  0.5872950000000  0.5611940000000  0.5087410000000 1.0
C      1  0.5847630000000  0.4391690000000  0.4903590000000 1.0
C      1  0.4163770000000  0.4416090000000  0.5071380000000 1.0
C      1  0.5192430000000  0.6056680000000  0.4679210000000 1.0
C      1  0.6005750000000  0.4677000000000  0.5159250000000 1.0
C      1  0.4677510000000  0.5194590000000  0.6032600000000 1.0
C      1  0.4819770000000  0.6047050000000  0.5328480000000 1.0
C      1  0.4822380000000  0.3940760000000  0.4725100000000 1.0
C      1  0.5188060000000  0.3978230000000  0.5336100000000 1.0
C      1  0.3976880000000  0.4679760000000  0.4809440000000 1.0
C      1  0.4044540000000  0.5315270000000  0.5233170000000 1.0
C      1  0.6040460000000  0.5339780000000  0.4826720000000 1.0
C      1  0.5321530000000  0.5230300000000  0.4040350000000 1.0
C      1  0.5311040000000  0.4757530000000  0.5952250000000 1.0
C      1  0.4671990000000  0.4835240000000  0.3965190000000 1.0
C      1  0.4594540000000  0.5634750000000  0.5285900000000 1.0
C      1  0.5664480000000  0.5256560000000  0.4616790000000 1.0
C      1  0.5356210000000  0.4614860000000  0.5699220000000 1.0
C      1  0.5392710000000  0.5647280000000  0.4692810000000 1.0
C      1  0.5400790000000  0.4359170000000  0.5290600000000 1.0
C      1  0.4559330000000  0.4274080000000  0.4517180000000 1.0
C      1  0.4292220000000  0.5360880000000  0.5393370000000 1.0
C      1  0.4379150000000  0.4708330000000  0.4633490000000 1.0
C      1  0.5673110000000  0.4722440000000  0.5414170000000 1.0
C      1  0.4705650000000  0.4667680000000  0.4365030000000 1.0
C      1  0.4728140000000  0.5376340000000  0.5585910000000 1.0
C      1  0.5345260000000  0.5396320000000  0.4301100000000 1.0
C      1  0.5979640000000  0.5072820000000  0.5544440000000 1.0
C      1  0.5080420000000  0.5524500000000  0.5959630000000 1.0
C      1  0.5562240000000  0.6021140000000  0.5069970000000 1.0
C      1  0.4023690000000  0.5096220000000  0.4479030000000 1.0
C      1  0.4038090000000  0.4908890000000  0.5531970000000 1.0
C      1  0.6023710000000  0.4930580000000  0.4439610000000 1.0
C      1  0.4934180000000  0.5547300000000  0.4037070000000 1.0
C      1  0.4898450000000  0.4466420000000  0.5971470000000 1.0
C      1  0.5074350000000  0.4487540000000  0.4040520000000 1.0
C      1  0.4479300000000  0.5965220000000  0.4906150000000 1.0
C      1  0.4445950000000  0.4021250000000  0.5113240000000 1.0
C      1  0.5530010000000  0.4026990000000  0.4920120000000 1.0
C      1  0.5532550000000  0.5074300000000  0.4795670000000 1.0
C      1  0.4923900000000  0.4725900000000  0.5494090000000 1.0
C      1  0.4714020000000  0.5552570000000  0.5026970000000 1.0
C      1  0.4519630000000  0.4913120000000  0.5268560000000 1.0
C      1  0.4407870000000  0.4961940000000  0.4771860000000 1.0
C      1  0.5541120000000  0.4941210000000  0.5261150000000 1.0
C      1  0.4975620000000  0.4750470000000  0.4439920000000 1.0
C      1  0.4977130000000  0.5234450000000  0.5557660000000 1.0
C      1  0.4958150000000  0.5261260000000  0.4503220000000 1.0
C      1  0.5205920000000  0.5585990000000  0.4905260000000 1.0
C      1  0.5266120000000  0.4425200000000  0.5039130000000 1.0
C      1  0.4790640000000  0.4546670000000  0.5030280000000 1.0
C      1  0.4397750000000  0.5626250000000  0.4543210000000 1.0
C      1  0.5691890000000  0.4739110000000  0.4632420000000 1.0
C      1  0.4539960000000  0.4397380000000  0.5695270000000 1.0
C      1  0.5453540000000  0.5709810000000  0.5302110000000 1.0
C      1  0.5509140000000  0.4318480000000  0.4572860000000 1.0
C      1  0.4500470000000  0.4411960000000  0.5407360000000 1.0
C      1  0.4332790000000  0.4555860000000  0.5597750000000 1.0
C      1  0.4405440000000  0.5339570000000  0.4604050000000 1.0
C      1  0.5637120000000  0.5385850000000  0.5555850000000 1.0
C      1  0.5374960000000  0.4463380000000  0.4372970000000 1.0
C      1  0.5432920000000  0.5532090000000  0.5667660000000 1.0
C      1  0.4621940000000  0.5569920000000  0.4361310000000 1.0
C      1  0.4779700000000  0.5040610000000  0.5213770000000 1.0
C      1  0.5086780000000  0.5209640000000  0.4767260000000 1.0
C      1  0.5202910000000  0.4708360000000  0.5025800000000 1.0
C      1  0.5258980000000  0.4988430000000  0.4740210000000 1.0
C      1  0.5269280000000  0.5010070000000  0.5326830000000 1.0
C      1  0.4691480000000  0.5023770000000  0.4812040000000 1.0
C      1  0.5184520000000  0.5268510000000  0.5304900000000 1.0
C      1  0.5096500000000  0.4759740000000  0.4772370000000 1.0
C      1  0.5059610000000  0.4847560000000  0.5251190000000 1.0
C      1  0.4820470000000  0.4767400000000  0.4853440000000 1.0
C      1  0.4746930000000  0.5236950000000  0.5008700000000 1.0
C      1  0.5156340000000  0.5328530000000  0.5013590000000 1.0
C      1  0.4088270000000  0.4727610000000  0.5081380000000 1.0
C      1  0.4729730000000  0.5086030000000  0.4110540000000 1.0
C      1  0.5057750000000  0.4111980000000  0.4754480000000 1.0
C      1  0.5900270000000  0.4669830000000  0.4819720000000 1.0
C      1  0.5899830000000  0.5301420000000  0.5091070000000 1.0
C      1  0.4130990000000  0.5267240000000  0.4939270000000 1.0
C      1  0.5267300000000  0.5065750000000  0.5872880000000 1.0
C      1  0.5269630000000  0.4927420000000  0.4135840000000 1.0
C      1  0.4728010000000  0.4927570000000  0.5909270000000 1.0
C      1  0.4927980000000  0.4113260000000  0.5283570000000 1.0
C      1  0.4921110000000  0.5934590000000  0.4723510000000 1.0
C      1  0.5064220000000  0.5902620000000  0.5266060000000 1.0
C      1  0.4076380000000  0.5632790000000  0.5179300000000 1.0
C      1  0.5622580000000  0.5180630000000  0.4084800000000 1.0
C      1  0.5199060000000  0.4123520000000  0.5587030000000 1.0
C      1  0.5911850000000  0.5593380000000  0.4805710000000 1.0
C      1  0.5907090000000  0.4412830000000  0.5185490000000 1.0
C      1  0.4123280000000  0.4427100000000  0.4789880000000 1.0
C      1  0.4428080000000  0.5208130000000  0.5879190000000 1.0
C      1  0.4417030000000  0.4822230000000  0.4103890000000 1.0
C      1  0.5620790000000  0.4801590000000  0.5946290000000 1.0
C      1  0.4758690000000  0.4052430000000  0.4472600000000 1.0
C      1  0.4806990000000  0.5905460000000  0.5583060000000 1.0
C      1  0.5214780000000  0.5918450000000  0.4421810000000 1.0
C      1  0.5097110000000  0.4440930000000  0.4321640000000 1.0
C      1  0.4334580000000  0.4253940000000  0.5213080000000 1.0
C      1  0.4293030000000  0.5148860000000  0.4434630000000 1.0
C      1  0.4823580000000  0.4430490000000  0.5700420000000 1.0
C      1  0.4893590000000  0.5602960000000  0.4309730000000 1.0
C      1  0.5153220000000  0.5569570000000  0.5693390000000 1.0
C      1  0.5582270000000  0.4289040000000  0.4848500000000 1.0
C      1  0.5658760000000  0.5775370000000  0.5159200000000 1.0
C      1  0.4441990000000  0.5686870000000  0.4835430000000 1.0
C      1  0.5738210000000  0.5166770000000  0.5658440000000 1.0
C      1  0.5761670000000  0.4824370000000  0.4373480000000 1.0
C      1  0.4323300000000  0.4835420000000  0.5576120000000 1.0
C      1  0.4899790000000  0.5359600000000  0.6091820000000 1.0
C      1  0.5350870000000  0.6097620000000  0.4907770000000 1.0
C      1  0.6073820000000  0.4890580000000  0.5332040000000 1.0
C      1  0.5103190000000  0.5367950000000  0.3904920000000 1.0
C      1  0.5093970000000  0.4616270000000  0.6095560000000 1.0
C      1  0.4894830000000  0.4657480000000  0.3901630000000 1.0
C      1  0.4633860000000  0.6096930000000  0.5109010000000 1.0
C      1  0.4645730000000  0.3966200000000  0.4935520000000 1.0
C      1  0.5361280000000  0.3904810000000  0.5115600000000 1.0
C      1  0.3901060000000  0.4902390000000  0.4646990000000 1.0
C      1  0.3901360000000  0.5094730000000  0.5359670000000 1.0
C      1  0.6070710000000  0.5112240000000  0.4660110000000 1.0
C      1  0.3939650000000  0.5173490000000  0.4735640000000 1.0
C      1  0.5169100000000  0.4725090000000  0.3953030000000 1.0
C      1  0.4702370000000  0.3945700000000  0.5204230000000 1.0
C      1  0.6059220000000  0.5172350000000  0.5297780000000 1.0
C      1  0.6104990000000  0.4830150000000  0.4692270000000 1.0
C      1  0.3923380000000  0.4831860000000  0.5291280000000 1.0
C      1  0.4822700000000  0.4704940000000  0.6087400000000 1.0
C      1  0.4828010000000  0.5305760000000  0.3937130000000 1.0
C      1  0.5166650000000  0.5269000000000  0.6056940000000 1.0
C      1  0.5281780000000  0.3942620000000  0.4842770000000 1.0
C      1  0.5300340000000  0.6064680000000  0.5184230000000 1.0
C      1  0.4706200000000  0.6086910000000  0.4834580000000 1.0
C      1  0.4964050000000  0.5727510000000  0.4985690000000 1.0
C      1  0.5652720000000  0.5098860000000  0.5044980000000 1.0
C      1  0.4957260000000  0.4964700000000  0.5669380000000 1.0
C      1  0.4982820000000  0.4322230000000  0.5021730000000 1.0
C      1  0.4313950000000  0.4958900000000  0.5050530000000 1.0
C      1  0.4994000000000  0.5017020000000  0.4319580000000 1.0
C      1  0.4694450000000  0.4644530000000  0.5296610000000 1.0
C      1  0.4677000000000  0.5337910000000  0.4524470000000 1.0
C      1  0.5461620000000  0.4600810000000  0.4598400000000 1.0
C      1  0.5436710000000  0.5446950000000  0.5371580000000 1.0
END
