TITL C-2441159-1093-781 0.0741699978881934 125000 -14589.3634216704 0 0 114 (C1) n - 1
REM
REM in /home/bkarasulu/work/CARBON/AIRSS/Generating-Clusters/ReaxFF-fromJPCA2015/Units_Real/with-SteepDescent/Higher-Symm
REM
REM
REM
REM
REM
REM ./C.cell (1df0a924f5614ab8850e4351716899ee)
REM
REM compiler GCC version 9.2.1 20190827 (Red Hat 9.2.1-1)
REM options -cpp -mtune=generic -march=x86-64 -g -O0 -fpre-include=/usr/include/finclude/math-vector-fortran.h
REM seed 1143723858 1171308665 886603099 -200012693 1019869571 -704862146 -408372508 713552934 -1709848757 432706501 -792310764 837912383 866002534 924354605 -388573880 1249397614 -284888290 -260611982 400727955 1865920033 1254824369 1359083599 -294620004 -1718554251 87317162 -1449533261 1456748888 -193485780 388703320 2029604168 -1441354834 726304495 -2076941630
REM
CELL 1.54180   50.00000   50.00000   50.00000   90.00000   90.00000   90.00000
LATT -1
SFAC C  
C      1  0.4868030000000  0.4270250000000  0.4473560000000 1.0
C      1  0.4268220000000  0.4466450000000  0.4854270000000 1.0
C      1  0.4467650000000  0.4857850000000  0.4267960000000 1.0
C      1  0.5140670000000  0.5733860000000  0.4472890000000 1.0
C      1  0.4860510000000  0.5734190000000  0.5540670000000 1.0
C      1  0.5151700000000  0.4261390000000  0.5545880000000 1.0
C      1  0.5740970000000  0.5544910000000  0.4859600000000 1.0
C      1  0.4275520000000  0.5532930000000  0.5140570000000 1.0
C      1  0.5739470000000  0.4450440000000  0.5159570000000 1.0
C      1  0.5544840000000  0.5143130000000  0.4265310000000 1.0
C      1  0.4468100000000  0.5147120000000  0.5736800000000 1.0
C      1  0.5538270000000  0.4859840000000  0.5742640000000 1.0
C      1  0.4866650000000  0.4259310000000  0.5558180000000 1.0
C      1  0.4265570000000  0.4453070000000  0.5139480000000 1.0
C      1  0.4465700000000  0.4860540000000  0.5736720000000 1.0
C      1  0.5144830000000  0.5739470000000  0.5550010000000 1.0
C      1  0.4849030000000  0.5746890000000  0.4455750000000 1.0
C      1  0.5160050000000  0.4263780000000  0.4446500000000 1.0
C      1  0.5741850000000  0.5540680000000  0.5146710000000 1.0
C      1  0.4255630000000  0.5545250000000  0.4849640000000 1.0
C      1  0.5750450000000  0.4473850000000  0.4867500000000 1.0
C      1  0.5538870000000  0.5149380000000  0.5733250000000 1.0
C      1  0.4470280000000  0.5148760000000  0.4253780000000 1.0
C      1  0.5546310000000  0.4857120000000  0.4265410000000 1.0
C      1  0.4850110000000  0.4449190000000  0.4233340000000 1.0
C      1  0.4455030000000  0.4227700000000  0.4846470000000 1.0
C      1  0.4236290000000  0.4864730000000  0.4456180000000 1.0
C      1  0.5149380000000  0.5552620000000  0.4237460000000 1.0
C      1  0.4856640000000  0.5548640000000  0.5776370000000 1.0
C      1  0.5160620000000  0.4449540000000  0.5780340000000 1.0
C      1  0.5554180000000  0.5775780000000  0.4854870000000 1.0
C      1  0.4457580000000  0.5767550000000  0.5143300000000 1.0
C      1  0.5537310000000  0.4231070000000  0.5135750000000 1.0
C      1  0.5782780000000  0.5144670000000  0.4442590000000 1.0
C      1  0.4232010000000  0.5151600000000  0.5550160000000 1.0
C      1  0.5780700000000  0.4850950000000  0.5565670000000 1.0
C      1  0.4865680000000  0.4452430000000  0.5781380000000 1.0
C      1  0.4446980000000  0.4223630000000  0.5139090000000 1.0
C      1  0.4224950000000  0.4859730000000  0.5565420000000 1.0
C      1  0.5151660000000  0.5551550000000  0.5780230000000 1.0
C      1  0.4856680000000  0.5554390000000  0.4221090000000 1.0
C      1  0.5141670000000  0.4452260000000  0.4215670000000 1.0
C      1  0.5567450000000  0.5782140000000  0.5147110000000 1.0
C      1  0.4440360000000  0.5785250000000  0.4848970000000 1.0
C      1  0.5575760000000  0.4230920000000  0.4842380000000 1.0
C      1  0.5773540000000  0.5146740000000  0.5545790000000 1.0
C      1  0.4228840000000  0.5158670000000  0.4436340000000 1.0
C      1  0.5778790000000  0.4852760000000  0.4451690000000 1.0
C      1  0.4248090000000  0.5286310000000  0.4702550000000 1.0
C      1  0.5245030000000  0.4745630000000  0.4212770000000 1.0
C      1  0.4749670000000  0.4221780000000  0.5253280000000 1.0
C      1  0.5780680000000  0.4757700000000  0.4752920000000 1.0
C      1  0.4212590000000  0.4756120000000  0.5262390000000 1.0
C      1  0.5778320000000  0.5243440000000  0.5255220000000 1.0
C      1  0.4743200000000  0.5275320000000  0.4225980000000 1.0
C      1  0.5255320000000  0.5263700000000  0.5773630000000 1.0
C      1  0.4769050000000  0.4748600000000  0.5766340000000 1.0
C      1  0.5266290000000  0.5790510000000  0.5250060000000 1.0
C      1  0.4702760000000  0.5761530000000  0.4715220000000 1.0
C      1  0.5312290000000  0.4253190000000  0.4707970000000 1.0
C      1  0.4224730000000  0.5245250000000  0.5255150000000 1.0
C      1  0.5257120000000  0.4739770000000  0.5768020000000 1.0
C      1  0.4748100000000  0.4227620000000  0.4756390000000 1.0
C      1  0.5775590000000  0.4712860000000  0.5302540000000 1.0
C      1  0.4222390000000  0.4762170000000  0.4751090000000 1.0
C      1  0.5782870000000  0.5244300000000  0.4745110000000 1.0
C      1  0.4763570000000  0.5254200000000  0.5776760000000 1.0
C      1  0.5245350000000  0.5254640000000  0.4221980000000 1.0
C      1  0.4749300000000  0.4738950000000  0.4224080000000 1.0
C      1  0.5255460000000  0.5781820000000  0.4760190000000 1.0
C      1  0.4754110000000  0.5784090000000  0.5243090000000 1.0
C      1  0.5247710000000  0.4230280000000  0.5243640000000 1.0
C      1  0.4503070000000  0.5147790000000  0.5251070000000 1.0
C      1  0.5152450000000  0.5243400000000  0.4500960000000 1.0
C      1  0.5247980000000  0.4524160000000  0.5163250000000 1.0
C      1  0.5538070000000  0.4854360000000  0.5232020000000 1.0
C      1  0.4503830000000  0.4848880000000  0.4763790000000 1.0
C      1  0.5498010000000  0.5140810000000  0.4751850000000 1.0
C      1  0.4860290000000  0.4756980000000  0.4493400000000 1.0
C      1  0.5162530000000  0.4745500000000  0.5484400000000 1.0
C      1  0.4855630000000  0.5245540000000  0.5492280000000 1.0
C      1  0.4765250000000  0.5507370000000  0.5151280000000 1.0
C      1  0.5253200000000  0.5505200000000  0.4859610000000 1.0
C      1  0.4757440000000  0.4494000000000  0.4871750000000 1.0
C      1  0.4496700000000  0.5144460000000  0.4751590000000 1.0
C      1  0.5145040000000  0.5255070000000  0.5500750000000 1.0
C      1  0.5237890000000  0.4475270000000  0.4869050000000 1.0
C      1  0.5497240000000  0.4848790000000  0.4755150000000 1.0
C      1  0.4496980000000  0.4858940000000  0.5255200000000 1.0
C      1  0.5499680000000  0.5140340000000  0.5251690000000 1.0
C      1  0.4860550000000  0.4742250000000  0.5484670000000 1.0
C      1  0.5152390000000  0.4748510000000  0.4495660000000 1.0
C      1  0.4859090000000  0.5251100000000  0.4496150000000 1.0
C      1  0.4754230000000  0.5512900000000  0.4857000000000 1.0
C      1  0.5258140000000  0.5503100000000  0.5152240000000 1.0
C      1  0.4757510000000  0.4530140000000  0.5163790000000 1.0
C      1  0.5005970000000  0.4666320000000  0.5112800000000 1.0
C      1  0.4643880000000  0.5163070000000  0.5002670000000 1.0
C      1  0.5148500000000  0.4995090000000  0.4646300000000 1.0
C      1  0.5003770000000  0.5362700000000  0.4847880000000 1.0
C      1  0.5362980000000  0.4864550000000  0.5009330000000 1.0
C      1  0.5141470000000  0.5009680000000  0.5353250000000 1.0
C      1  0.4850590000000  0.4996890000000  0.5351220000000 1.0
C      1  0.4849180000000  0.4999530000000  0.4643660000000 1.0
C      1  0.5006790000000  0.5361680000000  0.5149420000000 1.0
C      1  0.5000810000000  0.4637920000000  0.4838930000000 1.0
C      1  0.4644030000000  0.4871340000000  0.5013420000000 1.0
C      1  0.5356750000000  0.5154260000000  0.5002210000000 1.0
C      1  0.5031140000000  0.4994720000000  0.4125970000000 1.0
C      1  0.4988070000000  0.4998100000000  0.5869000000000 1.0
C      1  0.5041910000000  0.5885290000000  0.5045070000000 1.0
C      1  0.5883560000000  0.5037210000000  0.4968400000000 1.0
C      1  0.4967990000000  0.4126430000000  0.5068810000000 1.0
C      1  0.4120090000000  0.4959400000000  0.5038520000000 1.0
END
