TITL C-2441168-9922-620 0.00770393038952211 125000 -15276.9277649616 0 0 106 (Cs) n - 1
REM
REM in /home/bkarasulu/work/CARBON/AIRSS/Generating-Clusters/ReaxFF-fromJPCA2015/Units_Real/with-SteepDescent/Higher-Symm
REM
REM
REM
REM
REM
REM ./C.cell (1df0a924f5614ab8850e4351716899ee)
REM
REM compiler GCC version 9.2.1 20190827 (Red Hat 9.2.1-1)
REM options -cpp -mtune=generic -march=x86-64 -g -O0 -fpre-include=/usr/include/finclude/math-vector-fortran.h
REM seed 979333391 1585062789 -1313238280 1217414678 2113404852 -28190021 -2133625693 -617316073 1207318162 -823999423 -1796306782 191300895 656305495 1629134554 -1353676735 -343811307 -1140410907 886864482 -670680098 -434878741 588098000 -799864735 -1746585521 1244342139 -450976982 367220350 -1239499387 -1321753070 1339568258 1764902666 550776794 600221731 149426511
REM
CELL 1.54180   50.00000   50.00000   50.00000   90.00000   90.00000   90.00000
LATT -1
SFAC C  
C      1  0.5150880000000  0.5519270000000  0.4847290000000 1.0
C      1  0.5140130000000  0.4477390000000  0.5205480000000 1.0
C      1  0.4854520000000  0.5519320000000  0.4846860000000 1.0
C      1  0.4859510000000  0.4482220000000  0.5162510000000 1.0
C      1  0.5150870000000  0.5519180000000  0.5152310000000 1.0
C      1  0.5139960000000  0.4476910000000  0.4793920000000 1.0
C      1  0.4854450000000  0.5519300000000  0.5153500000000 1.0
C      1  0.4859410000000  0.4481990000000  0.4837260000000 1.0
C      1  0.4317020000000  0.4856080000000  0.5440420000000 1.0
C      1  0.4316690000000  0.5142300000000  0.4560000000000 1.0
C      1  0.5679790000000  0.4856620000000  0.5432820000000 1.0
C      1  0.5684400000000  0.5140910000000  0.4560100000000 1.0
C      1  0.4316960000000  0.4856100000000  0.4559850000000 1.0
C      1  0.4316550000000  0.5142290000000  0.5440270000000 1.0
C      1  0.5679670000000  0.4856550000000  0.4566990000000 1.0
C      1  0.5684220000000  0.5140970000000  0.5439740000000 1.0
C      1  0.5570960000000  0.4739480000000  0.5201890000000 1.0
C      1  0.5576590000000  0.5268160000000  0.4779380000000 1.0
C      1  0.4425320000000  0.4729880000000  0.5220380000000 1.0
C      1  0.4426240000000  0.5267790000000  0.4779110000000 1.0
C      1  0.5570810000000  0.4739320000000  0.4797840000000 1.0
C      1  0.5576420000000  0.5268010000000  0.5220350000000 1.0
C      1  0.4425320000000  0.4729880000000  0.4779840000000 1.0
C      1  0.4426050000000  0.5267810000000  0.5221150000000 1.0
C      1  0.4785710000000  0.5229360000000  0.5772000000000 1.0
C      1  0.4786200000000  0.4765860000000  0.4219570000000 1.0
C      1  0.5211940000000  0.5235770000000  0.5780750000000 1.0
C      1  0.5213060000000  0.4767820000000  0.4218090000000 1.0
C      1  0.4785950000000  0.5229400000000  0.4228190000000 1.0
C      1  0.4786270000000  0.4765870000000  0.5780620000000 1.0
C      1  0.5212170000000  0.5235670000000  0.4219280000000 1.0
C      1  0.5213110000000  0.4768210000000  0.5781800000000 1.0
C      1  0.5411000000000  0.5569030000000  0.5566790000000 1.0
C      1  0.5413730000000  0.4426380000000  0.4428330000000 1.0
C      1  0.4589230000000  0.5571560000000  0.5566290000000 1.0
C      1  0.4591710000000  0.4429730000000  0.4432670000000 1.0
C      1  0.5411270000000  0.5569170000000  0.4433230000000 1.0
C      1  0.5413770000000  0.4426660000000  0.5571460000000 1.0
C      1  0.4589530000000  0.5571500000000  0.4433850000000 1.0
C      1  0.4591890000000  0.4429770000000  0.5567420000000 1.0
C      1  0.5279440000000  0.4229460000000  0.4852920000000 1.0
C      1  0.5290560000000  0.5784530000000  0.5143060000000 1.0
C      1  0.4715030000000  0.4216800000000  0.4857340000000 1.0
C      1  0.4711250000000  0.5785930000000  0.5143100000000 1.0
C      1  0.5279460000000  0.4229740000000  0.5146870000000 1.0
C      1  0.5290660000000  0.5784650000000  0.4856900000000 1.0
C      1  0.4715210000000  0.4216960000000  0.5142630000000 1.0
C      1  0.4711380000000  0.5785920000000  0.4857060000000 1.0
C      1  0.4856000000000  0.4479160000000  0.4312360000000 1.0
C      1  0.4853980000000  0.5518810000000  0.5681740000000 1.0
C      1  0.5148230000000  0.4480050000000  0.4312150000000 1.0
C      1  0.5145550000000  0.5522250000000  0.5686120000000 1.0
C      1  0.4856160000000  0.4479210000000  0.5687720000000 1.0
C      1  0.4854300000000  0.5518880000000  0.4318350000000 1.0
C      1  0.5148360000000  0.4480420000000  0.5687690000000 1.0
C      1  0.5145870000000  0.5522200000000  0.4313980000000 1.0
C      1  0.5501340000000  0.4302890000000  0.4679770000000 1.0
C      1  0.5501090000000  0.5696710000000  0.5317990000000 1.0
C      1  0.4503750000000  0.4302420000000  0.4682610000000 1.0
C      1  0.4499550000000  0.5698760000000  0.5317080000000 1.0
C      1  0.5501350000000  0.4303130000000  0.5320050000000 1.0
C      1  0.5501290000000  0.5696950000000  0.4682000000000 1.0
C      1  0.4503980000000  0.4302420000000  0.5317490000000 1.0
C      1  0.4499760000000  0.5698680000000  0.4683030000000 1.0
C      1  0.5282440000000  0.4721330000000  0.5239030000000 1.0
C      1  0.5294110000000  0.5262070000000  0.4792780000000 1.0
C      1  0.4707540000000  0.4737090000000  0.5207030000000 1.0
C      1  0.4709410000000  0.5260340000000  0.4792970000000 1.0
C      1  0.5282290000000  0.4720920000000  0.4760660000000 1.0
C      1  0.5293930000000  0.5261960000000  0.5206970000000 1.0
C      1  0.4707560000000  0.4736980000000  0.4792960000000 1.0
C      1  0.4709210000000  0.5260290000000  0.5207260000000 1.0
C      1  0.5484240000000  0.4764960000000  0.5868800000000 1.0
C      1  0.5481450000000  0.5237160000000  0.4128320000000 1.0
C      1  0.4517050000000  0.4760790000000  0.5872150000000 1.0
C      1  0.4517600000000  0.5236220000000  0.4131470000000 1.0
C      1  0.5484160000000  0.4764380000000  0.4131010000000 1.0
C      1  0.5481220000000  0.5237420000000  0.5871780000000 1.0
C      1  0.4516970000000  0.4760830000000  0.4128080000000 1.0
C      1  0.4517380000000  0.5236230000000  0.5868750000000 1.0
C      1  0.4336120000000  0.5523340000000  0.4855270000000 1.0
C      1  0.4336390000000  0.4473530000000  0.5144970000000 1.0
C      1  0.5666410000000  0.5524030000000  0.4855050000000 1.0
C      1  0.5662360000000  0.4473890000000  0.5143660000000 1.0
C      1  0.4335990000000  0.5523360000000  0.5144860000000 1.0
C      1  0.4336330000000  0.4473560000000  0.4855260000000 1.0
C      1  0.5666270000000  0.5523910000000  0.5144850000000 1.0
C      1  0.5662300000000  0.4473770000000  0.4856090000000 1.0
C      1  0.5604120000000  0.5347070000000  0.5645240000000 1.0
C      1  0.5605810000000  0.4655020000000  0.4359090000000 1.0
C      1  0.4394210000000  0.5349440000000  0.5644160000000 1.0
C      1  0.4395690000000  0.4650290000000  0.4355390000000 1.0
C      1  0.5604290000000  0.5347120000000  0.4354740000000 1.0
C      1  0.5605810000000  0.4655250000000  0.5640830000000 1.0
C      1  0.4394430000000  0.5349390000000  0.4356070000000 1.0
C      1  0.4395810000000  0.4650250000000  0.5644810000000 1.0
C      1  0.4844040000000  0.4859260000000  0.5440210000000 1.0
C      1  0.4851770000000  0.5140930000000  0.4565400000000 1.0
C      1  0.5140030000000  0.4862900000000  0.5448360000000 1.0
C      1  0.5148060000000  0.5145220000000  0.4561560000000 1.0
C      1  0.4844020000000  0.4859290000000  0.4559840000000 1.0
C      1  0.4851600000000  0.5140900000000  0.5434760000000 1.0
C      1  0.5140010000000  0.4862740000000  0.4551470000000 1.0
C      1  0.5147880000000  0.5145380000000  0.5438350000000 1.0
C      1  0.4998390000000  0.5002380000000  0.5919410000000 1.0
C      1  0.4998500000000  0.5002360000000  0.4080670000000 1.0
END
