TITL C-2441167-4473-1218 5.94636046948391e-10 125000 -1821.95887897059 0 0 14 (D2d) n - 1
REM
REM in /home/bkarasulu/work/CARBON/AIRSS/Generating-Clusters/ReaxFF-fromJPCA2015/Units_Real/with-SteepDescent/Higher-Symm
REM
REM
REM
REM
REM
REM ./C.cell (1df0a924f5614ab8850e4351716899ee)
REM
REM compiler GCC version 9.2.1 20190827 (Red Hat 9.2.1-1)
REM options -cpp -mtune=generic -march=x86-64 -g -O0 -fpre-include=/usr/include/finclude/math-vector-fortran.h
REM seed 967974520 -1324786405 1906147819 -1871017098 737924292 1036617890 -582711469 2134689134 -2115800499 1938484408 1897882265 1316382452 1629959880 -1664652207 -217742769 -483222587 -1223037824 1907562198 1256204471 1359497799 -1548423922 -1183917632 -1060495259 125477662 -189562355 106312564 2103271500 859768619 1979730113 -591430939 -302923154 -1656749374 -1601069715
REM
CELL 1.54180   50.00000   50.00000   50.00000   90.00000   90.00000   90.00000
LATT -1
SFAC C  
C      1  0.5068880000000  0.5240970000000  0.4721750000000 1.0
C      1  0.4931120000000  0.5240970000000  0.5278250000000 1.0
C      1  0.5068880000000  0.4725590000000  0.5278250000000 1.0
C      1  0.4931120000000  0.4725590000000  0.4721750000000 1.0
C      1  0.4721750000000  0.5240970000000  0.5068880000000 1.0
C      1  0.5278250000000  0.5240970000000  0.4931120000000 1.0
C      1  0.5278250000000  0.4725590000000  0.5068880000000 1.0
C      1  0.4721750000000  0.4725590000000  0.4931120000000 1.0
C      1  0.4664230000000  0.4983280000000  0.5000000000000 1.0
C      1  0.5335770000000  0.4983280000000  0.5000000000000 1.0
C      1  0.5000000000000  0.4983280000000  0.4664230000000 1.0
C      1  0.5000000000000  0.4983280000000  0.5335770000000 1.0
C      1  0.5000000000000  0.4591690000000  0.5000000000000 1.0
C      1  0.5000000000000  0.5374870000000  0.5000000000000 1.0
END
