TITL C-2441161-5029-806 0.0456671423542127 125000 -26564.5376750121 0 0 186 (C1) n - 1
REM
REM in /home/bkarasulu/work/CARBON/AIRSS/Generating-Clusters/ReaxFF-fromJPCA2015/Units_Real/with-SteepDescent/Higher-Symm
REM
REM
REM
REM
REM
REM ./C.cell (1df0a924f5614ab8850e4351716899ee)
REM
REM compiler GCC version 9.2.1 20190827 (Red Hat 9.2.1-1)
REM options -cpp -mtune=generic -march=x86-64 -g -O0 -fpre-include=/usr/include/finclude/math-vector-fortran.h
REM seed -68259556 -820857683 -1641731655 867280364 1184401591 1172226468 2048016516 1800608013 -960266407 1349786945 1859684124 -1193316568 986702265 832365568 1013372376 1128512327 -545254311 1889123053 -7188004 -1361714041 1376881014 -1303964470 -384955519 -1033382333 -349127218 -1812631232 -1068440440 -2011688679 698329948 837603987 -1516964619 -88819127 -930975087
REM
CELL 1.54180   50.00000   50.00000   50.00000   90.00000   90.00000   90.00000
LATT -1
SFAC C  
C      1  0.5385540000000  0.5001740000000  0.4070500000000 1.0
C      1  0.4540300000000  0.4960420000000  0.4042500000000 1.0
C      1  0.3991710000000  0.4933800000000  0.4799190000000 1.0
C      1  0.4188360000000  0.4926880000000  0.5665080000000 1.0
C      1  0.5013630000000  0.4939310000000  0.6024260000000 1.0
C      1  0.5789810000000  0.4965600000000  0.5663400000000 1.0
C      1  0.5999310000000  0.5039050000000  0.4775880000000 1.0
C      1  0.4025320000000  0.5197110000000  0.5272800000000 1.0
C      1  0.4621590000000  0.5218760000000  0.5865540000000 1.0
C      1  0.5404100000000  0.5180830000000  0.5937930000000 1.0
C      1  0.5982690000000  0.5190070000000  0.5266150000000 1.0
C      1  0.5770070000000  0.5179330000000  0.4288560000000 1.0
C      1  0.4925240000000  0.5228260000000  0.3909180000000 1.0
C      1  0.4123330000000  0.5232730000000  0.4485930000000 1.0
C      1  0.4456830000000  0.4057590000000  0.5345870000000 1.0
C      1  0.4900540000000  0.4068660000000  0.5682930000000 1.0
C      1  0.5463220000000  0.4073890000000  0.5497170000000 1.0
C      1  0.5670650000000  0.4087770000000  0.4948380000000 1.0
C      1  0.5349560000000  0.4074000000000  0.4456330000000 1.0
C      1  0.4813130000000  0.4083450000000  0.4371420000000 1.0
C      1  0.4433100000000  0.4067870000000  0.4771720000000 1.0
C      1  0.4363420000000  0.5447780000000  0.4070970000000 1.0
C      1  0.3925170000000  0.5628800000000  0.4921070000000 1.0
C      1  0.4294560000000  0.5623720000000  0.5766970000000 1.0
C      1  0.5118230000000  0.5447400000000  0.6081720000000 1.0
C      1  0.6019840000000  0.5557130000000  0.5577510000000 1.0
C      1  0.6054900000000  0.5322850000000  0.4669370000000 1.0
C      1  0.5442370000000  0.5392800000000  0.3951190000000 1.0
C      1  0.4721730000000  0.5844750000000  0.5568390000000 1.0
C      1  0.5256620000000  0.5829390000000  0.5547790000000 1.0
C      1  0.5617400000000  0.5818680000000  0.5140160000000 1.0
C      1  0.5490280000000  0.5792100000000  0.4612020000000 1.0
C      1  0.5003270000000  0.5859760000000  0.4360810000000 1.0
C      1  0.4519240000000  0.5853870000000  0.4614260000000 1.0
C      1  0.4380430000000  0.5852030000000  0.5144460000000 1.0
C      1  0.5657340000000  0.5611830000000  0.4416600000000 1.0
C      1  0.4987450000000  0.5596350000000  0.4237930000000 1.0
C      1  0.4278820000000  0.5700100000000  0.4491220000000 1.0
C      1  0.4103550000000  0.5729880000000  0.5267400000000 1.0
C      1  0.4676110000000  0.5725000000000  0.5858630000000 1.0
C      1  0.5435920000000  0.5638680000000  0.5761940000000 1.0
C      1  0.5919680000000  0.5668580000000  0.5122690000000 1.0
C      1  0.5050900000000  0.4891980000000  0.4699640000000 1.0
C      1  0.4822590000000  0.4702420000000  0.4746940000000 1.0
C      1  0.4707630000000  0.4880880000000  0.4986870000000 1.0
C      1  0.4805460000000  0.4745700000000  0.5227290000000 1.0
C      1  0.5064840000000  0.4834950000000  0.5293180000000 1.0
C      1  0.5216620000000  0.4719080000000  0.5089380000000 1.0
C      1  0.5303270000000  0.4849610000000  0.4851940000000 1.0
C      1  0.4461750000000  0.4825300000000  0.4608160000000 1.0
C      1  0.4385800000000  0.4700430000000  0.5198170000000 1.0
C      1  0.4815560000000  0.4741330000000  0.5622950000000 1.0
C      1  0.5369930000000  0.4708850000000  0.5532200000000 1.0
C      1  0.5661090000000  0.4733350000000  0.5038450000000 1.0
C      1  0.5498410000000  0.4768490000000  0.4514220000000 1.0
C      1  0.4942980000000  0.4759000000000  0.4329790000000 1.0
C      1  0.5425300000000  0.4428710000000  0.5854290000000 1.0
C      1  0.5915710000000  0.4435520000000  0.5198100000000 1.0
C      1  0.5689360000000  0.4431790000000  0.4379200000000 1.0
C      1  0.4955030000000  0.4434740000000  0.4050000000000 1.0
C      1  0.4260820000000  0.4438270000000  0.4461950000000 1.0
C      1  0.4097080000000  0.4397120000000  0.5245860000000 1.0
C      1  0.4613700000000  0.4437810000000  0.5872450000000 1.0
C      1  0.4120790000000  0.4685040000000  0.5323100000000 1.0
C      1  0.4674560000000  0.4729490000000  0.5878340000000 1.0
C      1  0.5480000000000  0.4712610000000  0.5804670000000 1.0
C      1  0.5953350000000  0.4704760000000  0.5075280000000 1.0
C      1  0.5729390000000  0.4718000000000  0.4326360000000 1.0
C      1  0.4913530000000  0.4729990000000  0.4038380000000 1.0
C      1  0.4219550000000  0.4727190000000  0.4437790000000 1.0
C      1  0.4471760000000  0.5110690000000  0.5076750000000 1.0
C      1  0.4579350000000  0.5129270000000  0.5369740000000 1.0
C      1  0.5219880000000  0.5085850000000  0.5464180000000 1.0
C      1  0.5465070000000  0.5164280000000  0.5332980000000 1.0
C      1  0.5415550000000  0.5113770000000  0.4816210000000 1.0
C      1  0.5062870000000  0.5116860000000  0.4494810000000 1.0
C      1  0.4529210000000  0.5103670000000  0.4515650000000 1.0
C      1  0.5443440000000  0.4303270000000  0.4287270000000 1.0
C      1  0.4738670000000  0.4308040000000  0.4193420000000 1.0
C      1  0.4241550000000  0.4283450000000  0.4711260000000 1.0
C      1  0.4280170000000  0.4272290000000  0.5438140000000 1.0
C      1  0.4870350000000  0.4299940000000  0.5861720000000 1.0
C      1  0.5581760000000  0.4300410000000  0.5631100000000 1.0
C      1  0.5832130000000  0.4324360000000  0.4936100000000 1.0
C      1  0.4290100000000  0.4672960000000  0.5733930000000 1.0
C      1  0.5134000000000  0.4686040000000  0.6019590000000 1.0
C      1  0.5823690000000  0.4722760000000  0.5499710000000 1.0
C      1  0.5970430000000  0.4744080000000  0.4637490000000 1.0
C      1  0.5354800000000  0.4701690000000  0.4091940000000 1.0
C      1  0.4467160000000  0.4696040000000  0.4117690000000 1.0
C      1  0.4052350000000  0.4671170000000  0.4905800000000 1.0
C      1  0.5080900000000  0.4671600000000  0.5539110000000 1.0
C      1  0.5578970000000  0.4740560000000  0.5324660000000 1.0
C      1  0.5524480000000  0.4706580000000  0.4785790000000 1.0
C      1  0.5244420000000  0.4723930000000  0.4367030000000 1.0
C      1  0.4716400000000  0.4714100000000  0.4512410000000 1.0
C      1  0.4343930000000  0.4712760000000  0.4918000000000 1.0
C      1  0.4626790000000  0.4823700000000  0.5408220000000 1.0
C      1  0.5239960000000  0.5460100000000  0.4298710000000 1.0
C      1  0.4779010000000  0.5415240000000  0.4109000000000 1.0
C      1  0.4153400000000  0.5327240000000  0.4755080000000 1.0
C      1  0.4197140000000  0.5335790000000  0.5475090000000 1.0
C      1  0.4892710000000  0.5316400000000  0.5776590000000 1.0
C      1  0.5624620000000  0.5486650000000  0.5608970000000 1.0
C      1  0.5723390000000  0.5435400000000  0.4879900000000 1.0
C      1  0.4628980000000  0.5621250000000  0.5067060000000 1.0
C      1  0.4827830000000  0.5615730000000  0.5324700000000 1.0
C      1  0.5114220000000  0.5696670000000  0.5313530000000 1.0
C      1  0.5318860000000  0.5641160000000  0.5118740000000 1.0
C      1  0.5261630000000  0.5604890000000  0.4813470000000 1.0
C      1  0.4984500000000  0.5598390000000  0.4708410000000 1.0
C      1  0.4740070000000  0.5715760000000  0.4809220000000 1.0
C      1  0.4927440000000  0.5575780000000  0.5915310000000 1.0
C      1  0.5831530000000  0.5603290000000  0.5733360000000 1.0
C      1  0.5974160000000  0.5554740000000  0.4854420000000 1.0
C      1  0.5501930000000  0.5563380000000  0.4178220000000 1.0
C      1  0.4557780000000  0.5580620000000  0.3922150000000 1.0
C      1  0.4140140000000  0.5629220000000  0.4734920000000 1.0
C      1  0.4116900000000  0.5614760000000  0.5546430000000 1.0
C      1  0.4570050000000  0.5354200000000  0.4958260000000 1.0
C      1  0.4806520000000  0.5328100000000  0.5360940000000 1.0
C      1  0.5069810000000  0.5265220000000  0.5318110000000 1.0
C      1  0.5304100000000  0.5347710000000  0.5159950000000 1.0
C      1  0.5268350000000  0.5326340000000  0.4881890000000 1.0
C      1  0.4925880000000  0.5339320000000  0.4619740000000 1.0
C      1  0.4660880000000  0.5280880000000  0.4698330000000 1.0
C      1  0.4733900000000  0.6150820000000  0.5212080000000 1.0
C      1  0.5001040000000  0.6153500000000  0.5341890000000 1.0
C      1  0.5275420000000  0.6138730000000  0.5218540000000 1.0
C      1  0.5347920000000  0.6128230000000  0.4928240000000 1.0
C      1  0.5161320000000  0.6135910000000  0.4697490000000 1.0
C      1  0.4863790000000  0.6157160000000  0.4692720000000 1.0
C      1  0.4668680000000  0.6159230000000  0.4920140000000 1.0
C      1  0.5685960000000  0.5173980000000  0.4795960000000 1.0
C      1  0.5244130000000  0.5166470000000  0.4283800000000 1.0
C      1  0.4587300000000  0.5173420000000  0.4246410000000 1.0
C      1  0.4145620000000  0.5125920000000  0.4978780000000 1.0
C      1  0.4388760000000  0.5161010000000  0.5621690000000 1.0
C      1  0.5136980000000  0.5136930000000  0.5798320000000 1.0
C      1  0.5731620000000  0.5181950000000  0.5454590000000 1.0
C      1  0.5138110000000  0.4418740000000  0.5946740000000 1.0
C      1  0.5812900000000  0.4427350000000  0.5484810000000 1.0
C      1  0.5848750000000  0.4484030000000  0.4654950000000 1.0
C      1  0.5255840000000  0.4421900000000  0.4080440000000 1.0
C      1  0.4464290000000  0.4438870000000  0.4230670000000 1.0
C      1  0.4079940000000  0.4382570000000  0.4943280000000 1.0
C      1  0.4366160000000  0.4410790000000  0.5697000000000 1.0
C      1  0.4727620000000  0.4980490000000  0.6019050000000 1.0
C      1  0.5606940000000  0.4973670000000  0.5884570000000 1.0
C      1  0.6051740000000  0.4988660000000  0.5073290000000 1.0
C      1  0.5679370000000  0.4970440000000  0.4139040000000 1.0
C      1  0.4801630000000  0.4963270000000  0.3899370000000 1.0
C      1  0.4038170000000  0.4953890000000  0.4514190000000 1.0
C      1  0.4016600000000  0.4936850000000  0.5428500000000 1.0
C      1  0.5165010000000  0.4063150000000  0.5523500000000 1.0
C      1  0.5545630000000  0.4023760000000  0.5215910000000 1.0
C      1  0.5486400000000  0.4029480000000  0.4721570000000 1.0
C      1  0.5069500000000  0.4026570000000  0.4463370000000 1.0
C      1  0.4685180000000  0.3980390000000  0.4627510000000 1.0
C      1  0.4532510000000  0.4080910000000  0.5044210000000 1.0
C      1  0.4675860000000  0.4058150000000  0.5516430000000 1.0
C      1  0.4435840000000  0.5996400000000  0.4881460000000 1.0
C      1  0.4553760000000  0.5980760000000  0.5353110000000 1.0
C      1  0.4988040000000  0.5988990000000  0.5576780000000 1.0
C      1  0.5453950000000  0.5961060000000  0.5349770000000 1.0
C      1  0.5556000000000  0.5940130000000  0.4872820000000 1.0
C      1  0.5251860000000  0.5948220000000  0.4502020000000 1.0
C      1  0.4766450000000  0.5990740000000  0.4480540000000 1.0
C      1  0.5391770000000  0.5471770000000  0.6005100000000 1.0
C      1  0.6052930000000  0.5477710000000  0.5302590000000 1.0
C      1  0.5860080000000  0.5392530000000  0.4442730000000 1.0
C      1  0.5198990000000  0.5292030000000  0.3865200000000 1.0
C      1  0.4227700000000  0.5467440000000  0.4325770000000 1.0
C      1  0.3927330000000  0.5520160000000  0.5179380000000 1.0
C      1  0.4492110000000  0.5512550000000  0.5925620000000 1.0
C      1  0.5288220000000  0.4181570000000  0.4855580000000 1.0
C      1  0.5106540000000  0.4384230000000  0.4762030000000 1.0
C      1  0.4820240000000  0.4411460000000  0.4749250000000 1.0
C      1  0.4710380000000  0.4288280000000  0.4995050000000 1.0
C      1  0.4879940000000  0.4408530000000  0.5213650000000 1.0
C      1  0.5108130000000  0.4226170000000  0.5308570000000 1.0
C      1  0.5315920000000  0.4163380000000  0.5131360000000 1.0
C      1  0.4885300000000  0.3865310000000  0.4788010000000 1.0
C      1  0.4931390000000  0.5065150000000  0.4928290000000 1.0
C      1  0.4997510000000  0.3766740000000  0.4983420000000 1.0
C      1  0.5092350000000  0.4500420000000  0.5024380000000 1.0
END
