TITL C-2441161-5029-1159 0.00124775784000518 125000 -7597.46167514511 0 0 52 (C1) n - 1
REM
REM in /home/bkarasulu/work/CARBON/AIRSS/Generating-Clusters/ReaxFF-fromJPCA2015/Units_Real/with-SteepDescent/Higher-Symm
REM
REM
REM
REM
REM
REM ./C.cell (1df0a924f5614ab8850e4351716899ee)
REM
REM compiler GCC version 9.2.1 20190827 (Red Hat 9.2.1-1)
REM options -cpp -mtune=generic -march=x86-64 -g -O0 -fpre-include=/usr/include/finclude/math-vector-fortran.h
REM seed 1985418553 -234163573 -486298273 -715826871 -740051683 1396409867 -1438979252 -636075015 1312652678 -1260459270 -800291842 1399985569 -390005488 1665780105 1489190304 276972307 405082038 -1182448381 628886306 -1777731262 -1771298225 1563670921 427350161 -1381916238 -1336077378 328504989 2134874799 -925429038 -648961917 -1795035665 344668952 -225619841 -1395040212
REM
CELL 1.54180   50.00000   50.00000   50.00000   90.00000   90.00000   90.00000
LATT -1
SFAC C  
C      1  0.5176610000000  0.5606510000000  0.4524020000000 1.0
C      1  0.4889180000000  0.4967660000000  0.5703650000000 1.0
C      1  0.4343760000000  0.4739350000000  0.4820480000000 1.0
C      1  0.5650020000000  0.5142000000000  0.5145660000000 1.0
C      1  0.5694730000000  0.4862410000000  0.5023650000000 1.0
C      1  0.5144150000000  0.4627360000000  0.4685460000000 1.0
C      1  0.5738380000000  0.5338460000000  0.4971180000000 1.0
C      1  0.4359850000000  0.5009540000000  0.4898520000000 1.0
C      1  0.5436150000000  0.4903040000000  0.4542630000000 1.0
C      1  0.5603800000000  0.4790000000000  0.4758990000000 1.0
C      1  0.5058420000000  0.4638150000000  0.5423390000000 1.0
C      1  0.4596180000000  0.5134720000000  0.5287510000000 1.0
C      1  0.5324920000000  0.5467720000000  0.5109480000000 1.0
C      1  0.4932890000000  0.4283310000000  0.5241850000000 1.0
C      1  0.4837150000000  0.4983620000000  0.5176970000000 1.0
C      1  0.4685440000000  0.4811020000000  0.4431220000000 1.0
C      1  0.4921990000000  0.5418070000000  0.5623750000000 1.0
C      1  0.4796000000000  0.4499740000000  0.5400720000000 1.0
C      1  0.5096830000000  0.5155820000000  0.5677010000000 1.0
C      1  0.5584490000000  0.4596690000000  0.4993270000000 1.0
C      1  0.4785070000000  0.5498750000000  0.5133360000000 1.0
C      1  0.5199430000000  0.4404130000000  0.5308240000000 1.0
C      1  0.5362530000000  0.4420450000000  0.5065400000000 1.0
C      1  0.4552440000000  0.4645190000000  0.4636930000000 1.0
C      1  0.5081850000000  0.4908160000000  0.5307710000000 1.0
C      1  0.5057200000000  0.5440410000000  0.4971630000000 1.0
C      1  0.5116300000000  0.5157450000000  0.4805420000000 1.0
C      1  0.5168000000000  0.4376370000000  0.4845330000000 1.0
C      1  0.4913810000000  0.4312560000000  0.4955060000000 1.0
C      1  0.5051120000000  0.4877860000000  0.4832020000000 1.0
C      1  0.4698520000000  0.4534470000000  0.4880970000000 1.0
C      1  0.5237470000000  0.5093830000000  0.5438670000000 1.0
C      1  0.4723980000000  0.5393300000000  0.5388020000000 1.0
C      1  0.5284640000000  0.5160860000000  0.4574740000000 1.0
C      1  0.5392010000000  0.5613070000000  0.4706650000000 1.0
C      1  0.4580930000000  0.5469090000000  0.4928470000000 1.0
C      1  0.4965640000000  0.4771910000000  0.4328330000000 1.0
C      1  0.5134960000000  0.5562710000000  0.5683690000000 1.0
C      1  0.4682470000000  0.4817440000000  0.5643870000000 1.0
C      1  0.4797620000000  0.5332650000000  0.4462730000000 1.0
C      1  0.4719930000000  0.5529990000000  0.4677820000000 1.0
C      1  0.5240070000000  0.4713050000000  0.4419140000000 1.0
C      1  0.4452380000000  0.4563990000000  0.5035860000000 1.0
C      1  0.4424580000000  0.5233680000000  0.5022910000000 1.0
C      1  0.5095790000000  0.5334420000000  0.4424190000000 1.0
C      1  0.5557560000000  0.5562180000000  0.4933350000000 1.0
C      1  0.4817540000000  0.4808690000000  0.4960040000000 1.0
C      1  0.4500980000000  0.4877180000000  0.5441000000000 1.0
C      1  0.4530380000000  0.4616650000000  0.5316200000000 1.0
C      1  0.4620530000000  0.5105850000000  0.4407250000000 1.0
C      1  0.5403780000000  0.5251930000000  0.5279600000000 1.0
C      1  0.4979560000000  0.5636550000000  0.4745950000000 1.0
END
