TITL C-2441162-9305-929 -0.000976786146673636 125000 -3690.17276352768 0 0 29 (C3h) n - 1
REM
REM in /home/bkarasulu/work/CARBON/AIRSS/Generating-Clusters/ReaxFF-fromJPCA2015/Units_Real/with-SteepDescent/Higher-Symm
REM
REM
REM
REM
REM
REM ./C.cell (1df0a924f5614ab8850e4351716899ee)
REM
REM compiler GCC version 9.2.1 20190827 (Red Hat 9.2.1-1)
REM options -cpp -mtune=generic -march=x86-64 -g -O0 -fpre-include=/usr/include/finclude/math-vector-fortran.h
REM seed 1391930517 -189420882 924982782 1427600049 -1497111995 1531373980 -2068930040 -852909766 1058806632 -297382306 1447168376 -1928530742 -1267664824 1421485510 -1485307128 -1289345594 -166890239 952915411 -1970221924 -1522484287 1147199477 -285423241 1218819030 1017350615 625138650 -192887855 -605777469 -647438582 617906395 732150892 1614941476 765524259 1627950176
REM
CELL 1.54180   50.00000   50.00000   50.00000   90.00000   90.00000   90.00000
LATT -1
SFAC C  
C      1  0.5347710000000  0.4831660000000  0.4917550000000 1.0
C      1  0.4749250000000  0.4831480000000  0.4735850000000 1.0
C      1  0.4890950000000  0.4831710000000  0.5344660000000 1.0
C      1  0.5347720000000  0.5116070000000  0.4917530000000 1.0
C      1  0.4749250000000  0.5116170000000  0.4735800000000 1.0
C      1  0.4890770000000  0.5115840000000  0.5344650000000 1.0
C      1  0.4597060000000  0.5219660000000  0.5217450000000 1.0
C      1  0.5383730000000  0.5219760000000  0.5235990000000 1.0
C      1  0.5006990000000  0.5219830000000  0.4545240000000 1.0
C      1  0.4597040000000  0.4727970000000  0.5217480000000 1.0
C      1  0.5383680000000  0.4727880000000  0.5236060000000 1.0
C      1  0.5006900000000  0.4727900000000  0.4545000000000 1.0
C      1  0.5179010000000  0.4635750000000  0.4788290000000 1.0
C      1  0.4721870000000  0.4635700000000  0.4946560000000 1.0
C      1  0.5087330000000  0.4635870000000  0.5263520000000 1.0
C      1  0.5179000000000  0.5311930000000  0.4788330000000 1.0
C      1  0.4721980000000  0.5311860000000  0.4946530000000 1.0
C      1  0.5087440000000  0.5311890000000  0.5263530000000 1.0
C      1  0.5024750000000  0.5484910000000  0.4443810000000 1.0
C      1  0.4500480000000  0.5484830000000  0.5252290000000 1.0
C      1  0.5463180000000  0.5484560000000  0.5302280000000 1.0
C      1  0.5024750000000  0.4462730000000  0.4443800000000 1.0
C      1  0.4500460000000  0.4462830000000  0.5252320000000 1.0
C      1  0.5463250000000  0.4463120000000  0.5302320000000 1.0
C      1  0.4514100000000  0.4973870000000  0.5252360000000 1.0
C      1  0.5456090000000  0.4973830000000  0.5289990000000 1.0
C      1  0.5017990000000  0.4973880000000  0.4455630000000 1.0
C      1  0.4996040000000  0.4547320000000  0.4999500000000 1.0
C      1  0.4996040000000  0.5400230000000  0.4999360000000 1.0
END
