TITL C-2441157-2117-515 0.145960090008133 125000 -23764.3369686691 0 0 182 (C1) n - 1
REM
REM in /home/bkarasulu/work/CARBON/AIRSS/Generating-Clusters/ReaxFF-fromJPCA2015/Units_Real/with-SteepDescent/Higher-Symm
REM
REM
REM
REM
REM
REM ./C.cell (1df0a924f5614ab8850e4351716899ee)
REM
REM compiler GCC version 9.2.1 20190827 (Red Hat 9.2.1-1)
REM options -cpp -mtune=generic -march=x86-64 -g -O0 -fpre-include=/usr/include/finclude/math-vector-fortran.h
REM seed -2015636101 -59707525 -2075889531 720434367 -1184920304 783115037 -549116255 17270730 -394895104 -551872365 1369276472 -685918754 -547531496 1831098401 -379964225 -1331783775 -847434148 -583481998 1422761102 -1859339397 -844433496 -349607833 1973192533 -1808734430 129848910 -483754006 -370600650 2135062296 1918923367 -997876292 -1969802226 -576532708 -1502516813
REM
CELL 1.54180   50.00000   50.00000   50.00000   90.00000   90.00000   90.00000
LATT -1
SFAC C  
C      1  0.4903100000000  0.5951280000000  0.4910770000000 1.0
C      1  0.5336530000000  0.4151400000000  0.5651080000000 1.0
C      1  0.4597100000000  0.5520120000000  0.4761060000000 1.0
C      1  0.4388310000000  0.5345120000000  0.4828730000000 1.0
C      1  0.5024710000000  0.4765660000000  0.3921390000000 1.0
C      1  0.4515640000000  0.5142440000000  0.5377350000000 1.0
C      1  0.5031650000000  0.3975390000000  0.4739360000000 1.0
C      1  0.4908080000000  0.4675310000000  0.5624110000000 1.0
C      1  0.6076850000000  0.4584640000000  0.5007060000000 1.0
C      1  0.5811920000000  0.5008320000000  0.5469120000000 1.0
C      1  0.5197210000000  0.5278320000000  0.4652310000000 1.0
C      1  0.4523600000000  0.6011060000000  0.5263560000000 1.0
C      1  0.4294650000000  0.5396900000000  0.4281510000000 1.0
C      1  0.4543890000000  0.4903410000000  0.3974930000000 1.0
C      1  0.6024710000000  0.4810140000000  0.4821410000000 1.0
C      1  0.4568340000000  0.4681200000000  0.5123800000000 1.0
C      1  0.6123250000000  0.5003690000000  0.5192650000000 1.0
C      1  0.5473340000000  0.4651850000000  0.5778130000000 1.0
C      1  0.5552420000000  0.5912950000000  0.4694210000000 1.0
C      1  0.5061320000000  0.3961500000000  0.5278170000000 1.0
C      1  0.4194940000000  0.4924130000000  0.5843470000000 1.0
C      1  0.4624120000000  0.4573840000000  0.4570770000000 1.0
C      1  0.4158370000000  0.4898500000000  0.5567490000000 1.0
C      1  0.4624630000000  0.4122930000000  0.5494510000000 1.0
C      1  0.4064040000000  0.5281270000000  0.4417110000000 1.0
C      1  0.4416650000000  0.4880830000000  0.4979140000000 1.0
C      1  0.5559240000000  0.5081000000000  0.4833680000000 1.0
C      1  0.5856250000000  0.4802810000000  0.5678450000000 1.0
C      1  0.5032440000000  0.6017130000000  0.5294490000000 1.0
C      1  0.3968150000000  0.5167570000000  0.4802540000000 1.0
C      1  0.4763400000000  0.5358770000000  0.5907960000000 1.0
C      1  0.5476070000000  0.4900520000000  0.4084010000000 1.0
C      1  0.5293870000000  0.5675850000000  0.5046080000000 1.0
C      1  0.5269580000000  0.5774330000000  0.4605010000000 1.0
C      1  0.5719460000000  0.4451500000000  0.5299460000000 1.0
C      1  0.5215550000000  0.4234320000000  0.4997860000000 1.0
C      1  0.4379660000000  0.4243290000000  0.5501850000000 1.0
C      1  0.5947770000000  0.5400980000000  0.5274300000000 1.0
C      1  0.4800000000000  0.5049810000000  0.5328910000000 1.0
C      1  0.4997520000000  0.5267890000000  0.5242320000000 1.0
C      1  0.5532150000000  0.4056650000000  0.4849970000000 1.0
C      1  0.5376570000000  0.5329580000000  0.4071490000000 1.0
C      1  0.4556620000000  0.4582420000000  0.5907540000000 1.0
C      1  0.5635270000000  0.5334510000000  0.4176040000000 1.0
C      1  0.4406040000000  0.5646170000000  0.4361700000000 1.0
C      1  0.5002460000000  0.5921440000000  0.4645070000000 1.0
C      1  0.4556940000000  0.5799160000000  0.4697980000000 1.0
C      1  0.5795470000000  0.5731240000000  0.4710180000000 1.0
C      1  0.4230590000000  0.5609230000000  0.5100180000000 1.0
C      1  0.4845840000000  0.4758980000000  0.5178360000000 1.0
C      1  0.4871340000000  0.4562380000000  0.5377280000000 1.0
C      1  0.5023240000000  0.5063400000000  0.3931660000000 1.0
C      1  0.6090450000000  0.4718960000000  0.5268920000000 1.0
C      1  0.5528960000000  0.5152220000000  0.5889880000000 1.0
C      1  0.5995920000000  0.5248950000000  0.4737800000000 1.0
C      1  0.4432140000000  0.5795990000000  0.5475190000000 1.0
C      1  0.4901840000000  0.4960740000000  0.5587460000000 1.0
C      1  0.4765160000000  0.5216450000000  0.4426490000000 1.0
C      1  0.4436220000000  0.5085920000000  0.5904610000000 1.0
C      1  0.4724340000000  0.4792860000000  0.4184360000000 1.0
C      1  0.4177720000000  0.4774950000000  0.4842230000000 1.0
C      1  0.6045110000000  0.5238430000000  0.5037960000000 1.0
C      1  0.4184970000000  0.5368320000000  0.5483470000000 1.0
C      1  0.5882760000000  0.4372050000000  0.5057710000000 1.0
C      1  0.4780690000000  0.4371100000000  0.5874540000000 1.0
C      1  0.5315090000000  0.4789620000000  0.4530660000000 1.0
C      1  0.5642540000000  0.5708180000000  0.5425500000000 1.0
C      1  0.5249000000000  0.5119040000000  0.5105420000000 1.0
C      1  0.5278150000000  0.4429430000000  0.5362750000000 1.0
C      1  0.5331620000000  0.4690970000000  0.5371670000000 1.0
C      1  0.4862380000000  0.4450650000000  0.4640060000000 1.0
C      1  0.5332400000000  0.4685440000000  0.4924900000000 1.0
C      1  0.5305630000000  0.5095460000000  0.3968910000000 1.0
C      1  0.5531060000000  0.4707360000000  0.5182210000000 1.0
C      1  0.5550930000000  0.4395530000000  0.4350070000000 1.0
C      1  0.5637160000000  0.5552410000000  0.4359980000000 1.0
C      1  0.5292740000000  0.4422900000000  0.4800930000000 1.0
C      1  0.5355550000000  0.4728190000000  0.4256080000000 1.0
C      1  0.4515240000000  0.4068650000000  0.4876620000000 1.0
C      1  0.5834660000000  0.4886710000000  0.4392110000000 1.0
C      1  0.4211420000000  0.5804600000000  0.4888790000000 1.0
C      1  0.4871960000000  0.5440980000000  0.5089680000000 1.0
C      1  0.5024030000000  0.5350390000000  0.4445020000000 1.0
C      1  0.4068320000000  0.5417780000000  0.5230500000000 1.0
C      1  0.5052050000000  0.4499760000000  0.5889120000000 1.0
C      1  0.5340610000000  0.4472210000000  0.4170670000000 1.0
C      1  0.4520040000000  0.5305960000000  0.5718760000000 1.0
C      1  0.4221230000000  0.4784450000000  0.4555550000000 1.0
C      1  0.5740940000000  0.4605770000000  0.4443310000000 1.0
C      1  0.5701430000000  0.5044730000000  0.4197500000000 1.0
C      1  0.5483730000000  0.4221200000000  0.5381890000000 1.0
C      1  0.5251020000000  0.5610720000000  0.5514790000000 1.0
C      1  0.4374250000000  0.5165790000000  0.5076060000000 1.0
C      1  0.4683960000000  0.5712340000000  0.4281820000000 1.0
C      1  0.4125890000000  0.5395530000000  0.4695080000000 1.0
C      1  0.4688190000000  0.4929570000000  0.4787650000000 1.0
C      1  0.5907810000000  0.4600390000000  0.5472600000000 1.0
C      1  0.4449000000000  0.4626000000000  0.5377660000000 1.0
C      1  0.5853930000000  0.5667420000000  0.5238530000000 1.0
C      1  0.4893380000000  0.4927950000000  0.6067660000000 1.0
C      1  0.5038080000000  0.4842510000000  0.4556880000000 1.0
C      1  0.5073710000000  0.4040180000000  0.5564820000000 1.0
C      1  0.4671760000000  0.4143790000000  0.4404290000000 1.0
C      1  0.4984390000000  0.5188090000000  0.6006820000000 1.0
C      1  0.4901350000000  0.3948830000000  0.5013350000000 1.0
C      1  0.5061870000000  0.4737950000000  0.4988440000000 1.0
C      1  0.5058890000000  0.4509820000000  0.4055050000000 1.0
C      1  0.4825440000000  0.4139990000000  0.5704990000000 1.0
C      1  0.5104090000000  0.4756730000000  0.6004900000000 1.0
C      1  0.4003680000000  0.5026530000000  0.4551520000000 1.0
C      1  0.4758220000000  0.5878040000000  0.4504900000000 1.0
C      1  0.4291100000000  0.4657280000000  0.5860850000000 1.0
C      1  0.4401220000000  0.4424250000000  0.4657050000000 1.0
C      1  0.5332800000000  0.4391170000000  0.5809650000000 1.0
C      1  0.4621730000000  0.4870690000000  0.5983550000000 1.0
C      1  0.5258350000000  0.4855670000000  0.5794970000000 1.0
C      1  0.4411740000000  0.4890020000000  0.5476630000000 1.0
C      1  0.4912070000000  0.5594590000000  0.5874240000000 1.0
C      1  0.4214560000000  0.4479840000000  0.4470180000000 1.0
C      1  0.4286010000000  0.5768110000000  0.4598220000000 1.0
C      1  0.5085910000000  0.4270680000000  0.5235230000000 1.0
C      1  0.4531870000000  0.5238190000000  0.4250070000000 1.0
C      1  0.4531080000000  0.4839590000000  0.4550940000000 1.0
C      1  0.5073310000000  0.5869600000000  0.5536060000000 1.0
C      1  0.4469140000000  0.5612440000000  0.5251620000000 1.0
C      1  0.4326950000000  0.4272000000000  0.4965390000000 1.0
C      1  0.4852930000000  0.5315960000000  0.3982040000000 1.0
C      1  0.4079880000000  0.5158200000000  0.5099680000000 1.0
C      1  0.5735340000000  0.4839510000000  0.4860260000000 1.0
C      1  0.4763120000000  0.4312070000000  0.5277500000000 1.0
C      1  0.5307820000000  0.4020090000000  0.4648940000000 1.0
C      1  0.4867700000000  0.4947920000000  0.4360400000000 1.0
C      1  0.4840540000000  0.5425780000000  0.4837980000000 1.0
C      1  0.4797300000000  0.4527080000000  0.4184180000000 1.0
C      1  0.5403200000000  0.5747620000000  0.4345010000000 1.0
C      1  0.5191120000000  0.5545600000000  0.5956440000000 1.0
C      1  0.5861610000000  0.5283660000000  0.5521880000000 1.0
C      1  0.4924290000000  0.4715720000000  0.4769540000000 1.0
C      1  0.5596240000000  0.5389770000000  0.4843390000000 1.0
C      1  0.5620590000000  0.5626300000000  0.5698420000000 1.0
C      1  0.5678570000000  0.5347050000000  0.5734580000000 1.0
C      1  0.5385630000000  0.5067810000000  0.4607500000000 1.0
C      1  0.5482740000000  0.5233370000000  0.5221060000000 1.0
C      1  0.5269710000000  0.5266340000000  0.5986490000000 1.0
C      1  0.4831890000000  0.5164150000000  0.4811400000000 1.0
C      1  0.5167740000000  0.5688820000000  0.4176280000000 1.0
C      1  0.4329860000000  0.4486210000000  0.4201490000000 1.0
C      1  0.5759920000000  0.5613230000000  0.4971440000000 1.0
C      1  0.5203670000000  0.5425110000000  0.4245330000000 1.0
C      1  0.5356630000000  0.5697430000000  0.5773980000000 1.0
C      1  0.3968020000000  0.5005810000000  0.5364360000000 1.0
C      1  0.5649430000000  0.4873260000000  0.5881410000000 1.0
C      1  0.5036340000000  0.5412040000000  0.5507370000000 1.0
C      1  0.3978590000000  0.4623980000000  0.4987950000000 1.0
C      1  0.4888160000000  0.5600870000000  0.4098580000000 1.0
C      1  0.4787100000000  0.6096810000000  0.5148470000000 1.0
C      1  0.4931670000000  0.4182080000000  0.4553240000000 1.0
C      1  0.4592650000000  0.4328890000000  0.4198890000000 1.0
C      1  0.4865550000000  0.5660440000000  0.5579460000000 1.0
C      1  0.5644950000000  0.4989620000000  0.5234100000000 1.0
C      1  0.4210200000000  0.4432200000000  0.5400760000000 1.0
C      1  0.5037320000000  0.5795140000000  0.5101080000000 1.0
C      1  0.5442240000000  0.5947970000000  0.4953200000000 1.0
C      1  0.4123080000000  0.4385740000000  0.5119700000000 1.0
C      1  0.4344160000000  0.5547780000000  0.5628830000000 1.0
C      1  0.5439780000000  0.5548900000000  0.5284090000000 1.0
C      1  0.5221340000000  0.4937560000000  0.5330960000000 1.0
C      1  0.4748110000000  0.5625820000000  0.5250640000000 1.0
C      1  0.5797060000000  0.5449540000000  0.4594020000000 1.0
C      1  0.5725010000000  0.4282780000000  0.4832300000000 1.0
C      1  0.5172480000000  0.5057140000000  0.5591620000000 1.0
C      1  0.4425210000000  0.5964910000000  0.5000520000000 1.0
C      1  0.5699600000000  0.4563380000000  0.4723250000000 1.0
C      1  0.4589800000000  0.5204470000000  0.3966640000000 1.0
C      1  0.5356240000000  0.4296170000000  0.4542790000000 1.0
C      1  0.5319290000000  0.5503680000000  0.4790900000000 1.0
C      1  0.5409150000000  0.4055320000000  0.5113360000000 1.0
C      1  0.4442470000000  0.4153420000000  0.4584440000000 1.0
C      1  0.6023510000000  0.5003790000000  0.4594070000000 1.0
C      1  0.4343580000000  0.4746300000000  0.4088750000000 1.0
C      1  0.3913060000000  0.4799980000000  0.5192700000000 1.0
C      1  0.4743020000000  0.4188560000000  0.5006980000000 1.0
END
