TITL C-2441165-58-267 0.029913954394868 125000 -10930.2055579719 0 0 79 (C1) n - 1
REM
REM in /home/bkarasulu/work/CARBON/AIRSS/Generating-Clusters/ReaxFF-fromJPCA2015/Units_Real/with-SteepDescent/Higher-Symm
REM
REM
REM
REM
REM
REM ./C.cell (1df0a924f5614ab8850e4351716899ee)
REM
REM compiler GCC version 9.2.1 20190827 (Red Hat 9.2.1-1)
REM options -cpp -mtune=generic -march=x86-64 -g -O0 -fpre-include=/usr/include/finclude/math-vector-fortran.h
REM seed 1136257345 -2128017498 -405659815 1223966515 -1549477150 -1271681664 229719753 -1709092950 -461638804 832210380 1314704535 1429117071 -902070740 -1935931390 -961941277 -720436087 -345013527 -1912398389 100216984 366058309 1829082867 249655844 -735968466 1942638006 1898417505 777974224 -282099958 810130884 -1244995347 1674909920 1314786787 -861759019 -1013197518
REM
CELL 1.54180   50.00000   50.00000   50.00000   90.00000   90.00000   90.00000
LATT -1
SFAC C  
C      1  0.4507930000000  0.4758750000000  0.5426070000000 1.0
C      1  0.4424300000000  0.4354750000000  0.4872930000000 1.0
C      1  0.4439990000000  0.4900040000000  0.4432250000000 1.0
C      1  0.4453910000000  0.5491660000000  0.4824440000000 1.0
C      1  0.4540930000000  0.5481960000000  0.5467160000000 1.0
C      1  0.4402410000000  0.5250570000000  0.5360940000000 1.0
C      1  0.4408030000000  0.4752050000000  0.5162480000000 1.0
C      1  0.4377070000000  0.4605820000000  0.4744270000000 1.0
C      1  0.4408830000000  0.5037370000000  0.4685350000000 1.0
C      1  0.4377070000000  0.5405570000000  0.5095700000000 1.0
C      1  0.4545530000000  0.4278230000000  0.5254170000000 1.0
C      1  0.4783160000000  0.4501760000000  0.4448540000000 1.0
C      1  0.4607970000000  0.5329280000000  0.4342260000000 1.0
C      1  0.4770680000000  0.5774530000000  0.5078090000000 1.0
C      1  0.4735430000000  0.5041610000000  0.5717100000000 1.0
C      1  0.5262170000000  0.5253490000000  0.5632020000000 1.0
C      1  0.5367410000000  0.4569600000000  0.5469180000000 1.0
C      1  0.5276720000000  0.4466710000000  0.4758880000000 1.0
C      1  0.5369230000000  0.5048610000000  0.4446970000000 1.0
C      1  0.5301600000000  0.5674780000000  0.4851070000000 1.0
C      1  0.4941370000000  0.4842300000000  0.5343820000000 1.0
C      1  0.4945010000000  0.4420420000000  0.5034410000000 1.0
C      1  0.4971170000000  0.4905280000000  0.4405720000000 1.0
C      1  0.4947970000000  0.5466120000000  0.4658920000000 1.0
C      1  0.4953950000000  0.5280780000000  0.5275810000000 1.0
C      1  0.5796450000000  0.5139100000000  0.5260190000000 1.0
C      1  0.5796680000000  0.4748280000000  0.5132060000000 1.0
C      1  0.5839930000000  0.4701530000000  0.4853580000000 1.0
C      1  0.5749680000000  0.5082030000000  0.4737740000000 1.0
C      1  0.5813500000000  0.5338610000000  0.5053750000000 1.0
C      1  0.4618970000000  0.4171580000000  0.4743690000000 1.0
C      1  0.4560260000000  0.5065890000000  0.4223340000000 1.0
C      1  0.4598940000000  0.5747830000000  0.4827630000000 1.0
C      1  0.4792600000000  0.5310980000000  0.5808200000000 1.0
C      1  0.4638950000000  0.4246560000000  0.5509660000000 1.0
C      1  0.4480660000000  0.4480560000000  0.5110390000000 1.0
C      1  0.4518800000000  0.4629660000000  0.4494020000000 1.0
C      1  0.4520160000000  0.5295680000000  0.4626170000000 1.0
C      1  0.4538560000000  0.5608860000000  0.5214430000000 1.0
C      1  0.4515540000000  0.5027010000000  0.5513740000000 1.0
C      1  0.5484420000000  0.4810000000000  0.5576410000000 1.0
C      1  0.5455260000000  0.4383610000000  0.4985250000000 1.0
C      1  0.5494470000000  0.4788520000000  0.4448570000000 1.0
C      1  0.5480900000000  0.5494880000000  0.4674400000000 1.0
C      1  0.5504970000000  0.5639410000000  0.5344360000000 1.0
C      1  0.5356500000000  0.4356130000000  0.5258640000000 1.0
C      1  0.5303280000000  0.4572880000000  0.4486500000000 1.0
C      1  0.5369180000000  0.5343220000000  0.4455650000000 1.0
C      1  0.5281370000000  0.5698380000000  0.5156230000000 1.0
C      1  0.5265080000000  0.4961240000000  0.5692470000000 1.0
C      1  0.5623130000000  0.4915330000000  0.5294170000000 1.0
C      1  0.5718640000000  0.4500390000000  0.5005720000000 1.0
C      1  0.5727170000000  0.4837080000000  0.4627010000000 1.0
C      1  0.5707520000000  0.5348950000000  0.4781810000000 1.0
C      1  0.5614700000000  0.5370020000000  0.5266410000000 1.0
C      1  0.5081240000000  0.5395340000000  0.4426420000000 1.0
C      1  0.5007120000000  0.5536450000000  0.5143140000000 1.0
C      1  0.4976180000000  0.4903290000000  0.5631890000000 1.0
C      1  0.5068180000000  0.4326040000000  0.5291920000000 1.0
C      1  0.5030920000000  0.4638820000000  0.4391630000000 1.0
C      1  0.4881280000000  0.4191120000000  0.4862070000000 1.0
C      1  0.4851030000000  0.5035210000000  0.4194970000000 1.0
C      1  0.4838510000000  0.5740330000000  0.4658180000000 1.0
C      1  0.4822220000000  0.5471680000000  0.5552810000000 1.0
C      1  0.4658150000000  0.4535920000000  0.5569150000000 1.0
C      1  0.4842240000000  0.4247590000000  0.4573860000000 1.0
C      1  0.4884870000000  0.5317980000000  0.4237430000000 1.0
C      1  0.4996080000000  0.5842010000000  0.4876770000000 1.0
C      1  0.5048790000000  0.5418720000000  0.5745470000000 1.0
C      1  0.4903430000000  0.4380770000000  0.5530830000000 1.0
C      1  0.5209150000000  0.4744130000000  0.5282170000000 1.0
C      1  0.5067160000000  0.4636360000000  0.4877720000000 1.0
C      1  0.5120350000000  0.5041980000000  0.4602640000000 1.0
C      1  0.5106710000000  0.5447730000000  0.4889350000000 1.0
C      1  0.5230780000000  0.5215010000000  0.5347450000000 1.0
C      1  0.5330580000000  0.4995060000000  0.5182960000000 1.0
C      1  0.5087250000000  0.4933050000000  0.4908360000000 1.0
C      1  0.4344290000000  0.4848190000000  0.4898620000000 1.0
C      1  0.4905920000000  0.5026330000000  0.5121050000000 1.0
END
