TITL C-2441157-2117-1123 0.0545470344547343 125000 -17406.689793383 0 0 126 (C1) n - 1
REM
REM in /home/bkarasulu/work/CARBON/AIRSS/Generating-Clusters/ReaxFF-fromJPCA2015/Units_Real/with-SteepDescent/Higher-Symm
REM
REM
REM
REM
REM
REM ./C.cell (1df0a924f5614ab8850e4351716899ee)
REM
REM compiler GCC version 9.2.1 20190827 (Red Hat 9.2.1-1)
REM options -cpp -mtune=generic -march=x86-64 -g -O0 -fpre-include=/usr/include/finclude/math-vector-fortran.h
REM seed 1985454361 -1109087216 -1362050143 1688560566 -1218080029 -1501944537 1731259234 1216935199 1235821197 -2048809946 -1417859928 2117406928 -1544428151 532986566 -995320274 -563920418 -1420803964 -922827552 507720478 -443258775 157694062 -1409519061 733723001 1972137864 1393598574 773822166 -2091246011 -1021573 353159546 -1108467930 -466349602 -495081379 400016731
REM
CELL 1.54180   50.00000   50.00000   50.00000   90.00000   90.00000   90.00000
LATT -1
SFAC C  
C      1  0.5233600000000  0.5424640000000  0.4878200000000 1.0
C      1  0.4980450000000  0.5345090000000  0.5277440000000 1.0
C      1  0.4765990000000  0.5356160000000  0.4864330000000 1.0
C      1  0.5228810000000  0.5293580000000  0.5152690000000 1.0
C      1  0.4988650000000  0.5393730000000  0.4711330000000 1.0
C      1  0.4752700000000  0.5433710000000  0.5145730000000 1.0
C      1  0.4761920000000  0.4518820000000  0.4860890000000 1.0
C      1  0.5243890000000  0.4506800000000  0.4862560000000 1.0
C      1  0.5004620000000  0.4557750000000  0.5282630000000 1.0
C      1  0.4763950000000  0.4519460000000  0.5136890000000 1.0
C      1  0.5236010000000  0.4503480000000  0.5132720000000 1.0
C      1  0.5006300000000  0.4551610000000  0.4718770000000 1.0
C      1  0.4447650000000  0.4184270000000  0.5149680000000 1.0
C      1  0.5147350000000  0.4186030000000  0.4433610000000 1.0
C      1  0.5408960000000  0.4180860000000  0.5423080000000 1.0
C      1  0.4444800000000  0.4180750000000  0.4854050000000 1.0
C      1  0.5151080000000  0.4192720000000  0.5566530000000 1.0
C      1  0.5406700000000  0.4180560000000  0.4577760000000 1.0
C      1  0.5594450000000  0.5376130000000  0.4287420000000 1.0
C      1  0.5385880000000  0.5260600000000  0.5882810000000 1.0
C      1  0.4022000000000  0.5288170000000  0.4860780000000 1.0
C      1  0.5610640000000  0.5355290000000  0.5741840000000 1.0
C      1  0.5378330000000  0.5273000000000  0.4125400000000 1.0
C      1  0.4017650000000  0.5281760000000  0.5139840000000 1.0
C      1  0.5521820000000  0.4902990000000  0.4377980000000 1.0
C      1  0.5264260000000  0.4901070000000  0.5739840000000 1.0
C      1  0.4191190000000  0.4907080000000  0.4852450000000 1.0
C      1  0.5523000000000  0.4903170000000  0.5585350000000 1.0
C      1  0.5237690000000  0.4898670000000  0.4274410000000 1.0
C      1  0.4191480000000  0.4903750000000  0.5151100000000 1.0
C      1  0.5662740000000  0.4650120000000  0.5560960000000 1.0
C      1  0.4183910000000  0.4642190000000  0.5274120000000 1.0
C      1  0.5157610000000  0.4643540000000  0.4160650000000 1.0
C      1  0.5654940000000  0.4651630000000  0.4423750000000 1.0
C      1  0.4177440000000  0.4648240000000  0.4723720000000 1.0
C      1  0.5169150000000  0.4645510000000  0.5835330000000 1.0
C      1  0.5696920000000  0.5493790000000  0.5144200000000 1.0
C      1  0.4506990000000  0.5502800000000  0.5545440000000 1.0
C      1  0.4772520000000  0.5500550000000  0.4314560000000 1.0
C      1  0.5706410000000  0.5489030000000  0.4846010000000 1.0
C      1  0.4519120000000  0.5494440000000  0.4458550000000 1.0
C      1  0.4766150000000  0.5502260000000  0.5687630000000 1.0
C      1  0.5463930000000  0.5579640000000  0.5557540000000 1.0
C      1  0.4325070000000  0.5540160000000  0.5152930000000 1.0
C      1  0.5220060000000  0.5585640000000  0.4351090000000 1.0
C      1  0.5499690000000  0.5624340000000  0.4434480000000 1.0
C      1  0.4335110000000  0.5533580000000  0.4854270000000 1.0
C      1  0.5176520000000  0.5567510000000  0.5667170000000 1.0
C      1  0.4253500000000  0.4404710000000  0.4862400000000 1.0
C      1  0.5497730000000  0.4405520000000  0.4406970000000 1.0
C      1  0.5263750000000  0.4409170000000  0.5725740000000 1.0
C      1  0.4256260000000  0.4406500000000  0.5135810000000 1.0
C      1  0.5505140000000  0.4406130000000  0.5588080000000 1.0
C      1  0.5254940000000  0.4405320000000  0.4274070000000 1.0
C      1  0.4772260000000  0.4727620000000  0.5684480000000 1.0
C      1  0.4504530000000  0.4717700000000  0.4468920000000 1.0
C      1  0.5654080000000  0.4650610000000  0.4850450000000 1.0
C      1  0.4766750000000  0.4690260000000  0.4323280000000 1.0
C      1  0.4509670000000  0.4728190000000  0.5534110000000 1.0
C      1  0.5650830000000  0.4646350000000  0.5144220000000 1.0
C      1  0.4641310000000  0.5098560000000  0.5928060000000 1.0
C      1  0.4384170000000  0.5086630000000  0.4229060000000 1.0
C      1  0.5995440000000  0.5083400000000  0.4840650000000 1.0
C      1  0.4636320000000  0.5093370000000  0.4074820000000 1.0
C      1  0.4380060000000  0.5092380000000  0.5777980000000 1.0
C      1  0.5998520000000  0.5093570000000  0.5149150000000 1.0
C      1  0.5687460000000  0.5145950000000  0.4444730000000 1.0
C      1  0.5136360000000  0.5141610000000  0.5885050000000 1.0
C      1  0.4158700000000  0.5143850000000  0.4662860000000 1.0
C      1  0.5707770000000  0.5148800000000  0.5552270000000 1.0
C      1  0.5127050000000  0.5137780000000  0.4110440000000 1.0
C      1  0.4154160000000  0.5139790000000  0.5339290000000 1.0
C      1  0.4869520000000  0.4947090000000  0.4463050000000 1.0
C      1  0.5516740000000  0.4910470000000  0.5166940000000 1.0
C      1  0.4617550000000  0.5016850000000  0.5357890000000 1.0
C      1  0.4865820000000  0.4996970000000  0.5518490000000 1.0
C      1  0.5536020000000  0.4918310000000  0.4872120000000 1.0
C      1  0.4624980000000  0.4994910000000  0.4624200000000 1.0
C      1  0.5100980000000  0.5304100000000  0.5525440000000 1.0
C      1  0.4499250000000  0.5264330000000  0.4857100000000 1.0
C      1  0.5357350000000  0.5230920000000  0.4699650000000 1.0
C      1  0.5167440000000  0.5309880000000  0.4484260000000 1.0
C      1  0.4498090000000  0.5275920000000  0.5150500000000 1.0
C      1  0.5370780000000  0.5304230000000  0.5419360000000 1.0
C      1  0.5385820000000  0.4261620000000  0.5147140000000 1.0
C      1  0.4695460000000  0.4276310000000  0.5266290000000 1.0
C      1  0.4917150000000  0.4303780000000  0.4558730000000 1.0
C      1  0.5408360000000  0.4273410000000  0.4851940000000 1.0
C      1  0.4692350000000  0.4277060000000  0.4733560000000 1.0
C      1  0.4917400000000  0.4312710000000  0.5444910000000 1.0
C      1  0.4676170000000  0.4807930000000  0.4028370000000 1.0
C      1  0.6017920000000  0.4815750000000  0.5203440000000 1.0
C      1  0.4313010000000  0.4810890000000  0.5737250000000 1.0
C      1  0.4705970000000  0.4818200000000  0.5967340000000 1.0
C      1  0.6023720000000  0.4804160000000  0.4797630000000 1.0
C      1  0.4338930000000  0.4804010000000  0.4249830000000 1.0
C      1  0.4887910000000  0.4622820000000  0.4072830000000 1.0
C      1  0.5871370000000  0.4621450000000  0.5349100000000 1.0
C      1  0.4253680000000  0.4624260000000  0.5540310000000 1.0
C      1  0.4905230000000  0.4626080000000  0.5918020000000 1.0
C      1  0.5864300000000  0.4628850000000  0.4638380000000 1.0
C      1  0.4230500000000  0.4633760000000  0.4442120000000 1.0
C      1  0.5266680000000  0.5793260000000  0.5156680000000 1.0
C      1  0.4742880000000  0.5785250000000  0.5151730000000 1.0
C      1  0.4985980000000  0.5807810000000  0.4697070000000 1.0
C      1  0.5263150000000  0.5754700000000  0.4855530000000 1.0
C      1  0.4740710000000  0.5806730000000  0.4835230000000 1.0
C      1  0.5004850000000  0.5811220000000  0.5294670000000 1.0
C      1  0.4775870000000  0.4937810000000  0.5127930000000 1.0
C      1  0.5024890000000  0.4861830000000  0.4700570000000 1.0
C      1  0.5236480000000  0.5002910000000  0.5118870000000 1.0
C      1  0.4788220000000  0.4943460000000  0.4855270000000 1.0
C      1  0.5016450000000  0.4876720000000  0.5286820000000 1.0
C      1  0.5267720000000  0.4992940000000  0.4820350000000 1.0
C      1  0.4331170000000  0.5265720000000  0.4442480000000 1.0
C      1  0.5808650000000  0.5256260000000  0.4691270000000 1.0
C      1  0.4855350000000  0.5276210000000  0.5857540000000 1.0
C      1  0.4321890000000  0.5267970000000  0.5561570000000 1.0
C      1  0.5811750000000  0.5267450000000  0.5295730000000 1.0
C      1  0.4849270000000  0.5274920000000  0.4144030000000 1.0
C      1  0.5509030000000  0.5680460000000  0.5271310000000 1.0
C      1  0.4502730000000  0.5691390000000  0.5320520000000 1.0
C      1  0.4965270000000  0.5707460000000  0.4424130000000 1.0
C      1  0.5527670000000  0.5676200000000  0.4714940000000 1.0
C      1  0.4514510000000  0.5687910000000  0.4686220000000 1.0
C      1  0.4956180000000  0.5715940000000  0.5569950000000 1.0
END
