TITL C-2441167-4473-247 0.0028071044482318 125000 -5136.8296046894 0 0 37 (C1) n - 1
REM
REM in /home/bkarasulu/work/CARBON/AIRSS/Generating-Clusters/ReaxFF-fromJPCA2015/Units_Real/with-SteepDescent/Higher-Symm
REM
REM
REM
REM
REM
REM ./C.cell (1df0a924f5614ab8850e4351716899ee)
REM
REM compiler GCC version 9.2.1 20190827 (Red Hat 9.2.1-1)
REM options -cpp -mtune=generic -march=x86-64 -g -O0 -fpre-include=/usr/include/finclude/math-vector-fortran.h
REM seed 1274109521 -1321982916 -691738982 -482463456 -1717545819 555540094 1222605681 1013130387 1911950622 248693916 1732889907 1666517837 -1976160013 520128451 942163924 1195528028 105556602 1252379542 436983116 981329538 -1268531314 1295390244 1928552291 1176588241 -1839268109 512779279 -2060357542 56738503 1476530324 864523660 -1193303019 -1986551463 -244493688
REM
CELL 1.54180   50.00000   50.00000   50.00000   90.00000   90.00000   90.00000
LATT -1
SFAC C  
C      1  0.4635320000000  0.4630930000000  0.4588620000000 1.0
C      1  0.4653390000000  0.5382360000000  0.4622910000000 1.0
C      1  0.5295160000000  0.4479850000000  0.5013210000000 1.0
C      1  0.5390280000000  0.5463050000000  0.5048160000000 1.0
C      1  0.5472570000000  0.5301110000000  0.4596160000000 1.0
C      1  0.5463400000000  0.4692350000000  0.4599810000000 1.0
C      1  0.4769110000000  0.4860470000000  0.4778780000000 1.0
C      1  0.4818860000000  0.5140870000000  0.4748720000000 1.0
C      1  0.5340130000000  0.5143630000000  0.4397580000000 1.0
C      1  0.5342500000000  0.4853640000000  0.4398580000000 1.0
C      1  0.4529880000000  0.4614230000000  0.5311850000000 1.0
C      1  0.4553950000000  0.5344470000000  0.5222900000000 1.0
C      1  0.4347240000000  0.4611250000000  0.5060760000000 1.0
C      1  0.4321300000000  0.5413150000000  0.5072600000000 1.0
C      1  0.5221490000000  0.4713860000000  0.5481830000000 1.0
C      1  0.5205100000000  0.5311420000000  0.5508780000000 1.0
C      1  0.4262070000000  0.5138890000000  0.5001590000000 1.0
C      1  0.4281850000000  0.4875440000000  0.5003510000000 1.0
C      1  0.5338090000000  0.5490960000000  0.4753080000000 1.0
C      1  0.5330910000000  0.4471050000000  0.4738550000000 1.0
C      1  0.5442970000000  0.4885700000000  0.5397500000000 1.0
C      1  0.5471950000000  0.5178920000000  0.5452670000000 1.0
C      1  0.5429000000000  0.4957100000000  0.5107970000000 1.0
C      1  0.5536850000000  0.5227940000000  0.5163590000000 1.0
C      1  0.5210050000000  0.4636090000000  0.4528030000000 1.0
C      1  0.5211850000000  0.5355670000000  0.4540030000000 1.0
C      1  0.4791320000000  0.4733890000000  0.5291940000000 1.0
C      1  0.4812460000000  0.5257070000000  0.5258120000000 1.0
C      1  0.4472410000000  0.5454730000000  0.4830590000000 1.0
C      1  0.4468580000000  0.4564880000000  0.4806100000000 1.0
C      1  0.4957620000000  0.5146680000000  0.5499060000000 1.0
C      1  0.4963930000000  0.4859530000000  0.5504070000000 1.0
C      1  0.4969190000000  0.5195510000000  0.4989570000000 1.0
C      1  0.4923750000000  0.4775330000000  0.5011780000000 1.0
C      1  0.5264460000000  0.4541730000000  0.5259660000000 1.0
C      1  0.5240260000000  0.5480200000000  0.5283690000000 1.0
C      1  0.5148830000000  0.4964020000000  0.5007430000000 1.0
END
