TITL C-2441167-4473-764 -0.00513930620732481 125000 -4595.28753764183 0 0 36 (D2d) n - 1
REM
REM in /home/bkarasulu/work/CARBON/AIRSS/Generating-Clusters/ReaxFF-fromJPCA2015/Units_Real/with-SteepDescent/Higher-Symm
REM
REM
REM
REM
REM
REM ./C.cell (1df0a924f5614ab8850e4351716899ee)
REM
REM compiler GCC version 9.2.1 20190827 (Red Hat 9.2.1-1)
REM options -cpp -mtune=generic -march=x86-64 -g -O0 -fpre-include=/usr/include/finclude/math-vector-fortran.h
REM seed 2120181876 482155033 343034590 -1714224794 -916278779 -1779096838 1694351000 -506859781 -388691449 1200777959 -1091142465 658394964 1449872637 -448188153 89142151 1922599068 463510620 -929455056 -652770008 -1802990578 1385276880 -1326491317 770260059 -364317588 -1548906793 -2076444162 -638774007 -560867988 -1103921585 -1635641468 -2073817508 -1776995141 1975896266
REM
CELL 1.54180   50.00000   50.00000   50.00000   90.00000   90.00000   90.00000
LATT -1
SFAC C  
C      1  0.5191210000000  0.4520510000000  0.5273120000000 1.0
C      1  0.4808790000000  0.5479490000000  0.5273120000000 1.0
C      1  0.5191210000000  0.5479490000000  0.4726880000000 1.0
C      1  0.4808790000000  0.4520510000000  0.4726880000000 1.0
C      1  0.4520510000000  0.5191210000000  0.5273120000000 1.0
C      1  0.5479490000000  0.4808790000000  0.5273120000000 1.0
C      1  0.5479490000000  0.5191210000000  0.4726880000000 1.0
C      1  0.4520510000000  0.4808790000000  0.4726880000000 1.0
C      1  0.5205950000000  0.4592030000000  0.4701380000000 1.0
C      1  0.4794050000000  0.5407970000000  0.4701380000000 1.0
C      1  0.5205950000000  0.5407970000000  0.5298620000000 1.0
C      1  0.4794050000000  0.4592030000000  0.5298620000000 1.0
C      1  0.4592030000000  0.5205950000000  0.4701380000000 1.0
C      1  0.5407970000000  0.4794050000000  0.4701380000000 1.0
C      1  0.5407970000000  0.5205950000000  0.5298620000000 1.0
C      1  0.4592030000000  0.4794050000000  0.5298620000000 1.0
C      1  0.5556700000000  0.5149370000000  0.5008280000000 1.0
C      1  0.4443300000000  0.4850630000000  0.5008280000000 1.0
C      1  0.5556700000000  0.4850630000000  0.4991720000000 1.0
C      1  0.4443300000000  0.5149370000000  0.4991720000000 1.0
C      1  0.5149370000000  0.5556700000000  0.5008280000000 1.0
C      1  0.4850630000000  0.4443300000000  0.5008280000000 1.0
C      1  0.4850630000000  0.5556700000000  0.4991720000000 1.0
C      1  0.5149370000000  0.4443300000000  0.4991720000000 1.0
C      1  0.5266580000000  0.5031250000000  0.4605530000000 1.0
C      1  0.4733420000000  0.4968750000000  0.4605530000000 1.0
C      1  0.5266580000000  0.4968750000000  0.5394470000000 1.0
C      1  0.4733420000000  0.5031250000000  0.5394470000000 1.0
C      1  0.5031250000000  0.5266580000000  0.4605530000000 1.0
C      1  0.4968750000000  0.4733420000000  0.4605530000000 1.0
C      1  0.4968750000000  0.5266580000000  0.5394470000000 1.0
C      1  0.5031250000000  0.4733420000000  0.5394470000000 1.0
C      1  0.5285570000000  0.4714430000000  0.5097730000000 1.0
C      1  0.4714430000000  0.5285570000000  0.5097730000000 1.0
C      1  0.4714430000000  0.4714430000000  0.4902270000000 1.0
C      1  0.5285570000000  0.5285570000000  0.4902270000000 1.0
END
