TITL C-2441167-4473-1302 6.73398619538362e-14 125000 -385.378541062471 0 0 5 (Td) n - 1
REM
REM in /home/bkarasulu/work/CARBON/AIRSS/Generating-Clusters/ReaxFF-fromJPCA2015/Units_Real/with-SteepDescent/Higher-Symm
REM
REM
REM
REM
REM
REM ./C.cell (1df0a924f5614ab8850e4351716899ee)
REM
REM compiler GCC version 9.2.1 20190827 (Red Hat 9.2.1-1)
REM options -cpp -mtune=generic -march=x86-64 -g -O0 -fpre-include=/usr/include/finclude/math-vector-fortran.h
REM seed 771518985 -1581549037 -948310729 -1129668940 -278254343 974267222 1734317802 -1458435047 -336705298 1924484784 1469381677 516243824 320631711 570782496 -1911256708 -1018103716 -2047755128 -459231659 -378435836 2066946857 1564415828 1241882353 -1502972587 -975654280 1572588689 533846161 1268693536 2087899673 1631199147 -374289708 481883863 -505656977 1390988636
REM
CELL 1.54180   50.00000   50.00000   50.00000   90.00000   90.00000   90.00000
LATT -1
SFAC C  
C      1  0.4804510000000  0.4825110000000  0.4794620000000 1.0
C      1  0.5170370000000  0.5190970000000  0.4794620000000 1.0
C      1  0.4804510000000  0.5190970000000  0.5160480000000 1.0
C      1  0.5170370000000  0.4825110000000  0.5160480000000 1.0
C      1  0.4987440000000  0.5008040000000  0.4977550000000 1.0
END
