TITL C-2441157-2117-1055 0.0506663013788338 125000 -25455.3756107665 0 0 177 (C1) n - 1
REM
REM in /home/bkarasulu/work/CARBON/AIRSS/Generating-Clusters/ReaxFF-fromJPCA2015/Units_Real/with-SteepDescent/Higher-Symm
REM
REM
REM
REM
REM
REM ./C.cell (1df0a924f5614ab8850e4351716899ee)
REM
REM compiler GCC version 9.2.1 20190827 (Red Hat 9.2.1-1)
REM options -cpp -mtune=generic -march=x86-64 -g -O0 -fpre-include=/usr/include/finclude/math-vector-fortran.h
REM seed -640736991 -1477944195 1253929597 -772253527 -372059533 25037276 1460494506 -250078488 733690380 -1831978431 34118470 -1357577656 1149139442 -2131443438 498044995 -650132139 1737315940 1808509280 1422759181 -802829391 -626100451 -1234418270 1192343865 -663972629 1848436427 -538116062 -1172590753 -1896141305 -1446124805 486761248 -181413442 385347894 1463086641
REM
CELL 1.54180   50.00000   50.00000   50.00000   90.00000   90.00000   90.00000
LATT -1
SFAC C  
C      1  0.3987800000000  0.4733730000000  0.5371960000000 1.0
C      1  0.5995230000000  0.5309340000000  0.5364700000000 1.0
C      1  0.3987290000000  0.4726340000000  0.4623880000000 1.0
C      1  0.5994290000000  0.5308440000000  0.4659490000000 1.0
C      1  0.6021880000000  0.4741220000000  0.5386940000000 1.0
C      1  0.3987910000000  0.5278160000000  0.5368360000000 1.0
C      1  0.6012800000000  0.4745440000000  0.4612940000000 1.0
C      1  0.3998320000000  0.5275670000000  0.4628160000000 1.0
C      1  0.6142400000000  0.5144140000000  0.4841680000000 1.0
C      1  0.3842580000000  0.4859860000000  0.4838490000000 1.0
C      1  0.6001770000000  0.5117530000000  0.5143730000000 1.0
C      1  0.3839040000000  0.4861060000000  0.5156140000000 1.0
C      1  0.3843800000000  0.5144050000000  0.4838280000000 1.0
C      1  0.6155480000000  0.4860890000000  0.4842140000000 1.0
C      1  0.3839490000000  0.5145430000000  0.5154020000000 1.0
C      1  0.6132120000000  0.4859750000000  0.5145480000000 1.0
C      1  0.4658970000000  0.5635410000000  0.4311320000000 1.0
C      1  0.5344360000000  0.4341610000000  0.4299530000000 1.0
C      1  0.4656040000000  0.5635070000000  0.5692190000000 1.0
C      1  0.5352670000000  0.4368400000000  0.5689690000000 1.0
C      1  0.5338510000000  0.5634990000000  0.4294220000000 1.0
C      1  0.4644520000000  0.4351600000000  0.4305750000000 1.0
C      1  0.5371120000000  0.5657040000000  0.5683120000000 1.0
C      1  0.4648180000000  0.4372760000000  0.5690130000000 1.0
C      1  0.5726680000000  0.4334250000000  0.5369750000000 1.0
C      1  0.4281080000000  0.5657770000000  0.5359930000000 1.0
C      1  0.5690640000000  0.4344060000000  0.4619570000000 1.0
C      1  0.4308090000000  0.5667480000000  0.4630830000000 1.0
C      1  0.4273720000000  0.4344500000000  0.5361020000000 1.0
C      1  0.5764190000000  0.5653630000000  0.5353060000000 1.0
C      1  0.4297250000000  0.4356590000000  0.4635730000000 1.0
C      1  0.5655650000000  0.5725330000000  0.4658460000000 1.0
C      1  0.4691500000000  0.4117220000000  0.5564540000000 1.0
C      1  0.5341570000000  0.5928430000000  0.5584240000000 1.0
C      1  0.4686560000000  0.4092500000000  0.4415970000000 1.0
C      1  0.5260370000000  0.5867190000000  0.4454030000000 1.0
C      1  0.5292160000000  0.4124880000000  0.5545560000000 1.0
C      1  0.4731990000000  0.5873100000000  0.5537800000000 1.0
C      1  0.5317710000000  0.4063830000000  0.4405830000000 1.0
C      1  0.4698060000000  0.5892270000000  0.4418870000000 1.0
C      1  0.5285890000000  0.4335550000000  0.4895380000000 1.0
C      1  0.4716560000000  0.5657660000000  0.4893190000000 1.0
C      1  0.5144080000000  0.4229590000000  0.5110420000000 1.0
C      1  0.4848280000000  0.5759290000000  0.5111320000000 1.0
C      1  0.4712530000000  0.4335610000000  0.4880830000000 1.0
C      1  0.5257570000000  0.5749850000000  0.4880330000000 1.0
C      1  0.4850570000000  0.4252730000000  0.5104100000000 1.0
C      1  0.5120980000000  0.5762640000000  0.5115520000000 1.0
C      1  0.5852250000000  0.4541600000000  0.4744520000000 1.0
C      1  0.4145220000000  0.5477880000000  0.4783550000000 1.0
C      1  0.5894470000000  0.4529960000000  0.5235820000000 1.0
C      1  0.4121620000000  0.5472690000000  0.5196190000000 1.0
C      1  0.4122290000000  0.4524840000000  0.4789580000000 1.0
C      1  0.5885190000000  0.5497170000000  0.4857720000000 1.0
C      1  0.4118140000000  0.4533770000000  0.5201530000000 1.0
C      1  0.5935360000000  0.5515420000000  0.5173470000000 1.0
C      1  0.4915850000000  0.3959740000000  0.4307790000000 1.0
C      1  0.5141150000000  0.6089190000000  0.4287310000000 1.0
C      1  0.4916120000000  0.3978040000000  0.5667150000000 1.0
C      1  0.5093890000000  0.6044140000000  0.5680060000000 1.0
C      1  0.5129900000000  0.3894300000000  0.4258350000000 1.0
C      1  0.4915980000000  0.6044750000000  0.4313180000000 1.0
C      1  0.5137980000000  0.3931390000000  0.5700200000000 1.0
C      1  0.4870420000000  0.6075990000000  0.5706890000000 1.0
C      1  0.5155510000000  0.4441890000000  0.5327950000000 1.0
C      1  0.4853040000000  0.5560650000000  0.5317620000000 1.0
C      1  0.5138300000000  0.4522810000000  0.4745650000000 1.0
C      1  0.4869940000000  0.5461000000000  0.4762000000000 1.0
C      1  0.4871750000000  0.4495650000000  0.5287150000000 1.0
C      1  0.5139820000000  0.5514830000000  0.5285960000000 1.0
C      1  0.4852050000000  0.4505560000000  0.4712360000000 1.0
C      1  0.5137080000000  0.5552570000000  0.4695020000000 1.0
C      1  0.4403840000000  0.5845120000000  0.5184730000000 1.0
C      1  0.5611070000000  0.4166370000000  0.5170610000000 1.0
C      1  0.4461480000000  0.5776830000000  0.4859650000000 1.0
C      1  0.5534270000000  0.4198810000000  0.4838770000000 1.0
C      1  0.5601430000000  0.5823330000000  0.5179770000000 1.0
C      1  0.4387940000000  0.4167890000000  0.5172240000000 1.0
C      1  0.5532290000000  0.5685570000000  0.4925510000000 1.0
C      1  0.4458290000000  0.4205520000000  0.4842980000000 1.0
C      1  0.5359790000000  0.3993490000000  0.4684650000000 1.0
C      1  0.4566590000000  0.5998660000000  0.4665090000000 1.0
C      1  0.5416880000000  0.4006850000000  0.5296260000000 1.0
C      1  0.4607180000000  0.6000910000000  0.5301290000000 1.0
C      1  0.4627020000000  0.3994980000000  0.4685470000000 1.0
C      1  0.5480520000000  0.5967550000000  0.4638070000000 1.0
C      1  0.4580020000000  0.4006730000000  0.5301210000000 1.0
C      1  0.5409800000000  0.6001050000000  0.5303310000000 1.0
C      1  0.5850200000000  0.5166020000000  0.5586960000000 1.0
C      1  0.4146960000000  0.4860570000000  0.5593490000000 1.0
C      1  0.5834880000000  0.5173080000000  0.4432980000000 1.0
C      1  0.4146190000000  0.4855130000000  0.4404900000000 1.0
C      1  0.4145510000000  0.5151040000000  0.5591300000000 1.0
C      1  0.5854040000000  0.4873510000000  0.5596780000000 1.0
C      1  0.4150530000000  0.5147210000000  0.4406360000000 1.0
C      1  0.5841810000000  0.4883300000000  0.4410690000000 1.0
C      1  0.4763370000000  0.5286200000000  0.5241970000000 1.0
C      1  0.5264320000000  0.4673230000000  0.5198250000000 1.0
C      1  0.4816530000000  0.5209990000000  0.4913540000000 1.0
C      1  0.5194110000000  0.4764830000000  0.4919270000000 1.0
C      1  0.5253320000000  0.5290770000000  0.5140400000000 1.0
C      1  0.4788680000000  0.4743950000000  0.5173940000000 1.0
C      1  0.5243650000000  0.5314720000000  0.4844800000000 1.0
C      1  0.4769600000000  0.4755060000000  0.4757450000000 1.0
C      1  0.5473650000000  0.4833400000000  0.5312420000000 1.0
C      1  0.4516800000000  0.5136310000000  0.5280440000000 1.0
C      1  0.5412360000000  0.4883690000000  0.4723650000000 1.0
C      1  0.4586080000000  0.5141700000000  0.4719620000000 1.0
C      1  0.4548080000000  0.4856980000000  0.5271080000000 1.0
C      1  0.5468480000000  0.5121410000000  0.5251900000000 1.0
C      1  0.4525250000000  0.4857440000000  0.4712520000000 1.0
C      1  0.5458800000000  0.5168930000000  0.4728930000000 1.0
C      1  0.5150450000000  0.3872270000000  0.4841740000000 1.0
C      1  0.4726430000000  0.6116200000000  0.4861930000000 1.0
C      1  0.5196360000000  0.3912200000000  0.5127490000000 1.0
C      1  0.4831680000000  0.6107460000000  0.5118910000000 1.0
C      1  0.4841160000000  0.3876090000000  0.4845060000000 1.0
C      1  0.5300580000000  0.6073470000000  0.4835690000000 1.0
C      1  0.4798730000000  0.3921110000000  0.5126940000000 1.0
C      1  0.5205290000000  0.6094200000000  0.5110420000000 1.0
C      1  0.5135560000000  0.5427610000000  0.4239240000000 1.0
C      1  0.4849230000000  0.4530040000000  0.4203050000000 1.0
C      1  0.5145440000000  0.5433890000000  0.5736090000000 1.0
C      1  0.4856300000000  0.4586810000000  0.5763370000000 1.0
C      1  0.4849100000000  0.5440310000000  0.4230830000000 1.0
C      1  0.5135920000000  0.4508220000000  0.4180940000000 1.0
C      1  0.4860900000000  0.5449930000000  0.5768650000000 1.0
C      1  0.5145240000000  0.4572350000000  0.5766880000000 1.0
C      1  0.5116290000000  0.5186870000000  0.4483010000000 1.0
C      1  0.4912470000000  0.4842390000000  0.4400920000000 1.0
C      1  0.5149950000000  0.5158190000000  0.5543150000000 1.0
C      1  0.4872210000000  0.4863460000000  0.5562930000000 1.0
C      1  0.4828770000000  0.5119040000000  0.4456940000000 1.0
C      1  0.5185880000000  0.4904390000000  0.4479610000000 1.0
C      1  0.4860170000000  0.5153690000000  0.5512770000000 1.0
C      1  0.5157670000000  0.4868200000000  0.5554640000000 1.0
C      1  0.5143400000000  0.5263370000000  0.5979760000000 1.0
C      1  0.4853360000000  0.4753280000000  0.5991530000000 1.0
C      1  0.5143910000000  0.5248980000000  0.4016460000000 1.0
C      1  0.4848470000000  0.4749510000000  0.4012470000000 1.0
C      1  0.4850590000000  0.5263560000000  0.5975350000000 1.0
C      1  0.5145860000000  0.4755370000000  0.5997260000000 1.0
C      1  0.4849550000000  0.5250080000000  0.4011750000000 1.0
C      1  0.5145310000000  0.4745830000000  0.4036610000000 1.0
C      1  0.4593410000000  0.4863800000000  0.5909340000000 1.0
C      1  0.5406170000000  0.5145250000000  0.5908000000000 1.0
C      1  0.4582550000000  0.4861350000000  0.4100240000000 1.0
C      1  0.5402200000000  0.5149820000000  0.4108050000000 1.0
C      1  0.5410580000000  0.4863390000000  0.5910090000000 1.0
C      1  0.4591720000000  0.5146170000000  0.5901960000000 1.0
C      1  0.5410460000000  0.4869320000000  0.4103560000000 1.0
C      1  0.4583890000000  0.5145220000000  0.4096530000000 1.0
C      1  0.4335680000000  0.4721480000000  0.5129090000000 1.0
C      1  0.5705020000000  0.5145790000000  0.5109970000000 1.0
C      1  0.4319140000000  0.4736130000000  0.4866940000000 1.0
C      1  0.5648020000000  0.5315690000000  0.4894600000000 1.0
C      1  0.5678680000000  0.4715800000000  0.5126180000000 1.0
C      1  0.4317690000000  0.5257540000000  0.5113870000000 1.0
C      1  0.5640660000000  0.4719810000000  0.4859630000000 1.0
C      1  0.4357720000000  0.5283050000000  0.4849700000000 1.0
C      1  0.4374650000000  0.5275060000000  0.4271930000000 1.0
C      1  0.5621140000000  0.4746100000000  0.4273680000000 1.0
C      1  0.4369600000000  0.5276280000000  0.5731320000000 1.0
C      1  0.5632950000000  0.4737220000000  0.5733740000000 1.0
C      1  0.5613120000000  0.5291680000000  0.4291450000000 1.0
C      1  0.4370640000000  0.4729910000000  0.4269540000000 1.0
C      1  0.5629270000000  0.5279110000000  0.5734610000000 1.0
C      1  0.4370210000000  0.4735100000000  0.5735940000000 1.0
C      1  0.4401120000000  0.5538000000000  0.5617830000000 1.0
C      1  0.5603310000000  0.4471040000000  0.5624540000000 1.0
C      1  0.4414970000000  0.5535140000000  0.4389320000000 1.0
C      1  0.5585810000000  0.4472280000000  0.4377540000000 1.0
C      1  0.5614150000000  0.5538940000000  0.5613000000000 1.0
C      1  0.4394690000000  0.4472020000000  0.5620900000000 1.0
C      1  0.5581690000000  0.5555210000000  0.4401320000000 1.0
C      1  0.4406170000000  0.4467140000000  0.4389620000000 1.0
C      1  0.4914100000000  0.4892360000000  0.4945800000000 1.0
END
