TITL C-2441164-471-111 -0.00276155179826475 125000 -11274.1652737149 0 0 76 (Ci) n - 1
REM
REM in /home/bkarasulu/work/CARBON/AIRSS/Generating-Clusters/ReaxFF-fromJPCA2015/Units_Real/with-SteepDescent/Higher-Symm
REM
REM
REM
REM
REM
REM ./C.cell (1df0a924f5614ab8850e4351716899ee)
REM
REM compiler GCC version 9.2.1 20190827 (Red Hat 9.2.1-1)
REM options -cpp -mtune=generic -march=x86-64 -g -O0 -fpre-include=/usr/include/finclude/math-vector-fortran.h
REM seed 589462769 -1952851811 -1318314247 77235736 -1200238306 -97710984 -1177131100 688443996 -1946496549 1055788624 -1853320282 -1450668373 -1312446090 -1155641130 -1955782681 63992510 -1110129272 -1984370581 -737933367 -1936070793 -177778182 -1528361005 -471748679 816018221 1165217448 -1998942959 -302470387 1303881916 -1497385006 -921888136 -1642001209 2000409428 1123765509
REM
CELL 1.54180   50.00000   50.00000   50.00000   90.00000   90.00000   90.00000
LATT -1
SFAC C  
C      1  0.5943780000000  0.4878030000000  0.4545720000000 1.0
C      1  0.4082620000000  0.5123860000000  0.4550230000000 1.0
C      1  0.5906660000000  0.4876680000000  0.5445380000000 1.0
C      1  0.4049730000000  0.5122060000000  0.5461460000000 1.0
C      1  0.5812100000000  0.5095850000000  0.4422600000000 1.0
C      1  0.4211050000000  0.4904330000000  0.4425200000000 1.0
C      1  0.5790480000000  0.5099380000000  0.5576080000000 1.0
C      1  0.4190470000000  0.4906870000000  0.5579680000000 1.0
C      1  0.5346880000000  0.4242340000000  0.4678050000000 1.0
C      1  0.4613420000000  0.5661650000000  0.4696290000000 1.0
C      1  0.5384390000000  0.4338090000000  0.5303330000000 1.0
C      1  0.4649970000000  0.5748520000000  0.5314750000000 1.0
C      1  0.5341250000000  0.5767860000000  0.4655710000000 1.0
C      1  0.4629070000000  0.4349570000000  0.4698010000000 1.0
C      1  0.5370450000000  0.5652270000000  0.5300710000000 1.0
C      1  0.4661490000000  0.4234730000000  0.5343830000000 1.0
C      1  0.5479360000000  0.5553910000000  0.4864960000000 1.0
C      1  0.4415080000000  0.4340480000000  0.4859970000000 1.0
C      1  0.5585490000000  0.5664050000000  0.5140570000000 1.0
C      1  0.4522570000000  0.4448860000000  0.5135440000000 1.0
C      1  0.5507830000000  0.4443690000000  0.4873150000000 1.0
C      1  0.4396540000000  0.5691770000000  0.4853280000000 1.0
C      1  0.5597890000000  0.4301400000000  0.5146630000000 1.0
C      1  0.4486790000000  0.5546010000000  0.5124680000000 1.0
C      1  0.5157760000000  0.5576080000000  0.5438130000000 1.0
C      1  0.4867160000000  0.4386280000000  0.5457690000000 1.0
C      1  0.5135010000000  0.5617260000000  0.4541350000000 1.0
C      1  0.4841930000000  0.4421930000000  0.4558490000000 1.0
C      1  0.5176760000000  0.4428220000000  0.5438670000000 1.0
C      1  0.4849380000000  0.5590950000000  0.5438810000000 1.0
C      1  0.5150060000000  0.4405410000000  0.4557900000000 1.0
C      1  0.4826500000000  0.5573020000000  0.4562080000000 1.0
C      1  0.4724890000000  0.5135980000000  0.4889780000000 1.0
C      1  0.5344600000000  0.4699420000000  0.4879240000000 1.0
C      1  0.4654170000000  0.5293000000000  0.5121870000000 1.0
C      1  0.5280370000000  0.4861290000000  0.5110370000000 1.0
C      1  0.4751820000000  0.4848910000000  0.4888000000000 1.0
C      1  0.5295040000000  0.5314970000000  0.4876980000000 1.0
C      1  0.4709720000000  0.4685190000000  0.5123020000000 1.0
C      1  0.5253710000000  0.5149020000000  0.5110240000000 1.0
C      1  0.5199620000000  0.4711890000000  0.4614080000000 1.0
C      1  0.4815040000000  0.5267930000000  0.4617300000000 1.0
C      1  0.5190740000000  0.4734290000000  0.5384540000000 1.0
C      1  0.4803250000000  0.5284270000000  0.5385180000000 1.0
C      1  0.5153570000000  0.5308170000000  0.4608050000000 1.0
C      1  0.4857510000000  0.4725200000000  0.4615860000000 1.0
C      1  0.5145900000000  0.5272640000000  0.5381530000000 1.0
C      1  0.4850330000000  0.4695090000000  0.5391890000000 1.0
C      1  0.4084930000000  0.5313740000000  0.5312470000000 1.0
C      1  0.5892710000000  0.4672450000000  0.5306540000000 1.0
C      1  0.4094680000000  0.5327210000000  0.4689800000000 1.0
C      1  0.5904670000000  0.4684360000000  0.4691020000000 1.0
C      1  0.4169510000000  0.4760150000000  0.5342810000000 1.0
C      1  0.5820750000000  0.5260450000000  0.5347750000000 1.0
C      1  0.4178910000000  0.4745380000000  0.4654180000000 1.0
C      1  0.5832420000000  0.5244940000000  0.4658320000000 1.0
C      1  0.5779270000000  0.5432290000000  0.4846370000000 1.0
C      1  0.4192490000000  0.4553930000000  0.4846400000000 1.0
C      1  0.5808740000000  0.5451670000000  0.5155230000000 1.0
C      1  0.4223080000000  0.4573870000000  0.5154520000000 1.0
C      1  0.5832710000000  0.4485330000000  0.4852940000000 1.0
C      1  0.4130650000000  0.5541660000000  0.4852790000000 1.0
C      1  0.5861760000000  0.4455410000000  0.5147230000000 1.0
C      1  0.4159870000000  0.5508180000000  0.5145750000000 1.0
C      1  0.5314550000000  0.4868270000000  0.4369490000000 1.0
C      1  0.4705250000000  0.5137090000000  0.4367640000000 1.0
C      1  0.5300210000000  0.4865360000000  0.5634220000000 1.0
C      1  0.4690420000000  0.5131490000000  0.5632570000000 1.0
C      1  0.5279520000000  0.5150600000000  0.4364120000000 1.0
C      1  0.4744690000000  0.4850540000000  0.4363370000000 1.0
C      1  0.5258070000000  0.5151400000000  0.5636250000000 1.0
C      1  0.4723300000000  0.4848690000000  0.5636800000000 1.0
C      1  0.4467790000000  0.4959720000000  0.5705660000000 1.0
C      1  0.5535860000000  0.5041760000000  0.4295560000000 1.0
C      1  0.5517020000000  0.5045040000000  0.5705950000000 1.0
C      1  0.4485960000000  0.4960380000000  0.4297490000000 1.0
END
