TITL C-2441167-4473-1062 0.128053927137786 125000 -27003.754226193 0 0 200 (C1) n - 1
REM
REM in /home/bkarasulu/work/CARBON/AIRSS/Generating-Clusters/ReaxFF-fromJPCA2015/Units_Real/with-SteepDescent/Higher-Symm
REM
REM
REM
REM
REM
REM ./C.cell (1df0a924f5614ab8850e4351716899ee)
REM
REM compiler GCC version 9.2.1 20190827 (Red Hat 9.2.1-1)
REM options -cpp -mtune=generic -march=x86-64 -g -O0 -fpre-include=/usr/include/finclude/math-vector-fortran.h
REM seed -987185477 246697599 -1880782435 2128584455 -275056447 1653825451 112732632 -201109166 -118919618 1765592713 243159567 1742229929 408214992 -1043121661 -445229963 1113774307 1252002250 -1524105666 -1028059014 -454088645 353554896 -739124482 146828530 1148540429 -1803205261 2140313689 -1476199325 -1736187577 382250730 -1863480177 -345187588 -1150367086 -1859061938
REM
CELL 1.54180   50.00000   50.00000   50.00000   90.00000   90.00000   90.00000
LATT -1
SFAC C  
C      1  0.3958770000000  0.5150440000000  0.4637570000000 1.0
C      1  0.3952530000000  0.5359870000000  0.5145320000000 1.0
C      1  0.3947030000000  0.4845950000000  0.5366010000000 1.0
C      1  0.3961160000000  0.4641940000000  0.4855090000000 1.0
C      1  0.3952980000000  0.5146430000000  0.5355730000000 1.0
C      1  0.3946480000000  0.5366610000000  0.4844730000000 1.0
C      1  0.3950160000000  0.4853200000000  0.4641740000000 1.0
C      1  0.3953790000000  0.4634420000000  0.5154970000000 1.0
C      1  0.4578980000000  0.3957940000000  0.5265940000000 1.0
C      1  0.4560070000000  0.4736390000000  0.3959670000000 1.0
C      1  0.4580500000000  0.6031870000000  0.4734350000000 1.0
C      1  0.4563310000000  0.5264050000000  0.6041250000000 1.0
C      1  0.4560280000000  0.3963450000000  0.4731020000000 1.0
C      1  0.4579660000000  0.4728810000000  0.6035610000000 1.0
C      1  0.4565550000000  0.6028660000000  0.5267980000000 1.0
C      1  0.4579940000000  0.5263200000000  0.3950390000000 1.0
C      1  0.4501120000000  0.4139550000000  0.4516360000000 1.0
C      1  0.4521770000000  0.5482800000000  0.4126700000000 1.0
C      1  0.4508770000000  0.5845840000000  0.5477300000000 1.0
C      1  0.4519440000000  0.4523220000000  0.5845100000000 1.0
C      1  0.4523030000000  0.4147060000000  0.5478890000000 1.0
C      1  0.4514130000000  0.5484640000000  0.5876680000000 1.0
C      1  0.4514170000000  0.5851750000000  0.4521560000000 1.0
C      1  0.4514680000000  0.4518360000000  0.4129460000000 1.0
C      1  0.5525410000000  0.5482300000000  0.4254360000000 1.0
C      1  0.5538770000000  0.5703840000000  0.5521150000000 1.0
C      1  0.5523260000000  0.4483810000000  0.5707880000000 1.0
C      1  0.5530740000000  0.4224300000000  0.4548040000000 1.0
C      1  0.5535600000000  0.5498400000000  0.5745260000000 1.0
C      1  0.5509540000000  0.5673400000000  0.4485750000000 1.0
C      1  0.5537300000000  0.4544620000000  0.4226380000000 1.0
C      1  0.5520450000000  0.4279810000000  0.5495470000000 1.0
C      1  0.4325100000000  0.5278300000000  0.5678400000000 1.0
C      1  0.4328030000000  0.4302870000000  0.5295380000000 1.0
C      1  0.4323210000000  0.4726790000000  0.4320870000000 1.0
C      1  0.4323650000000  0.5702650000000  0.4706030000000 1.0
C      1  0.4328430000000  0.5303970000000  0.4293980000000 1.0
C      1  0.4331500000000  0.4304130000000  0.4713750000000 1.0
C      1  0.4326780000000  0.4710090000000  0.5704070000000 1.0
C      1  0.4325460000000  0.5694300000000  0.5283490000000 1.0
C      1  0.4845960000000  0.4860480000000  0.5623110000000 1.0
C      1  0.4894740000000  0.4286410000000  0.4861190000000 1.0
C      1  0.4846890000000  0.5144260000000  0.4371950000000 1.0
C      1  0.4894070000000  0.5704060000000  0.5141240000000 1.0
C      1  0.4882590000000  0.4877130000000  0.4281580000000 1.0
C      1  0.4856590000000  0.4385650000000  0.5132710000000 1.0
C      1  0.4886440000000  0.5121130000000  0.5731490000000 1.0
C      1  0.4881440000000  0.5575170000000  0.4879560000000 1.0
C      1  0.5357700000000  0.4224470000000  0.4809130000000 1.0
C      1  0.5418080000000  0.5101790000000  0.4202530000000 1.0
C      1  0.5356290000000  0.5782610000000  0.5135090000000 1.0
C      1  0.5367580000000  0.4866470000000  0.5807540000000 1.0
C      1  0.5427800000000  0.4199250000000  0.5109190000000 1.0
C      1  0.5358860000000  0.5154010000000  0.5791970000000 1.0
C      1  0.5358440000000  0.5787780000000  0.4877760000000 1.0
C      1  0.5376030000000  0.4799100000000  0.4204560000000 1.0
C      1  0.4935710000000  0.5972450000000  0.4236740000000 1.0
C      1  0.4924550000000  0.5764420000000  0.5961500000000 1.0
C      1  0.4917930000000  0.4048070000000  0.5748070000000 1.0
C      1  0.4929250000000  0.4236550000000  0.4034010000000 1.0
C      1  0.4938510000000  0.5959270000000  0.5750800000000 1.0
C      1  0.4921630000000  0.5768760000000  0.4031180000000 1.0
C      1  0.4939560000000  0.4034630000000  0.4237830000000 1.0
C      1  0.4929590000000  0.4239380000000  0.5962550000000 1.0
C      1  0.5591770000000  0.5347120000000  0.5132410000000 1.0
C      1  0.5685330000000  0.4861050000000  0.5328990000000 1.0
C      1  0.5703430000000  0.4673730000000  0.4855080000000 1.0
C      1  0.5673820000000  0.5147360000000  0.4667550000000 1.0
C      1  0.5673420000000  0.5365810000000  0.4865270000000 1.0
C      1  0.5598740000000  0.4874690000000  0.4695920000000 1.0
C      1  0.5646430000000  0.4671440000000  0.5130010000000 1.0
C      1  0.5678720000000  0.5161540000000  0.5325800000000 1.0
C      1  0.5848170000000  0.4855100000000  0.5714750000000 1.0
C      1  0.5848140000000  0.4289070000000  0.4862320000000 1.0
C      1  0.5864380000000  0.5144190000000  0.4275000000000 1.0
C      1  0.5878660000000  0.5665100000000  0.5134710000000 1.0
C      1  0.5872970000000  0.4855910000000  0.4338620000000 1.0
C      1  0.5861030000000  0.4315310000000  0.5144250000000 1.0
C      1  0.5852910000000  0.5138190000000  0.5714590000000 1.0
C      1  0.5858790000000  0.5730260000000  0.4841820000000 1.0
C      1  0.5794530000000  0.4362030000000  0.5427250000000 1.0
C      1  0.5783060000000  0.4571970000000  0.4372690000000 1.0
C      1  0.5809020000000  0.5650870000000  0.4555900000000 1.0
C      1  0.5805150000000  0.5425400000000  0.5653340000000 1.0
C      1  0.5789420000000  0.4345730000000  0.4579010000000 1.0
C      1  0.5795440000000  0.4577670000000  0.5652600000000 1.0
C      1  0.5809850000000  0.5629290000000  0.5419450000000 1.0
C      1  0.5795080000000  0.5434640000000  0.4345800000000 1.0
C      1  0.5389800000000  0.4321930000000  0.4114370000000 1.0
C      1  0.5370670000000  0.5887980000000  0.4312750000000 1.0
C      1  0.5385100000000  0.5697040000000  0.5901860000000 1.0
C      1  0.5376700000000  0.4102370000000  0.5686860000000 1.0
C      1  0.5375520000000  0.4310580000000  0.5896400000000 1.0
C      1  0.5392270000000  0.5896860000000  0.5694600000000 1.0
C      1  0.5371330000000  0.5683310000000  0.4108960000000 1.0
C      1  0.5390520000000  0.4113320000000  0.4319590000000 1.0
C      1  0.5321920000000  0.5140450000000  0.3931280000000 1.0
C      1  0.5331560000000  0.6074190000000  0.5155260000000 1.0
C      1  0.5326210000000  0.4856640000000  0.6092130000000 1.0
C      1  0.5318520000000  0.3902380000000  0.4848850000000 1.0
C      1  0.5338150000000  0.5155650000000  0.6094880000000 1.0
C      1  0.5327060000000  0.6075040000000  0.4859800000000 1.0
C      1  0.5324460000000  0.4849370000000  0.3899500000000 1.0
C      1  0.5323040000000  0.3930500000000  0.5139320000000 1.0
C      1  0.5408840000000  0.5143430000000  0.4488940000000 1.0
C      1  0.5372360000000  0.5514050000000  0.5236810000000 1.0
C      1  0.5421040000000  0.4858240000000  0.5513590000000 1.0
C      1  0.5349200000000  0.4514120000000  0.4875070000000 1.0
C      1  0.5416280000000  0.5154530000000  0.5506500000000 1.0
C      1  0.5418960000000  0.5547940000000  0.4748390000000 1.0
C      1  0.5370100000000  0.4864910000000  0.4524590000000 1.0
C      1  0.5410850000000  0.4494340000000  0.5159020000000 1.0
C      1  0.4336590000000  0.5943490000000  0.5127070000000 1.0
C      1  0.4341880000000  0.4871770000000  0.5947620000000 1.0
C      1  0.4335160000000  0.4056880000000  0.4874430000000 1.0
C      1  0.4343310000000  0.5124320000000  0.4051010000000 1.0
C      1  0.4341780000000  0.5944010000000  0.4875720000000 1.0
C      1  0.4331530000000  0.4871860000000  0.4058660000000 1.0
C      1  0.4336450000000  0.4054260000000  0.5129240000000 1.0
C      1  0.4336570000000  0.5126100000000  0.5943170000000 1.0
C      1  0.5085650000000  0.5309930000000  0.3884370000000 1.0
C      1  0.5099820000000  0.6115410000000  0.5317010000000 1.0
C      1  0.5086200000000  0.4690430000000  0.6130370000000 1.0
C      1  0.5093880000000  0.3868460000000  0.4678420000000 1.0
C      1  0.5104440000000  0.5322290000000  0.6123920000000 1.0
C      1  0.5090080000000  0.6119530000000  0.4694050000000 1.0
C      1  0.5097480000000  0.4677720000000  0.3872530000000 1.0
C      1  0.5085180000000  0.3884290000000  0.5309090000000 1.0
C      1  0.4844740000000  0.6093590000000  0.4840250000000 1.0
C      1  0.4850740000000  0.5149290000000  0.6032730000000 1.0
C      1  0.4839870000000  0.3899060000000  0.5154440000000 1.0
C      1  0.4846540000000  0.4851340000000  0.3965550000000 1.0
C      1  0.4855230000000  0.6014040000000  0.5146920000000 1.0
C      1  0.4841860000000  0.5154860000000  0.3893650000000 1.0
C      1  0.4846990000000  0.3965240000000  0.4851390000000 1.0
C      1  0.4840620000000  0.4835910000000  0.6105760000000 1.0
C      1  0.4727700000000  0.5628840000000  0.5822450000000 1.0
C      1  0.4765970000000  0.4214850000000  0.5579480000000 1.0
C      1  0.4718620000000  0.4357990000000  0.4166240000000 1.0
C      1  0.4765950000000  0.5775700000000  0.4416090000000 1.0
C      1  0.4721040000000  0.5642610000000  0.4175910000000 1.0
C      1  0.4750440000000  0.4218390000000  0.4401080000000 1.0
C      1  0.4773970000000  0.4419240000000  0.5762930000000 1.0
C      1  0.4763450000000  0.5758980000000  0.5579630000000 1.0
C      1  0.4895810000000  0.4418450000000  0.4606460000000 1.0
C      1  0.5008420000000  0.5362150000000  0.4455680000000 1.0
C      1  0.4890920000000  0.5581200000000  0.5389820000000 1.0
C      1  0.4984920000000  0.4607500000000  0.5603210000000 1.0
C      1  0.5014850000000  0.4435380000000  0.5367620000000 1.0
C      1  0.4916590000000  0.5306440000000  0.5497780000000 1.0
C      1  0.4941000000000  0.5602100000000  0.4596260000000 1.0
C      1  0.4947150000000  0.4680260000000  0.4487650000000 1.0
C      1  0.4418690000000  0.5186870000000  0.4604930000000 1.0
C      1  0.4404020000000  0.5401080000000  0.5112030000000 1.0
C      1  0.4412960000000  0.4852790000000  0.5415600000000 1.0
C      1  0.4449400000000  0.4579380000000  0.4869170000000 1.0
C      1  0.4422350000000  0.5144090000000  0.5420580000000 1.0
C      1  0.4408250000000  0.5409680000000  0.4826510000000 1.0
C      1  0.4403130000000  0.4886130000000  0.4589350000000 1.0
C      1  0.4419680000000  0.4593450000000  0.5156300000000 1.0
C      1  0.4723400000000  0.4649070000000  0.5150080000000 1.0
C      1  0.4661560000000  0.4888860000000  0.4697390000000 1.0
C      1  0.4790030000000  0.5304150000000  0.4882270000000 1.0
C      1  0.4694390000000  0.5161590000000  0.5331920000000 1.0
C      1  0.4724380000000  0.4688400000000  0.4858170000000 1.0
C      1  0.4710250000000  0.4870120000000  0.5368940000000 1.0
C      1  0.4648250000000  0.5259370000000  0.5098850000000 1.0
C      1  0.4717920000000  0.5157850000000  0.4648550000000 1.0
C      1  0.4059370000000  0.4442010000000  0.5356480000000 1.0
C      1  0.4058060000000  0.4653980000000  0.4446230000000 1.0
C      1  0.4048370000000  0.5559560000000  0.4643720000000 1.0
C      1  0.4052990000000  0.5346650000000  0.5550960000000 1.0
C      1  0.4062160000000  0.4450790000000  0.4655060000000 1.0
C      1  0.4055260000000  0.4648050000000  0.5559650000000 1.0
C      1  0.4056510000000  0.5551640000000  0.5344690000000 1.0
C      1  0.4058780000000  0.5353350000000  0.4441320000000 1.0
C      1  0.5141540000000  0.3951880000000  0.5592250000000 1.0
C      1  0.5153460000000  0.4405410000000  0.3952610000000 1.0
C      1  0.5154880000000  0.6054460000000  0.4401840000000 1.0
C      1  0.5148800000000  0.5597190000000  0.6052700000000 1.0
C      1  0.5156880000000  0.3943820000000  0.4401240000000 1.0
C      1  0.5146020000000  0.4398760000000  0.6053740000000 1.0
C      1  0.5161880000000  0.6054470000000  0.5594780000000 1.0
C      1  0.5138720000000  0.5593830000000  0.3955600000000 1.0
C      1  0.6073830000000  0.4885220000000  0.4692590000000 1.0
C      1  0.6018810000000  0.5362830000000  0.4856040000000 1.0
C      1  0.6021430000000  0.5154990000000  0.5344670000000 1.0
C      1  0.6047520000000  0.4677960000000  0.5131830000000 1.0
C      1  0.6019050000000  0.4857310000000  0.5345310000000 1.0
C      1  0.6068840000000  0.5301630000000  0.5120740000000 1.0
C      1  0.6021350000000  0.5150080000000  0.4644070000000 1.0
C      1  0.6031640000000  0.4653520000000  0.4844960000000 1.0
C      1  0.5243180000000  0.5340330000000  0.4847040000000 1.0
C      1  0.5147480000000  0.5140640000000  0.5336670000000 1.0
C      1  0.5158020000000  0.4640850000000  0.5201050000000 1.0
C      1  0.5108600000000  0.4845700000000  0.4671090000000 1.0
C      1  0.5181700000000  0.5329300000000  0.5113940000000 1.0
C      1  0.5163720000000  0.5184120000000  0.4627970000000 1.0
C      1  0.5115770000000  0.4674780000000  0.4905310000000 1.0
C      1  0.5180860000000  0.4851910000000  0.5362160000000 1.0
END
