TITL C-2441167-4473-906 0.195083857492835 125000 -20367.8635192677 0 0 168 (C1) n - 1
REM
REM in /home/bkarasulu/work/CARBON/AIRSS/Generating-Clusters/ReaxFF-fromJPCA2015/Units_Real/with-SteepDescent/Higher-Symm
REM
REM
REM
REM
REM
REM ./C.cell (1df0a924f5614ab8850e4351716899ee)
REM
REM compiler GCC version 9.2.1 20190827 (Red Hat 9.2.1-1)
REM options -cpp -mtune=generic -march=x86-64 -g -O0 -fpre-include=/usr/include/finclude/math-vector-fortran.h
REM seed 1705153543 461604457 1519218519 -649061993 -1094321356 2104692838 -1611294440 -1447428982 -35752872 30444638 -1237412097 1909033304 -1261823026 -1161789761 -941440785 -1052154933 1856016774 -1704826334 -272931396 5590265 -1017230506 2071936562 1394675827 1544951562 -613831084 1705244 346144872 1507467409 -2058190751 593677106 1127527934 1185997832 -1804232450
REM
CELL 1.54180   50.00000   50.00000   50.00000   90.00000   90.00000   90.00000
LATT -1
SFAC C  
C      1  0.4493980000000  0.4794880000000  0.4705610000000 1.0
C      1  0.5489710000000  0.5210280000000  0.5272600000000 1.0
C      1  0.4325870000000  0.4448690000000  0.4802500000000 1.0
C      1  0.5663530000000  0.5558020000000  0.5194370000000 1.0
C      1  0.5451280000000  0.4760980000000  0.5263120000000 1.0
C      1  0.4529760000000  0.5284460000000  0.4759750000000 1.0
C      1  0.5939810000000  0.5285790000000  0.4508030000000 1.0
C      1  0.4075790000000  0.4726160000000  0.5533710000000 1.0
C      1  0.4759160000000  0.4946080000000  0.5353400000000 1.0
C      1  0.5177090000000  0.5008360000000  0.4793590000000 1.0
C      1  0.5277990000000  0.4850920000000  0.5693330000000 1.0
C      1  0.4719460000000  0.5142400000000  0.4283110000000 1.0
C      1  0.4465530000000  0.4185490000000  0.5186600000000 1.0
C      1  0.5558900000000  0.5831660000000  0.4799500000000 1.0
C      1  0.3990000000000  0.4880340000000  0.5299860000000 1.0
C      1  0.6029510000000  0.5147260000000  0.4764060000000 1.0
C      1  0.4857840000000  0.5608500000000  0.4215120000000 1.0
C      1  0.5134020000000  0.4392460000000  0.5783090000000 1.0
C      1  0.5994520000000  0.5278380000000  0.5326540000000 1.0
C      1  0.3982780000000  0.4716810000000  0.4688300000000 1.0
C      1  0.4675580000000  0.4505640000000  0.5045140000000 1.0
C      1  0.5308100000000  0.5524910000000  0.4977240000000 1.0
C      1  0.5385860000000  0.5297630000000  0.5534810000000 1.0
C      1  0.4641570000000  0.4715180000000  0.4465280000000 1.0
C      1  0.4405420000000  0.5003050000000  0.5630050000000 1.0
C      1  0.5654580000000  0.5001170000000  0.4416080000000 1.0
C      1  0.5283480000000  0.5915770000000  0.4762750000000 1.0
C      1  0.4745990000000  0.4085110000000  0.5210380000000 1.0
C      1  0.4121290000000  0.4967970000000  0.5684000000000 1.0
C      1  0.5944590000000  0.4995290000000  0.4400550000000 1.0
C      1  0.4901010000000  0.5867870000000  0.5190110000000 1.0
C      1  0.5107790000000  0.4147620000000  0.4799530000000 1.0
C      1  0.5213230000000  0.4025430000000  0.4546850000000 1.0
C      1  0.4795350000000  0.5969110000000  0.5437010000000 1.0
C      1  0.4323640000000  0.5032370000000  0.4191860000000 1.0
C      1  0.5700970000000  0.4959770000000  0.5677320000000 1.0
C      1  0.5880820000000  0.5418050000000  0.5558620000000 1.0
C      1  0.4126930000000  0.4614580000000  0.4454910000000 1.0
C      1  0.5249030000000  0.5398220000000  0.4515760000000 1.0
C      1  0.4714990000000  0.4578730000000  0.5506510000000 1.0
C      1  0.4386840000000  0.4999030000000  0.5081840000000 1.0
C      1  0.5592140000000  0.4911450000000  0.4914730000000 1.0
C      1  0.5044730000000  0.4961160000000  0.5629680000000 1.0
C      1  0.4934010000000  0.5042820000000  0.4391680000000 1.0
C      1  0.5209380000000  0.5126520000000  0.4363830000000 1.0
C      1  0.4779300000000  0.4842830000000  0.5629010000000 1.0
C      1  0.4652690000000  0.5427550000000  0.5124370000000 1.0
C      1  0.5359320000000  0.4574180000000  0.4837950000000 1.0
C      1  0.4199710000000  0.5463150000000  0.4433720000000 1.0
C      1  0.5774190000000  0.4559290000000  0.5558420000000 1.0
C      1  0.6023100000000  0.4878480000000  0.4662430000000 1.0
C      1  0.4043090000000  0.5155140000000  0.5339800000000 1.0
C      1  0.4630210000000  0.4132940000000  0.4728230000000 1.0
C      1  0.5378790000000  0.5881770000000  0.5266090000000 1.0
C      1  0.4979750000000  0.5067700000000  0.6045170000000 1.0
C      1  0.5057780000000  0.4950690000000  0.3953700000000 1.0
C      1  0.4908290000000  0.4786840000000  0.4508600000000 1.0
C      1  0.5049480000000  0.5222210000000  0.5519020000000 1.0
C      1  0.5931390000000  0.4563360000000  0.5107300000000 1.0
C      1  0.4074340000000  0.5455890000000  0.4871470000000 1.0
C      1  0.4538780000000  0.5809940000000  0.5533880000000 1.0
C      1  0.5469240000000  0.4152540000000  0.4523520000000 1.0
C      1  0.5867530000000  0.5381580000000  0.5091510000000 1.0
C      1  0.4113060000000  0.4596510000000  0.4913850000000 1.0
C      1  0.5020190000000  0.5440560000000  0.4053720000000 1.0
C      1  0.4974200000000  0.4559580000000  0.5942940000000 1.0
C      1  0.5354120000000  0.4587790000000  0.5696870000000 1.0
C      1  0.4644530000000  0.5407650000000  0.4294130000000 1.0
C      1  0.4068150000000  0.5026580000000  0.4615140000000 1.0
C      1  0.5936190000000  0.4985980000000  0.5263870000000 1.0
C      1  0.4829620000000  0.5609330000000  0.5294590000000 1.0
C      1  0.5198300000000  0.4400710000000  0.4664890000000 1.0
C      1  0.5199870000000  0.4917710000000  0.5200340000000 1.0
C      1  0.4755080000000  0.5129330000000  0.4851790000000 1.0
C      1  0.5290130000000  0.4840410000000  0.4380990000000 1.0
C      1  0.4757470000000  0.5328520000000  0.5595390000000 1.0
C      1  0.4933430000000  0.5819770000000  0.4407210000000 1.0
C      1  0.5067460000000  0.4178690000000  0.5582320000000 1.0
C      1  0.5104720000000  0.4828150000000  0.6046920000000 1.0
C      1  0.4914270000000  0.5180110000000  0.3941200000000 1.0
C      1  0.5058930000000  0.4150080000000  0.4322500000000 1.0
C      1  0.4937090000000  0.5846800000000  0.5661180000000 1.0
C      1  0.4414550000000  0.4202430000000  0.4902310000000 1.0
C      1  0.5598560000000  0.5821710000000  0.5090350000000 1.0
C      1  0.5049520000000  0.5175310000000  0.5239210000000 1.0
C      1  0.5013180000000  0.4785330000000  0.4755130000000 1.0
C      1  0.5641620000000  0.4223570000000  0.4738090000000 1.0
C      1  0.4384630000000  0.5771530000000  0.5277330000000 1.0
C      1  0.4124640000000  0.4882370000000  0.4333200000000 1.0
C      1  0.5850910000000  0.5181570000000  0.5694140000000 1.0
C      1  0.4031500000000  0.5323290000000  0.4626040000000 1.0
C      1  0.5941950000000  0.4697620000000  0.5359260000000 1.0
C      1  0.4259120000000  0.4515600000000  0.5595120000000 1.0
C      1  0.5730440000000  0.5456720000000  0.4409220000000 1.0
C      1  0.4622570000000  0.4734980000000  0.4169990000000 1.0
C      1  0.5366240000000  0.5244320000000  0.5834860000000 1.0
C      1  0.4968370000000  0.5452790000000  0.4664460000000 1.0
C      1  0.5055420000000  0.4532060000000  0.5315310000000 1.0
C      1  0.5417870000000  0.4126950000000  0.5244290000000 1.0
C      1  0.4646080000000  0.5858140000000  0.4815630000000 1.0
C      1  0.4480070000000  0.4922640000000  0.5348710000000 1.0
C      1  0.5540150000000  0.5072170000000  0.4679660000000 1.0
C      1  0.4339550000000  0.5309480000000  0.4236070000000 1.0
C      1  0.5644790000000  0.4694080000000  0.5779480000000 1.0
C      1  0.5853270000000  0.5098300000000  0.4992470000000 1.0
C      1  0.4138350000000  0.4851000000000  0.5046780000000 1.0
C      1  0.4847390000000  0.4097320000000  0.4927310000000 1.0
C      1  0.5185150000000  0.5815950000000  0.5040540000000 1.0
C      1  0.5682690000000  0.5589900000000  0.4662680000000 1.0
C      1  0.4329640000000  0.4386170000000  0.5350000000000 1.0
C      1  0.4986640000000  0.5182280000000  0.4745950000000 1.0
C      1  0.4952730000000  0.4796030000000  0.5230910000000 1.0
C      1  0.5145190000000  0.4498760000000  0.5039760000000 1.0
C      1  0.4881140000000  0.5496840000000  0.4937290000000 1.0
C      1  0.4430070000000  0.5806400000000  0.4989540000000 1.0
C      1  0.5583170000000  0.4208470000000  0.5021130000000 1.0
C      1  0.4465430000000  0.5551380000000  0.5740000000000 1.0
C      1  0.5471060000000  0.4463320000000  0.4251620000000 1.0
C      1  0.5370100000000  0.4963300000000  0.5944530000000 1.0
C      1  0.4646870000000  0.5006410000000  0.4033880000000 1.0
C      1  0.4816840000000  0.4314800000000  0.4288240000000 1.0
C      1  0.5181580000000  0.5692170000000  0.5708140000000 1.0
C      1  0.5429720000000  0.4706050000000  0.4579970000000 1.0
C      1  0.4562340000000  0.5323080000000  0.5381930000000 1.0
C      1  0.5214370000000  0.5881230000000  0.4477100000000 1.0
C      1  0.4793980000000  0.4105100000000  0.5505130000000 1.0
C      1  0.5379840000000  0.4731320000000  0.4112740000000 1.0
C      1  0.4644620000000  0.5374110000000  0.5875970000000 1.0
C      1  0.5393910000000  0.5748810000000  0.5523190000000 1.0
C      1  0.4592670000000  0.4287020000000  0.4479030000000 1.0
C      1  0.4861170000000  0.5887210000000  0.4672990000000 1.0
C      1  0.5147600000000  0.4123250000000  0.5311010000000 1.0
C      1  0.5608740000000  0.4330520000000  0.5436550000000 1.0
C      1  0.4382710000000  0.5662910000000  0.4555260000000 1.0
C      1  0.5651610000000  0.4573020000000  0.4447430000000 1.0
C      1  0.4313930000000  0.5398380000000  0.5537600000000 1.0
C      1  0.5309040000000  0.5493540000000  0.4096640000000 1.0
C      1  0.4689440000000  0.4482330000000  0.5911070000000 1.0
C      1  0.5551000000000  0.5045360000000  0.4148050000000 1.0
C      1  0.4331560000000  0.4865950000000  0.5874310000000 1.0
C      1  0.4847560000000  0.4555810000000  0.4119570000000 1.0
C      1  0.5169050000000  0.5449640000000  0.5884980000000 1.0
C      1  0.4360730000000  0.5057660000000  0.4678340000000 1.0
C      1  0.5635450000000  0.4970340000000  0.5360760000000 1.0
C      1  0.4251960000000  0.5673090000000  0.4811540000000 1.0
C      1  0.5756920000000  0.4343570000000  0.5186350000000 1.0
C      1  0.5208090000000  0.4401240000000  0.4370710000000 1.0
C      1  0.4797940000000  0.5607460000000  0.5556110000000 1.0
C      1  0.4688000000000  0.4339480000000  0.5656570000000 1.0
C      1  0.5324930000000  0.5636100000000  0.4349060000000 1.0
C      1  0.4051580000000  0.5373590000000  0.5160770000000 1.0
C      1  0.5949340000000  0.4639820000000  0.4820370000000 1.0
C      1  0.5092060000000  0.4687530000000  0.4002550000000 1.0
C      1  0.4914630000000  0.5333790000000  0.6004110000000 1.0
C      1  0.5548330000000  0.5331580000000  0.4169540000000 1.0
C      1  0.4419440000000  0.4592840000000  0.5841440000000 1.0
C      1  0.5803710000000  0.4452730000000  0.4663830000000 1.0
C      1  0.4189990000000  0.5571390000000  0.5329420000000 1.0
C      1  0.4904940000000  0.4554620000000  0.4890420000000 1.0
C      1  0.5084440000000  0.5393400000000  0.5083550000000 1.0
C      1  0.4520950000000  0.4581420000000  0.5276990000000 1.0
C      1  0.5471900000000  0.5396960000000  0.4764300000000 1.0
C      1  0.5353520000000  0.5056190000000  0.5028190000000 1.0
C      1  0.4622510000000  0.4911670000000  0.4940160000000 1.0
C      1  0.5371500000000  0.4529180000000  0.5413880000000 1.0
C      1  0.4627650000000  0.5494440000000  0.4571270000000 1.0
C      1  0.5602770000000  0.5545810000000  0.5481100000000 1.0
C      1  0.4345270000000  0.4433270000000  0.4522740000000 1.0
END
