TITL C-2441167-4473-624 0.0599535452098836 125000 -24057.7069143377 0 0 176 (C1) n - 1
REM
REM in /home/bkarasulu/work/CARBON/AIRSS/Generating-Clusters/ReaxFF-fromJPCA2015/Units_Real/with-SteepDescent/Higher-Symm
REM
REM
REM
REM
REM
REM ./C.cell (1df0a924f5614ab8850e4351716899ee)
REM
REM compiler GCC version 9.2.1 20190827 (Red Hat 9.2.1-1)
REM options -cpp -mtune=generic -march=x86-64 -g -O0 -fpre-include=/usr/include/finclude/math-vector-fortran.h
REM seed 1255723417 -619464266 -1073900015 1025081659 -1362927213 -1352945013 628184819 -345986374 337466979 1418394002 -1587501350 2132605581 158857924 -1470413810 -1527315149 1188023720 -1669973790 2100345844 -1875891938 -168419838 1917509403 -78802162 -184814846 1716947678 -1294195939 -1443674571 827101287 -39369403 -1624928349 1443221141 -286490374 -124067735 1221454627
REM
CELL 1.54180   50.00000   50.00000   50.00000   90.00000   90.00000   90.00000
LATT -1
SFAC C  
C      1  0.5213110000000  0.4967700000000  0.6080850000000 1.0
C      1  0.5235810000000  0.5061830000000  0.3872670000000 1.0
C      1  0.4791360000000  0.5147860000000  0.6071180000000 1.0
C      1  0.4832700000000  0.4834260000000  0.3944480000000 1.0
C      1  0.5272700000000  0.6051300000000  0.4877800000000 1.0
C      1  0.5169700000000  0.3975740000000  0.5009350000000 1.0
C      1  0.4810800000000  0.6076820000000  0.4990180000000 1.0
C      1  0.4755230000000  0.3944190000000  0.4950220000000 1.0
C      1  0.5151840000000  0.4954740000000  0.5562140000000 1.0
C      1  0.5171980000000  0.5040860000000  0.4485340000000 1.0
C      1  0.4864160000000  0.5028340000000  0.5537470000000 1.0
C      1  0.4869680000000  0.4987740000000  0.4472530000000 1.0
C      1  0.5176490000000  0.5566290000000  0.4968480000000 1.0
C      1  0.5175940000000  0.4493290000000  0.5017090000000 1.0
C      1  0.4883370000000  0.5529120000000  0.5035970000000 1.0
C      1  0.4858970000000  0.4480510000000  0.4973150000000 1.0
C      1  0.6044010000000  0.5055880000000  0.5197560000000 1.0
C      1  0.6039220000000  0.5027870000000  0.4773670000000 1.0
C      1  0.3937860000000  0.4995110000000  0.5224650000000 1.0
C      1  0.3983210000000  0.5016940000000  0.4798850000000 1.0
C      1  0.5998220000000  0.5252660000000  0.4991490000000 1.0
C      1  0.6055580000000  0.4827340000000  0.4979690000000 1.0
C      1  0.3955350000000  0.5220490000000  0.4998690000000 1.0
C      1  0.3954230000000  0.4798860000000  0.5017610000000 1.0
C      1  0.4086310000000  0.5065280000000  0.4519460000000 1.0
C      1  0.4031180000000  0.4940250000000  0.5496810000000 1.0
C      1  0.5959960000000  0.4964440000000  0.4493990000000 1.0
C      1  0.5963240000000  0.5081230000000  0.5476180000000 1.0
C      1  0.4055490000000  0.4526960000000  0.5094060000000 1.0
C      1  0.4050690000000  0.5491520000000  0.4948730000000 1.0
C      1  0.5976920000000  0.4543520000000  0.4949430000000 1.0
C      1  0.5892960000000  0.5529200000000  0.5053790000000 1.0
C      1  0.5515200000000  0.4569430000000  0.5806750000000 1.0
C      1  0.5398900000000  0.5495270000000  0.4151870000000 1.0
C      1  0.4493250000000  0.5454040000000  0.5779020000000 1.0
C      1  0.4515670000000  0.4565940000000  0.4229230000000 1.0
C      1  0.5484160000000  0.5789410000000  0.4512540000000 1.0
C      1  0.5506610000000  0.4190170000000  0.5450320000000 1.0
C      1  0.4520770000000  0.5809980000000  0.5424150000000 1.0
C      1  0.4578030000000  0.4157630000000  0.4533010000000 1.0
C      1  0.5428820000000  0.5272690000000  0.5915590000000 1.0
C      1  0.5450550000000  0.4759930000000  0.4042240000000 1.0
C      1  0.4616920000000  0.4738880000000  0.5945660000000 1.0
C      1  0.4626410000000  0.5275090000000  0.4024920000000 1.0
C      1  0.5365550000000  0.5942280000000  0.5273240000000 1.0
C      1  0.5565950000000  0.4017250000000  0.4786950000000 1.0
C      1  0.4439200000000  0.5940190000000  0.4847360000000 1.0
C      1  0.4342760000000  0.4002990000000  0.5205780000000 1.0
C      1  0.4880450000000  0.4617040000000  0.6037050000000 1.0
C      1  0.4881540000000  0.5361810000000  0.3934660000000 1.0
C      1  0.5068930000000  0.5213570000000  0.6069340000000 1.0
C      1  0.5106340000000  0.4811370000000  0.3879100000000 1.0
C      1  0.5002380000000  0.6065120000000  0.4763040000000 1.0
C      1  0.5024980000000  0.3925600000000  0.5259900000000 1.0
C      1  0.5101520000000  0.6024940000000  0.5347560000000 1.0
C      1  0.4997440000000  0.3960140000000  0.4767790000000 1.0
C      1  0.5557960000000  0.5691660000000  0.4063170000000 1.0
C      1  0.5577180000000  0.4299620000000  0.5922170000000 1.0
C      1  0.4367670000000  0.4325980000000  0.4171310000000 1.0
C      1  0.4388280000000  0.5711950000000  0.5877010000000 1.0
C      1  0.5611930000000  0.4099170000000  0.5713120000000 1.0
C      1  0.5589110000000  0.5889100000000  0.4265560000000 1.0
C      1  0.4389430000000  0.4097020000000  0.4343620000000 1.0
C      1  0.4425660000000  0.5930380000000  0.5677040000000 1.0
C      1  0.5617840000000  0.4656480000000  0.5146040000000 1.0
C      1  0.5571250000000  0.5345110000000  0.4841510000000 1.0
C      1  0.4413450000000  0.5346060000000  0.5135900000000 1.0
C      1  0.4351940000000  0.4642970000000  0.4816350000000 1.0
C      1  0.5612620000000  0.5139670000000  0.4654330000000 1.0
C      1  0.5593220000000  0.4852770000000  0.5369030000000 1.0
C      1  0.4402800000000  0.5150360000000  0.5361550000000 1.0
C      1  0.4421160000000  0.4778890000000  0.4574440000000 1.0
C      1  0.5373400000000  0.5007840000000  0.5823860000000 1.0
C      1  0.5378290000000  0.5011070000000  0.4180270000000 1.0
C      1  0.4651270000000  0.5011480000000  0.5818610000000 1.0
C      1  0.4671770000000  0.5014590000000  0.4178720000000 1.0
C      1  0.5397860000000  0.5805770000000  0.5008540000000 1.0
C      1  0.5381620000000  0.4192080000000  0.4991750000000 1.0
C      1  0.4673640000000  0.5818500000000  0.4980990000000 1.0
C      1  0.4664510000000  0.4214630000000  0.5004340000000 1.0
C      1  0.4398800000000  0.5173430000000  0.5790750000000 1.0
C      1  0.4381590000000  0.4990020000000  0.4201290000000 1.0
C      1  0.5631520000000  0.4839170000000  0.5793260000000 1.0
C      1  0.5658510000000  0.5057830000000  0.4225700000000 1.0
C      1  0.4360700000000  0.5849880000000  0.5128480000000 1.0
C      1  0.4385150000000  0.4182980000000  0.4956000000000 1.0
C      1  0.5711190000000  0.5729170000000  0.4945220000000 1.0
C      1  0.5619590000000  0.4204450000000  0.5169390000000 1.0
C      1  0.4200440000000  0.4402140000000  0.4875300000000 1.0
C      1  0.4235380000000  0.5586580000000  0.5150670000000 1.0
C      1  0.5662610000000  0.5593460000000  0.4707140000000 1.0
C      1  0.5809420000000  0.4428220000000  0.5160120000000 1.0
C      1  0.4210960000000  0.4833050000000  0.4367780000000 1.0
C      1  0.4196850000000  0.5161840000000  0.5581630000000 1.0
C      1  0.5816470000000  0.4852540000000  0.5573490000000 1.0
C      1  0.5801530000000  0.5198910000000  0.4419070000000 1.0
C      1  0.5592260000000  0.4856820000000  0.4660570000000 1.0
C      1  0.5560790000000  0.5137360000000  0.5334210000000 1.0
C      1  0.4501470000000  0.5031120000000  0.4725100000000 1.0
C      1  0.4400500000000  0.4867690000000  0.5309670000000 1.0
C      1  0.5595520000000  0.4662840000000  0.4856560000000 1.0
C      1  0.5530620000000  0.5325220000000  0.5133590000000 1.0
C      1  0.4484850000000  0.4755570000000  0.5055350000000 1.0
C      1  0.4405310000000  0.5272330000000  0.4856530000000 1.0
C      1  0.4819360000000  0.5485370000000  0.5712780000000 1.0
C      1  0.4834320000000  0.4517860000000  0.4294430000000 1.0
C      1  0.5141180000000  0.4446700000000  0.5710560000000 1.0
C      1  0.5148640000000  0.5514320000000  0.4287030000000 1.0
C      1  0.4848010000000  0.5707030000000  0.5516910000000 1.0
C      1  0.4832680000000  0.4279150000000  0.4536900000000 1.0
C      1  0.5169730000000  0.5724200000000  0.4493070000000 1.0
C      1  0.5176750000000  0.4274340000000  0.5477120000000 1.0
C      1  0.5358840000000  0.5711540000000  0.5611420000000 1.0
C      1  0.5361680000000  0.4268220000000  0.4504820000000 1.0
C      1  0.4638140000000  0.4263690000000  0.5443910000000 1.0
C      1  0.4649970000000  0.5729730000000  0.4537530000000 1.0
C      1  0.5327630000000  0.5438980000000  0.5715520000000 1.0
C      1  0.5354080000000  0.4441170000000  0.4288950000000 1.0
C      1  0.4646190000000  0.5550420000000  0.4327270000000 1.0
C      1  0.4646340000000  0.4437450000000  0.5666140000000 1.0
C      1  0.4883750000000  0.5660890000000  0.4208590000000 1.0
C      1  0.4893070000000  0.4305140000000  0.5766670000000 1.0
C      1  0.5080070000000  0.4354950000000  0.4217950000000 1.0
C      1  0.5076920000000  0.5557010000000  0.5857140000000 1.0
C      1  0.4887800000000  0.4124960000000  0.5514160000000 1.0
C      1  0.4895930000000  0.5854460000000  0.4426800000000 1.0
C      1  0.5092720000000  0.4163390000000  0.4439960000000 1.0
C      1  0.5092000000000  0.5793190000000  0.5682080000000 1.0
C      1  0.4855230000000  0.4969700000000  0.5213140000000 1.0
C      1  0.4763100000000  0.5124840000000  0.4705770000000 1.0
C      1  0.5155760000000  0.4975120000000  0.5199020000000 1.0
C      1  0.5220470000000  0.4982510000000  0.4780170000000 1.0
C      1  0.4864050000000  0.5220150000000  0.4970010000000 1.0
C      1  0.4755600000000  0.4718610000000  0.5102600000000 1.0
C      1  0.5165120000000  0.5183710000000  0.4987890000000 1.0
C      1  0.5222430000000  0.4782690000000  0.4982260000000 1.0
C      1  0.5159000000000  0.4670530000000  0.6112390000000 1.0
C      1  0.5148340000000  0.5345600000000  0.3842120000000 1.0
C      1  0.4711080000000  0.5395040000000  0.6146470000000 1.0
C      1  0.4759180000000  0.4600280000000  0.3875030000000 1.0
C      1  0.5259890000000  0.6168680000000  0.4620430000000 1.0
C      1  0.5246900000000  0.3861000000000  0.5401660000000 1.0
C      1  0.4843930000000  0.6109130000000  0.5298590000000 1.0
C      1  0.4750700000000  0.3822150000000  0.4686400000000 1.0
C      1  0.5590920000000  0.4603470000000  0.4227050000000 1.0
C      1  0.5626370000000  0.5380670000000  0.5769400000000 1.0
C      1  0.4419800000000  0.5387710000000  0.4232160000000 1.0
C      1  0.4443640000000  0.4612200000000  0.5756700000000 1.0
C      1  0.5635230000000  0.4230070000000  0.4608610000000 1.0
C      1  0.5537570000000  0.5757960000000  0.5406140000000 1.0
C      1  0.4343410000000  0.4224890000000  0.5404910000000 1.0
C      1  0.4377370000000  0.5759800000000  0.4632660000000 1.0
C      1  0.5701330000000  0.5522780000000  0.5299040000000 1.0
C      1  0.5797600000000  0.4493680000000  0.4705190000000 1.0
C      1  0.4168440000000  0.4459970000000  0.5354160000000 1.0
C      1  0.4233200000000  0.5496150000000  0.4687040000000 1.0
C      1  0.5764870000000  0.5306140000000  0.5527330000000 1.0
C      1  0.5777980000000  0.4714810000000  0.4466150000000 1.0
C      1  0.4217490000000  0.5313280000000  0.4437760000000 1.0
C      1  0.4236830000000  0.4696570000000  0.5525050000000 1.0
C      1  0.5143690000000  0.5324370000000  0.4495560000000 1.0
C      1  0.5138370000000  0.4670330000000  0.5524680000000 1.0
C      1  0.4885980000000  0.4704140000000  0.4511960000000 1.0
C      1  0.4875520000000  0.5307920000000  0.5509450000000 1.0
C      1  0.5157920000000  0.4498780000000  0.5301580000000 1.0
C      1  0.5140690000000  0.5515630000000  0.4689820000000 1.0
C      1  0.4854260000000  0.4507470000000  0.4695140000000 1.0
C      1  0.4896850000000  0.5503770000000  0.5322740000000 1.0
C      1  0.5395180000000  0.4485240000000  0.6064400000000 1.0
C      1  0.5388170000000  0.5523260000000  0.3889250000000 1.0
C      1  0.4526380000000  0.5591750000000  0.6106560000000 1.0
C      1  0.4524210000000  0.4470120000000  0.3946150000000 1.0
C      1  0.5476080000000  0.6076500000000  0.4453120000000 1.0
C      1  0.5467840000000  0.3890380000000  0.5561590000000 1.0
C      1  0.4602830000000  0.6081080000000  0.5490050000000 1.0
C      1  0.4550920000000  0.3890570000000  0.4490260000000 1.0
END
