TITL C-2441169-1362-774 0.0525452663625614 125000 -15349.8999866338 0 0 111 (C1) n - 1
REM
REM in /home/bkarasulu/work/CARBON/AIRSS/Generating-Clusters/ReaxFF-fromJPCA2015/Units_Real/with-SteepDescent/Higher-Symm
REM
REM
REM
REM
REM
REM ./C.cell (1df0a924f5614ab8850e4351716899ee)
REM
REM compiler GCC version 9.2.1 20190827 (Red Hat 9.2.1-1)
REM options -cpp -mtune=generic -march=x86-64 -g -O0 -fpre-include=/usr/include/finclude/math-vector-fortran.h
REM seed 1297947663 -1448084658 1149886337 -1660015032 -1786202492 -431332956 -1351667490 -696947560 -161454779 1157826207 -404979994 -2129669909 1057945570 -1260935661 955816198 1587585 -15443898 -733984060 1565342625 2067022709 -476176946 67850954 -454590412 1158943078 989820657 -492922025 23298520 1594882239 -772449434 -2142394276 1400735145 -1911808017 1540780265
REM
CELL 1.54180   50.00000   50.00000   50.00000   90.00000   90.00000   90.00000
LATT -1
SFAC C  
C      1  0.4967810000000  0.5698870000000  0.4400490000000 1.0
C      1  0.4281440000000  0.4841230000000  0.4672320000000 1.0
C      1  0.5050820000000  0.4402920000000  0.5519400000000 1.0
C      1  0.4770200000000  0.5538340000000  0.4525860000000 1.0
C      1  0.4662120000000  0.5279760000000  0.5076540000000 1.0
C      1  0.5405010000000  0.5657860000000  0.5551830000000 1.0
C      1  0.5182170000000  0.5545870000000  0.4322440000000 1.0
C      1  0.4393400000000  0.4267610000000  0.4857030000000 1.0
C      1  0.5249870000000  0.4602980000000  0.5607660000000 1.0
C      1  0.5747020000000  0.4612970000000  0.4858420000000 1.0
C      1  0.5078470000000  0.4899370000000  0.4870540000000 1.0
C      1  0.4178330000000  0.5142640000000  0.5041470000000 1.0
C      1  0.5614430000000  0.5081420000000  0.5591960000000 1.0
C      1  0.4892510000000  0.4340470000000  0.4293640000000 1.0
C      1  0.4346650000000  0.5442750000000  0.4704940000000 1.0
C      1  0.4916320000000  0.5713260000000  0.5574230000000 1.0
C      1  0.4626680000000  0.5037250000000  0.4282610000000 1.0
C      1  0.5009910000000  0.5861170000000  0.5338830000000 1.0
C      1  0.5175830000000  0.4396670000000  0.4283970000000 1.0
C      1  0.4710810000000  0.4945470000000  0.5784050000000 1.0
C      1  0.4803930000000  0.4541540000000  0.5580900000000 1.0
C      1  0.4350510000000  0.5585410000000  0.5191720000000 1.0
C      1  0.5567740000000  0.5674320000000  0.5165390000000 1.0
C      1  0.4533790000000  0.5294880000000  0.4257100000000 1.0
C      1  0.4494950000000  0.4234830000000  0.5367690000000 1.0
C      1  0.4690560000000  0.5325480000000  0.5533620000000 1.0
C      1  0.5279360000000  0.5725070000000  0.5286560000000 1.0
C      1  0.4539140000000  0.4844560000000  0.5049250000000 1.0
C      1  0.4075280000000  0.4880470000000  0.5126300000000 1.0
C      1  0.4535400000000  0.5674900000000  0.5391650000000 1.0
C      1  0.5184610000000  0.4797020000000  0.5126320000000 1.0
C      1  0.4134700000000  0.4711590000000  0.4881660000000 1.0
C      1  0.5603230000000  0.5243640000000  0.5349470000000 1.0
C      1  0.5821900000000  0.5122120000000  0.5169250000000 1.0
C      1  0.5493490000000  0.5736050000000  0.4686980000000 1.0
C      1  0.5227430000000  0.5739620000000  0.4815630000000 1.0
C      1  0.5624980000000  0.5532770000000  0.5405220000000 1.0
C      1  0.4430870000000  0.4933440000000  0.5659240000000 1.0
C      1  0.5015800000000  0.5197500000000  0.5927860000000 1.0
C      1  0.4990880000000  0.4959130000000  0.5303990000000 1.0
C      1  0.4442550000000  0.5149480000000  0.5450890000000 1.0
C      1  0.5075490000000  0.5934550000000  0.4939970000000 1.0
C      1  0.5035040000000  0.4827550000000  0.4476330000000 1.0
C      1  0.4753610000000  0.4695100000000  0.4914070000000 1.0
C      1  0.5519220000000  0.4891020000000  0.4257310000000 1.0
C      1  0.5748980000000  0.5362510000000  0.4751690000000 1.0
C      1  0.5079260000000  0.5246220000000  0.4250460000000 1.0
C      1  0.4684060000000  0.5776140000000  0.4915050000000 1.0
C      1  0.4520370000000  0.4147680000000  0.5099730000000 1.0
C      1  0.4919040000000  0.4153320000000  0.4773510000000 1.0
C      1  0.5540610000000  0.5165330000000  0.4214450000000 1.0
C      1  0.5398010000000  0.5110290000000  0.4657130000000 1.0
C      1  0.5234790000000  0.4439630000000  0.5110710000000 1.0
C      1  0.4260990000000  0.5306590000000  0.5257580000000 1.0
C      1  0.4991140000000  0.4672700000000  0.4715930000000 1.0
C      1  0.4827650000000  0.4603430000000  0.4180690000000 1.0
C      1  0.4955210000000  0.5153000000000  0.4783690000000 1.0
C      1  0.5610590000000  0.4308720000000  0.4502450000000 1.0
C      1  0.5228110000000  0.4819700000000  0.5804180000000 1.0
C      1  0.5192510000000  0.5269360000000  0.5717600000000 1.0
C      1  0.4493460000000  0.5480760000000  0.4458870000000 1.0
C      1  0.4529170000000  0.4432440000000  0.5565000000000 1.0
C      1  0.4418100000000  0.5644730000000  0.4906100000000 1.0
C      1  0.4601480000000  0.4752080000000  0.4289360000000 1.0
C      1  0.5385120000000  0.5063510000000  0.5749850000000 1.0
C      1  0.4841200000000  0.5556890000000  0.4809130000000 1.0
C      1  0.4665720000000  0.5034500000000  0.5229850000000 1.0
C      1  0.4743600000000  0.4498500000000  0.5120080000000 1.0
C      1  0.4445020000000  0.4657860000000  0.4516260000000 1.0
C      1  0.5806280000000  0.4868990000000  0.4742840000000 1.0
C      1  0.4660020000000  0.5189850000000  0.4803930000000 1.0
C      1  0.5198330000000  0.4182590000000  0.4732090000000 1.0
C      1  0.4350190000000  0.5134880000000  0.4777850000000 1.0
C      1  0.4467660000000  0.4594750000000  0.5180710000000 1.0
C      1  0.4644900000000  0.5612220000000  0.5642890000000 1.0
C      1  0.5564300000000  0.4860960000000  0.4562980000000 1.0
C      1  0.4512310000000  0.4383430000000  0.4616380000000 1.0
C      1  0.5111340000000  0.5438650000000  0.5194690000000 1.0
C      1  0.5448090000000  0.5587620000000  0.4444960000000 1.0
C      1  0.4984010000000  0.4911920000000  0.5932790000000 1.0
C      1  0.5291630000000  0.5200510000000  0.5207880000000 1.0
C      1  0.5054870000000  0.4274490000000  0.5258710000000 1.0
C      1  0.4166630000000  0.4774870000000  0.5378300000000 1.0
C      1  0.5234870000000  0.4465210000000  0.4816410000000 1.0
C      1  0.5112180000000  0.4693620000000  0.4234470000000 1.0
C      1  0.5413500000000  0.5117790000000  0.4957580000000 1.0
C      1  0.5721420000000  0.4860750000000  0.5224910000000 1.0
C      1  0.5752810000000  0.4433720000000  0.5089980000000 1.0
C      1  0.4254570000000  0.4469950000000  0.5009610000000 1.0
C      1  0.5646630000000  0.4391540000000  0.5365870000000 1.0
C      1  0.5857280000000  0.5127360000000  0.4881240000000 1.0
C      1  0.4329380000000  0.4673610000000  0.5587730000000 1.0
C      1  0.5100850000000  0.5460660000000  0.4891810000000 1.0
C      1  0.4796260000000  0.5227450000000  0.4165960000000 1.0
C      1  0.5155990000000  0.5545660000000  0.5650480000000 1.0
C      1  0.5100860000000  0.5103560000000  0.4521660000000 1.0
C      1  0.5585360000000  0.5327470000000  0.4491650000000 1.0
C      1  0.4833760000000  0.4211100000000  0.5069870000000 1.0
C      1  0.4753180000000  0.5244560000000  0.5818160000000 1.0
C      1  0.4863380000000  0.4824640000000  0.5519720000000 1.0
C      1  0.5693310000000  0.4823350000000  0.5512190000000 1.0
C      1  0.5515040000000  0.4547740000000  0.4679360000000 1.0
C      1  0.5535100000000  0.4583360000000  0.5556950000000 1.0
C      1  0.4820790000000  0.5409590000000  0.5271540000000 1.0
C      1  0.4849430000000  0.5949240000000  0.5103510000000 1.0
C      1  0.5495900000000  0.4310650000000  0.5139510000000 1.0
C      1  0.5654720000000  0.5598050000000  0.4892220000000 1.0
C      1  0.5292910000000  0.5037620000000  0.4133370000000 1.0
C      1  0.5475200000000  0.4857980000000  0.5066720000000 1.0
C      1  0.4763800000000  0.4252190000000  0.4552460000000 1.0
C      1  0.5332450000000  0.4219030000000  0.4466140000000 1.0
END
