TITL C-2441168-9922-1326 0.0735329453424948 125000 -23633.9874073647 0 0 166 (C1) n - 1
REM
REM in /home/bkarasulu/work/CARBON/AIRSS/Generating-Clusters/ReaxFF-fromJPCA2015/Units_Real/with-SteepDescent/Higher-Symm
REM
REM
REM
REM
REM
REM ./C.cell (1df0a924f5614ab8850e4351716899ee)
REM
REM compiler GCC version 9.2.1 20190827 (Red Hat 9.2.1-1)
REM options -cpp -mtune=generic -march=x86-64 -g -O0 -fpre-include=/usr/include/finclude/math-vector-fortran.h
REM seed 646959600 455647571 -7533971 78580765 1882197104 -2019249984 1231565648 1962240960 1051515656 -2064456400 1209809035 885160820 -934985971 1044538654 1156691128 2097715298 -1369571515 1695471995 -1312505851 1230079693 -373158575 -412229549 379695305 1083350069 2075852303 1242803223 -1340024641 1135359109 1356944065 -1073696654 -2034237872 -1159895948 -2007616961
REM
CELL 1.54180   50.00000   50.00000   50.00000   90.00000   90.00000   90.00000
LATT -1
SFAC C  
C      1  0.5533480000000  0.4856760000000  0.5064190000000 1.0
C      1  0.5530110000000  0.4900430000000  0.4753890000000 1.0
C      1  0.5517600000000  0.5182670000000  0.5144530000000 1.0
C      1  0.4453230000000  0.4767720000000  0.5229220000000 1.0
C      1  0.4475120000000  0.5045070000000  0.4819480000000 1.0
C      1  0.4488220000000  0.5021890000000  0.5107350000000 1.0
C      1  0.4015140000000  0.4538740000000  0.4850990000000 1.0
C      1  0.3996430000000  0.5316960000000  0.4684880000000 1.0
C      1  0.3972360000000  0.5142060000000  0.5419160000000 1.0
C      1  0.6016870000000  0.4571060000000  0.4893190000000 1.0
C      1  0.5976330000000  0.5377150000000  0.4697360000000 1.0
C      1  0.5970050000000  0.5111710000000  0.5501020000000 1.0
C      1  0.5607540000000  0.5824490000000  0.5138970000000 1.0
C      1  0.5531700000000  0.4353140000000  0.5780580000000 1.0
C      1  0.5520190000000  0.4635650000000  0.4064010000000 1.0
C      1  0.4482640000000  0.5823360000000  0.5086330000000 1.0
C      1  0.4490090000000  0.4521220000000  0.5674760000000 1.0
C      1  0.4430370000000  0.4646630000000  0.4081300000000 1.0
C      1  0.5548390000000  0.4913450000000  0.4015530000000 1.0
C      1  0.5525580000000  0.5818530000000  0.5416500000000 1.0
C      1  0.5541500000000  0.4200550000000  0.5544810000000 1.0
C      1  0.4474580000000  0.4937030000000  0.4032610000000 1.0
C      1  0.4493330000000  0.5781610000000  0.5374300000000 1.0
C      1  0.4496400000000  0.4276370000000  0.5524350000000 1.0
C      1  0.5801620000000  0.5610110000000  0.5096810000000 1.0
C      1  0.5836980000000  0.4452070000000  0.5285900000000 1.0
C      1  0.5858150000000  0.5041990000000  0.4378110000000 1.0
C      1  0.4167020000000  0.5544040000000  0.5337900000000 1.0
C      1  0.4123370000000  0.4422530000000  0.5280620000000 1.0
C      1  0.4173200000000  0.5015890000000  0.4408480000000 1.0
C      1  0.5913370000000  0.5381560000000  0.5464280000000 1.0
C      1  0.5944440000000  0.4331650000000  0.5046360000000 1.0
C      1  0.5934260000000  0.5315820000000  0.4415150000000 1.0
C      1  0.4059350000000  0.5386360000000  0.5553490000000 1.0
C      1  0.4052680000000  0.4308060000000  0.5031480000000 1.0
C      1  0.4048620000000  0.5285310000000  0.4400000000000 1.0
C      1  0.5159880000000  0.4831780000000  0.4246420000000 1.0
C      1  0.5128180000000  0.5713740000000  0.5297740000000 1.0
C      1  0.5153120000000  0.4355160000000  0.5520540000000 1.0
C      1  0.4881420000000  0.4852840000000  0.4158690000000 1.0
C      1  0.4907450000000  0.5893870000000  0.5303220000000 1.0
C      1  0.4881970000000  0.4415830000000  0.5519720000000 1.0
C      1  0.5577430000000  0.5227210000000  0.5832360000000 1.0
C      1  0.5564240000000  0.4184480000000  0.4753420000000 1.0
C      1  0.5556120000000  0.5619650000000  0.4374370000000 1.0
C      1  0.4438370000000  0.5199500000000  0.5830370000000 1.0
C      1  0.4430740000000  0.4143720000000  0.4776160000000 1.0
C      1  0.4440700000000  0.5627920000000  0.4359130000000 1.0
C      1  0.4388170000000  0.5736620000000  0.4630100000000 1.0
C      1  0.4340180000000  0.4957430000000  0.5687400000000 1.0
C      1  0.4401050000000  0.4369620000000  0.4596850000000 1.0
C      1  0.5616970000000  0.5725930000000  0.4632560000000 1.0
C      1  0.5579150000000  0.4929870000000  0.5746210000000 1.0
C      1  0.5622630000000  0.4444080000000  0.4604440000000 1.0
C      1  0.4747960000000  0.5022160000000  0.3977720000000 1.0
C      1  0.4723330000000  0.5867890000000  0.5515980000000 1.0
C      1  0.4743670000000  0.4158420000000  0.5473100000000 1.0
C      1  0.5275060000000  0.5016620000000  0.4040610000000 1.0
C      1  0.5260600000000  0.5860750000000  0.5512050000000 1.0
C      1  0.5274450000000  0.4099280000000  0.5502660000000 1.0
C      1  0.4623910000000  0.4434960000000  0.4155330000000 1.0
C      1  0.4641500000000  0.6006880000000  0.4921780000000 1.0
C      1  0.4653630000000  0.4570320000000  0.5923130000000 1.0
C      1  0.5386390000000  0.4393740000000  0.4139200000000 1.0
C      1  0.5398620000000  0.5923770000000  0.4947630000000 1.0
C      1  0.5408330000000  0.4525330000000  0.5965260000000 1.0
C      1  0.4856890000000  0.3971870000000  0.5283250000000 1.0
C      1  0.4868840000000  0.5274550000000  0.3966590000000 1.0
C      1  0.4842450000000  0.5763140000000  0.5760490000000 1.0
C      1  0.5151890000000  0.3947100000000  0.5288470000000 1.0
C      1  0.5151480000000  0.5271230000000  0.3995080000000 1.0
C      1  0.5137280000000  0.5769130000000  0.5761510000000 1.0
C      1  0.4797880000000  0.5383850000000  0.5149540000000 1.0
C      1  0.4906430000000  0.4615680000000  0.5290890000000 1.0
C      1  0.4858100000000  0.5009820000000  0.4458200000000 1.0
C      1  0.4974620000000  0.5469540000000  0.5349030000000 1.0
C      1  0.5151270000000  0.4475080000000  0.5234630000000 1.0
C      1  0.5122390000000  0.4908720000000  0.4530650000000 1.0
C      1  0.5407410000000  0.4594000000000  0.5111180000000 1.0
C      1  0.5421560000000  0.5183700000000  0.4685290000000 1.0
C      1  0.5420780000000  0.5311350000000  0.5379320000000 1.0
C      1  0.4529630000000  0.4525250000000  0.5100160000000 1.0
C      1  0.4537430000000  0.5349420000000  0.4766460000000 1.0
C      1  0.4590400000000  0.5230270000000  0.5283660000000 1.0
C      1  0.5239360000000  0.4553420000000  0.4857030000000 1.0
C      1  0.5216150000000  0.5355530000000  0.4570970000000 1.0
C      1  0.5234410000000  0.5173490000000  0.5529830000000 1.0
C      1  0.4746390000000  0.4475070000000  0.4921550000000 1.0
C      1  0.4739800000000  0.5395950000000  0.4621260000000 1.0
C      1  0.4764090000000  0.5071730000000  0.5462290000000 1.0
C      1  0.4139900000000  0.5526490000000  0.4797740000000 1.0
C      1  0.4104490000000  0.4911340000000  0.5520820000000 1.0
C      1  0.4215960000000  0.4593910000000  0.4651600000000 1.0
C      1  0.5822630000000  0.5600020000000  0.4814700000000 1.0
C      1  0.5817780000000  0.4883810000000  0.5553210000000 1.0
C      1  0.5870140000000  0.4597630000000  0.4648640000000 1.0
C      1  0.4616520000000  0.5938050000000  0.4641540000000 1.0
C      1  0.4712660000000  0.4831840000000  0.6016620000000 1.0
C      1  0.4616830000000  0.4278460000000  0.4414560000000 1.0
C      1  0.5387300000000  0.5912850000000  0.4655950000000 1.0
C      1  0.5416110000000  0.4816030000000  0.6008200000000 1.0
C      1  0.5366280000000  0.4216450000000  0.4375810000000 1.0
C      1  0.3978420000000  0.5183250000000  0.5121830000000 1.0
C      1  0.3964010000000  0.4774240000000  0.5015930000000 1.0
C      1  0.3953760000000  0.5026940000000  0.4872600000000 1.0
C      1  0.6025610000000  0.5084210000000  0.5079720000000 1.0
C      1  0.6018190000000  0.4797160000000  0.5091300000000 1.0
C      1  0.6018140000000  0.5106490000000  0.4798050000000 1.0
C      1  0.4663320000000  0.4903380000000  0.4651050000000 1.0
C      1  0.4523880000000  0.5618980000000  0.4877730000000 1.0
C      1  0.4525620000000  0.4780060000000  0.5541750000000 1.0
C      1  0.5413750000000  0.4647370000000  0.4640020000000 1.0
C      1  0.5421420000000  0.5326850000000  0.4920650000000 1.0
C      1  0.5344580000000  0.4788120000000  0.5603780000000 1.0
C      1  0.5521880000000  0.5545280000000  0.5518670000000 1.0
C      1  0.5578900000000  0.4322320000000  0.5250670000000 1.0
C      1  0.5627370000000  0.5105990000000  0.4234620000000 1.0
C      1  0.4427530000000  0.5509580000000  0.5440520000000 1.0
C      1  0.4390120000000  0.4310690000000  0.5243870000000 1.0
C      1  0.4404450000000  0.5118210000000  0.4260240000000 1.0
C      1  0.4706870000000  0.5703800000000  0.4271920000000 1.0
C      1  0.4703500000000  0.5247960000000  0.5954250000000 1.0
C      1  0.4705680000000  0.4023090000000  0.4748870000000 1.0
C      1  0.5286600000000  0.5715530000000  0.4294080000000 1.0
C      1  0.5321810000000  0.5274070000000  0.5959770000000 1.0
C      1  0.5305920000000  0.4041290000000  0.4754660000000 1.0
C      1  0.4282450000000  0.4138100000000  0.5025960000000 1.0
C      1  0.4294240000000  0.5393940000000  0.4264440000000 1.0
C      1  0.4307300000000  0.5423460000000  0.5699720000000 1.0
C      1  0.5700430000000  0.4172620000000  0.5011330000000 1.0
C      1  0.5699570000000  0.5395710000000  0.4254880000000 1.0
C      1  0.5730300000000  0.5433990000000  0.5695840000000 1.0
C      1  0.4848910000000  0.5502740000000  0.5914140000000 1.0
C      1  0.4863390000000  0.3933370000000  0.4985320000000 1.0
C      1  0.4856400000000  0.5554340000000  0.4067660000000 1.0
C      1  0.5140880000000  0.5510040000000  0.5910160000000 1.0
C      1  0.5155130000000  0.3934360000000  0.4988270000000 1.0
C      1  0.5147150000000  0.5553120000000  0.4088620000000 1.0
C      1  0.5194120000000  0.4561570000000  0.5736020000000 1.0
C      1  0.5138140000000  0.4528520000000  0.4243480000000 1.0
C      1  0.5141210000000  0.5777800000000  0.4978220000000 1.0
C      1  0.4898060000000  0.4564430000000  0.5772600000000 1.0
C      1  0.4880550000000  0.4567740000000  0.4142010000000 1.0
C      1  0.4906590000000  0.5961910000000  0.5032520000000 1.0
C      1  0.4966280000000  0.5264270000000  0.4956970000000 1.0
C      1  0.4950240000000  0.4895950000000  0.5276490000000 1.0
C      1  0.4797670000000  0.4680740000000  0.4738210000000 1.0
C      1  0.5170650000000  0.5458070000000  0.4853450000000 1.0
C      1  0.5213210000000  0.4922700000000  0.5410010000000 1.0
C      1  0.5062560000000  0.4803080000000  0.4792590000000 1.0
C      1  0.5784280000000  0.4746340000000  0.5280100000000 1.0
C      1  0.5847870000000  0.4898580000000  0.4623390000000 1.0
C      1  0.5809910000000  0.5311140000000  0.5180350000000 1.0
C      1  0.4114000000000  0.4719790000000  0.5281270000000 1.0
C      1  0.4208770000000  0.4894070000000  0.4676860000000 1.0
C      1  0.4115710000000  0.5433240000000  0.5068880000000 1.0
C      1  0.4842980000000  0.5879580000000  0.4467960000000 1.0
C      1  0.4893750000000  0.5034370000000  0.6051440000000 1.0
C      1  0.4837740000000  0.4111540000000  0.4512960000000 1.0
C      1  0.5143520000000  0.5881860000000  0.4480690000000 1.0
C      1  0.5208730000000  0.5018520000000  0.6039480000000 1.0
C      1  0.5147430000000  0.4098140000000  0.4510410000000 1.0
C      1  0.4943860000000  0.5313010000000  0.4464590000000 1.0
C      1  0.4962780000000  0.5266900000000  0.5544020000000 1.0
C      1  0.5022380000000  0.4391030000000  0.4977580000000 1.0
C      1  0.4996990000000  0.4990840000000  0.5002450000000 1.0
END
