TITL C-2441167-4473-29 0.0851655221989633 125000 -26760.8814716905 0 0 191 (C1) n - 1
REM
REM in /home/bkarasulu/work/CARBON/AIRSS/Generating-Clusters/ReaxFF-fromJPCA2015/Units_Real/with-SteepDescent/Higher-Symm
REM
REM
REM
REM
REM
REM ./C.cell (1df0a924f5614ab8850e4351716899ee)
REM
REM compiler GCC version 9.2.1 20190827 (Red Hat 9.2.1-1)
REM options -cpp -mtune=generic -march=x86-64 -g -O0 -fpre-include=/usr/include/finclude/math-vector-fortran.h
REM seed 1430967561 -1804924497 1734283110 -324212900 143397261 1104429795 1642944157 50375149 -531308271 861424348 -2114860206 -221534129 1033584911 -1707587598 37402251 -1710358840 458675041 -489935430 1367318140 2002067189 75542486 -845158807 -2120943185 -1948924611 -428953525 726578412 -312140649 -506855407 -1007930780 -1587401003 -1622869603 -1739008216 111069805
REM
CELL 1.54180   50.00000   50.00000   50.00000   90.00000   90.00000   90.00000
LATT -1
SFAC C  
C      1  0.5224790000000  0.5799460000000  0.5465980000000 1.0
C      1  0.4780780000000  0.4263410000000  0.5383820000000 1.0
C      1  0.5195890000000  0.4190410000000  0.5455930000000 1.0
C      1  0.4797700000000  0.5780330000000  0.5457370000000 1.0
C      1  0.5149790000000  0.5242700000000  0.4032190000000 1.0
C      1  0.4868260000000  0.4685310000000  0.4020620000000 1.0
C      1  0.5158360000000  0.4734850000000  0.4047510000000 1.0
C      1  0.4884720000000  0.5293900000000  0.3921400000000 1.0
C      1  0.4373740000000  0.5150920000000  0.5917740000000 1.0
C      1  0.5606820000000  0.4829900000000  0.5938540000000 1.0
C      1  0.4362100000000  0.4863580000000  0.5935480000000 1.0
C      1  0.5609930000000  0.5124420000000  0.5935250000000 1.0
C      1  0.5847840000000  0.4773000000000  0.4588390000000 1.0
C      1  0.4126120000000  0.5200100000000  0.4585350000000 1.0
C      1  0.5826520000000  0.5205940000000  0.4567470000000 1.0
C      1  0.4155470000000  0.4780400000000  0.4602790000000 1.0
C      1  0.4803280000000  0.4890760000000  0.4987050000000 1.0
C      1  0.5234020000000  0.5128990000000  0.4996670000000 1.0
C      1  0.4744850000000  0.5170910000000  0.5018520000000 1.0
C      1  0.5249340000000  0.4856690000000  0.4983090000000 1.0
C      1  0.4951620000000  0.5969520000000  0.4677200000000 1.0
C      1  0.5121730000000  0.4059240000000  0.4603690000000 1.0
C      1  0.4886800000000  0.3961610000000  0.4721090000000 1.0
C      1  0.5178720000000  0.6116570000000  0.4776770000000 1.0
C      1  0.4883590000000  0.5380030000000  0.5186350000000 1.0
C      1  0.5169770000000  0.4644210000000  0.5159360000000 1.0
C      1  0.4859030000000  0.4674600000000  0.5151880000000 1.0
C      1  0.5176850000000  0.5356490000000  0.5166830000000 1.0
C      1  0.4331380000000  0.4700300000000  0.5716430000000 1.0
C      1  0.5653270000000  0.5271070000000  0.5688000000000 1.0
C      1  0.4248680000000  0.5380700000000  0.5790630000000 1.0
C      1  0.5715990000000  0.4622820000000  0.5775630000000 1.0
C      1  0.5666190000000  0.4369040000000  0.5458120000000 1.0
C      1  0.4280580000000  0.5680270000000  0.5523270000000 1.0
C      1  0.5736640000000  0.5613920000000  0.5472540000000 1.0
C      1  0.4355150000000  0.4334220000000  0.5548010000000 1.0
C      1  0.4635310000000  0.4851020000000  0.3939760000000 1.0
C      1  0.5394310000000  0.5146590000000  0.3933030000000 1.0
C      1  0.4651830000000  0.5131830000000  0.3941490000000 1.0
C      1  0.5391770000000  0.4864500000000  0.3935690000000 1.0
C      1  0.4798860000000  0.4198020000000  0.5102760000000 1.0
C      1  0.5189330000000  0.5809160000000  0.5118770000000 1.0
C      1  0.4873000000000  0.5854420000000  0.5134970000000 1.0
C      1  0.5160860000000  0.4146690000000  0.5113220000000 1.0
C      1  0.4621890000000  0.5848460000000  0.4336350000000 1.0
C      1  0.5495170000000  0.4219500000000  0.4364090000000 1.0
C      1  0.4574360000000  0.4166450000000  0.4312910000000 1.0
C      1  0.5343350000000  0.5769500000000  0.4440990000000 1.0
C      1  0.4477940000000  0.4778660000000  0.5253670000000 1.0
C      1  0.5559920000000  0.5213700000000  0.5185070000000 1.0
C      1  0.4479890000000  0.5201710000000  0.5140500000000 1.0
C      1  0.5650910000000  0.4797160000000  0.5201410000000 1.0
C      1  0.4639660000000  0.4846050000000  0.5997000000000 1.0
C      1  0.5326960000000  0.5121180000000  0.6007650000000 1.0
C      1  0.4660690000000  0.5136720000000  0.5976760000000 1.0
C      1  0.5314880000000  0.4842870000000  0.5996090000000 1.0
C      1  0.5892520000000  0.4533250000000  0.5551130000000 1.0
C      1  0.4076360000000  0.5490370000000  0.5564780000000 1.0
C      1  0.5959610000000  0.5459190000000  0.5368110000000 1.0
C      1  0.4148880000000  0.4537840000000  0.5546400000000 1.0
C      1  0.5149300000000  0.4800070000000  0.4332700000000 1.0
C      1  0.4830090000000  0.5106880000000  0.4347120000000 1.0
C      1  0.5121920000000  0.5155720000000  0.4318890000000 1.0
C      1  0.4848750000000  0.4810020000000  0.4317120000000 1.0
C      1  0.4569430000000  0.4465090000000  0.5697020000000 1.0
C      1  0.5585810000000  0.5534670000000  0.5690220000000 1.0
C      1  0.4445090000000  0.5575980000000  0.5713830000000 1.0
C      1  0.5488200000000  0.4523520000000  0.5617140000000 1.0
C      1  0.5399730000000  0.3899930000000  0.4712240000000 1.0
C      1  0.4535800000000  0.6105090000000  0.4742040000000 1.0
C      1  0.5442760000000  0.6082920000000  0.4740560000000 1.0
C      1  0.4618690000000  0.3947370000000  0.4746240000000 1.0
C      1  0.4177380000000  0.5695880000000  0.4918360000000 1.0
C      1  0.5841740000000  0.4301980000000  0.4936610000000 1.0
C      1  0.4195520000000  0.4272110000000  0.4939240000000 1.0
C      1  0.5832490000000  0.5763850000000  0.4950930000000 1.0
C      1  0.4257250000000  0.4297140000000  0.4658410000000 1.0
C      1  0.5773000000000  0.5718000000000  0.4663190000000 1.0
C      1  0.4228970000000  0.5690890000000  0.4632040000000 1.0
C      1  0.5821640000000  0.4285930000000  0.4647420000000 1.0
C      1  0.5555720000000  0.5152610000000  0.4684010000000 1.0
C      1  0.4424080000000  0.4820690000000  0.4729280000000 1.0
C      1  0.5563710000000  0.4809960000000  0.4689990000000 1.0
C      1  0.4404910000000  0.5149700000000  0.4696810000000 1.0
C      1  0.4385130000000  0.5890570000000  0.5372730000000 1.0
C      1  0.5601550000000  0.4104950000000  0.5385000000000 1.0
C      1  0.4405490000000  0.4095530000000  0.5397130000000 1.0
C      1  0.5624700000000  0.5880080000000  0.5379390000000 1.0
C      1  0.4019530000000  0.4627270000000  0.5309270000000 1.0
C      1  0.6002580000000  0.5566900000000  0.5104040000000 1.0
C      1  0.4006600000000  0.5366920000000  0.5319570000000 1.0
C      1  0.6023840000000  0.4639080000000  0.5313890000000 1.0
C      1  0.4669230000000  0.5236300000000  0.4546330000000 1.0
C      1  0.5286170000000  0.4664250000000  0.4556940000000 1.0
C      1  0.4687490000000  0.4681200000000  0.4566000000000 1.0
C      1  0.5282570000000  0.5286180000000  0.4568040000000 1.0
C      1  0.5068920000000  0.4070820000000  0.4298080000000 1.0
C      1  0.4877140000000  0.5988650000000  0.4393920000000 1.0
C      1  0.5122790000000  0.5911680000000  0.4262690000000 1.0
C      1  0.4801950000000  0.4076400000000  0.4181100000000 1.0
C      1  0.4452350000000  0.5164720000000  0.5426450000000 1.0
C      1  0.5508060000000  0.4817280000000  0.5444830000000 1.0
C      1  0.4339700000000  0.4902380000000  0.5471980000000 1.0
C      1  0.5474460000000  0.5157280000000  0.5472340000000 1.0
C      1  0.5838220000000  0.4517650000000  0.4453430000000 1.0
C      1  0.4193070000000  0.5453820000000  0.4456510000000 1.0
C      1  0.5798320000000  0.5483520000000  0.4481060000000 1.0
C      1  0.4198250000000  0.4521890000000  0.4477120000000 1.0
C      1  0.5611930000000  0.4867140000000  0.4132740000000 1.0
C      1  0.4424670000000  0.5156730000000  0.4118620000000 1.0
C      1  0.5612570000000  0.5165340000000  0.4114000000000 1.0
C      1  0.4399360000000  0.4856720000000  0.4107150000000 1.0
C      1  0.5405390000000  0.5607780000000  0.4204190000000 1.0
C      1  0.4554960000000  0.4403440000000  0.4185480000000 1.0
C      1  0.5439160000000  0.4393610000000  0.4173220000000 1.0
C      1  0.4609850000000  0.5605150000000  0.4184790000000 1.0
C      1  0.4421970000000  0.4657260000000  0.4994960000000 1.0
C      1  0.5601660000000  0.5340620000000  0.4926610000000 1.0
C      1  0.4343870000000  0.5323280000000  0.4941860000000 1.0
C      1  0.5644140000000  0.4665810000000  0.4943700000000 1.0
C      1  0.5109840000000  0.4647240000000  0.6027210000000 1.0
C      1  0.4850240000000  0.5349550000000  0.6040290000000 1.0
C      1  0.5141500000000  0.5331790000000  0.6043240000000 1.0
C      1  0.4826180000000  0.4628530000000  0.6007250000000 1.0
C      1  0.4723270000000  0.5540300000000  0.5637100000000 1.0
C      1  0.5203100000000  0.4435610000000  0.5633460000000 1.0
C      1  0.4821180000000  0.4499780000000  0.5549720000000 1.0
C      1  0.5311650000000  0.5587010000000  0.5669880000000 1.0
C      1  0.3977500000000  0.4764710000000  0.4835950000000 1.0
C      1  0.6012050000000  0.5121920000000  0.4786370000000 1.0
C      1  0.3962330000000  0.5180110000000  0.4826680000000 1.0
C      1  0.6025590000000  0.4831650000000  0.4808200000000 1.0
C      1  0.4859610000000  0.4085200000000  0.5743410000000 1.0
C      1  0.5138380000000  0.6031660000000  0.5619190000000 1.0
C      1  0.4863850000000  0.5948730000000  0.5670830000000 1.0
C      1  0.5115750000000  0.3976020000000  0.5644420000000 1.0
C      1  0.5652090000000  0.4599070000000  0.4242320000000 1.0
C      1  0.4387800000000  0.5418110000000  0.4240220000000 1.0
C      1  0.5623510000000  0.5424440000000  0.4251990000000 1.0
C      1  0.4368210000000  0.4596740000000  0.4246350000000 1.0
C      1  0.4510780000000  0.4165300000000  0.4584600000000 1.0
C      1  0.5563140000000  0.5894590000000  0.4580270000000 1.0
C      1  0.4434350000000  0.5882790000000  0.4554890000000 1.0
C      1  0.5614120000000  0.4095580000000  0.4563060000000 1.0
C      1  0.4068150000000  0.5421220000000  0.5007220000000 1.0
C      1  0.5940040000000  0.4592610000000  0.5002140000000 1.0
C      1  0.4103140000000  0.4544250000000  0.5031600000000 1.0
C      1  0.5895310000000  0.5351870000000  0.4940680000000 1.0
C      1  0.5158160000000  0.5570070000000  0.5900200000000 1.0
C      1  0.4849470000000  0.4318640000000  0.5925650000000 1.0
C      1  0.5140400000000  0.4376410000000  0.5913850000000 1.0
C      1  0.4879550000000  0.5600920000000  0.5882290000000 1.0
C      1  0.5237250000000  0.4789990000000  0.5405950000000 1.0
C      1  0.4738050000000  0.5270480000000  0.5475520000000 1.0
C      1  0.5166060000000  0.5066030000000  0.5454250000000 1.0
C      1  0.4770820000000  0.4764710000000  0.5415530000000 1.0
C      1  0.4700430000000  0.4451460000000  0.4962560000000 1.0
C      1  0.5292490000000  0.5563850000000  0.4989110000000 1.0
C      1  0.4817910000000  0.5606080000000  0.5001580000000 1.0
C      1  0.5213330000000  0.4387340000000  0.4963710000000 1.0
C      1  0.3918940000000  0.4901270000000  0.5280480000000 1.0
C      1  0.5987590000000  0.5156020000000  0.5355700000000 1.0
C      1  0.3965410000000  0.5141680000000  0.5395680000000 1.0
C      1  0.6053300000000  0.4890740000000  0.5427680000000 1.0
C      1  0.5144870000000  0.4301580000000  0.4146030000000 1.0
C      1  0.4869610000000  0.5548140000000  0.4052200000000 1.0
C      1  0.5135260000000  0.5678450000000  0.4101390000000 1.0
C      1  0.4862990000000  0.4341240000000  0.4047710000000 1.0
C      1  0.4876040000000  0.4818220000000  0.4738230000000 1.0
C      1  0.5113980000000  0.5196510000000  0.4756110000000 1.0
C      1  0.4844630000000  0.5260890000000  0.4758880000000 1.0
C      1  0.5148090000000  0.4817670000000  0.4726300000000 1.0
C      1  0.4352090000000  0.4092330000000  0.5110110000000 1.0
C      1  0.5650800000000  0.5924500000000  0.5104060000000 1.0
C      1  0.4360430000000  0.5860970000000  0.5086040000000 1.0
C      1  0.5660840000000  0.4120860000000  0.5099030000000 1.0
C      1  0.4803830000000  0.4427860000000  0.4688990000000 1.0
C      1  0.5210280000000  0.5574090000000  0.4681520000000 1.0
C      1  0.4939200000000  0.5681880000000  0.4749070000000 1.0
C      1  0.5110110000000  0.4402110000000  0.4690360000000 1.0
C      1  0.4610370000000  0.5991830000000  0.5001250000000 1.0
C      1  0.5404220000000  0.4006740000000  0.5011830000000 1.0
C      1  0.4610520000000  0.3988050000000  0.5017410000000 1.0
C      1  0.5360260000000  0.6051380000000  0.5014890000000 1.0
C      1  0.5398920000000  0.6017130000000  0.5516640000000 1.0
C      1  0.4668200000000  0.4035180000000  0.5519820000000 1.0
C      1  0.5374750000000  0.3984080000000  0.5525910000000 1.0
C      1  0.4624150000000  0.5998660000000  0.5501320000000 1.0
C      1  0.5784190000000  0.5040660000000  0.5173390000000 1.0
C      1  0.3918540000000  0.4964510000000  0.4991230000000 1.0
C      1  0.4893240000000  0.5026400000000  0.5521060000000 1.0
END
