TITL C-2441167-4473-672 0.0395583320767448 125000 -28390.5595904892 0 0 196 (C1) n - 1
REM
REM in /home/bkarasulu/work/CARBON/AIRSS/Generating-Clusters/ReaxFF-fromJPCA2015/Units_Real/with-SteepDescent/Higher-Symm
REM
REM
REM
REM
REM
REM ./C.cell (1df0a924f5614ab8850e4351716899ee)
REM
REM compiler GCC version 9.2.1 20190827 (Red Hat 9.2.1-1)
REM options -cpp -mtune=generic -march=x86-64 -g -O0 -fpre-include=/usr/include/finclude/math-vector-fortran.h
REM seed -1059508065 -1758360222 1694558343 382881122 -2051794120 502506978 1789927675 2031028939 -2033858212 -596446647 1379770677 -549749462 2996622 -471268771 -1841392829 -811533951 401174944 -1047171869 -721457144 -2037530884 1324276206 -576220669 -2078849326 -303040814 -1011123593 1796033958 -1597873460 783743267 -1952309414 397879075 -1192382541 -425820520 -1770854901
REM
CELL 1.54180   50.00000   50.00000   50.00000   90.00000   90.00000   90.00000
LATT -1
SFAC C  
C      1  0.4808760000000  0.5080800000000  0.5072830000000 1.0
C      1  0.4768030000000  0.4888650000000  0.4865450000000 1.0
C      1  0.5100560000000  0.5060570000000  0.5090690000000 1.0
C      1  0.5176230000000  0.4891390000000  0.4869100000000 1.0
C      1  0.5142480000000  0.5984710000000  0.5449400000000 1.0
C      1  0.5127420000000  0.4018210000000  0.4453140000000 1.0
C      1  0.4886530000000  0.6029640000000  0.5555910000000 1.0
C      1  0.4841990000000  0.4004150000000  0.4452720000000 1.0
C      1  0.4813030000000  0.5783430000000  0.4512620000000 1.0
C      1  0.4880860000000  0.4166090000000  0.5559110000000 1.0
C      1  0.5165640000000  0.5777970000000  0.4517450000000 1.0
C      1  0.5184990000000  0.4154070000000  0.5561540000000 1.0
C      1  0.4913810000000  0.4228160000000  0.5845240000000 1.0
C      1  0.4792470000000  0.5755490000000  0.4220720000000 1.0
C      1  0.5204090000000  0.4251600000000  0.5840160000000 1.0
C      1  0.5198540000000  0.5728130000000  0.4218410000000 1.0
C      1  0.6108780000000  0.5711140000000  0.5144100000000 1.0
C      1  0.6040230000000  0.4310290000000  0.4879000000000 1.0
C      1  0.3970490000000  0.5689890000000  0.5123000000000 1.0
C      1  0.3907430000000  0.4296270000000  0.4866450000000 1.0
C      1  0.4454330000000  0.4771390000000  0.5250690000000 1.0
C      1  0.4450510000000  0.5188570000000  0.4724660000000 1.0
C      1  0.5547800000000  0.4798050000000  0.5221970000000 1.0
C      1  0.5543290000000  0.5185190000000  0.4775780000000 1.0
C      1  0.4165770000000  0.5423380000000  0.4459070000000 1.0
C      1  0.4249430000000  0.4647210000000  0.5490060000000 1.0
C      1  0.5811430000000  0.5438690000000  0.4405300000000 1.0
C      1  0.5828350000000  0.4585960000000  0.5584030000000 1.0
C      1  0.6011570000000  0.5188800000000  0.5588220000000 1.0
C      1  0.6000270000000  0.4822330000000  0.4418600000000 1.0
C      1  0.3996280000000  0.5204750000000  0.5573610000000 1.0
C      1  0.3995800000000  0.4814390000000  0.4428140000000 1.0
C      1  0.5405420000000  0.4903960000000  0.6131340000000 1.0
C      1  0.5317250000000  0.5110380000000  0.4064470000000 1.0
C      1  0.4721400000000  0.4903850000000  0.5896360000000 1.0
C      1  0.4717110000000  0.5116690000000  0.4122070000000 1.0
C      1  0.4342590000000  0.5234960000000  0.5010740000000 1.0
C      1  0.4334790000000  0.4732220000000  0.4956180000000 1.0
C      1  0.5526300000000  0.5272840000000  0.5086320000000 1.0
C      1  0.5661500000000  0.4742120000000  0.4951110000000 1.0
C      1  0.5869790000000  0.4378530000000  0.4670050000000 1.0
C      1  0.5904200000000  0.5602830000000  0.5296640000000 1.0
C      1  0.4108140000000  0.4380040000000  0.4688260000000 1.0
C      1  0.4163480000000  0.5614320000000  0.5307260000000 1.0
C      1  0.4230450000000  0.5810930000000  0.4742590000000 1.0
C      1  0.4264700000000  0.4218950000000  0.5212480000000 1.0
C      1  0.5751030000000  0.5819920000000  0.4814190000000 1.0
C      1  0.5740060000000  0.4215030000000  0.5250390000000 1.0
C      1  0.4803910000000  0.5328610000000  0.4957060000000 1.0
C      1  0.4791830000000  0.4642320000000  0.5004020000000 1.0
C      1  0.5254000000000  0.5287270000000  0.5108610000000 1.0
C      1  0.5213610000000  0.4627680000000  0.4982910000000 1.0
C      1  0.4245390000000  0.4452030000000  0.4247410000000 1.0
C      1  0.4272290000000  0.5561380000000  0.5755130000000 1.0
C      1  0.5719220000000  0.4479020000000  0.4246080000000 1.0
C      1  0.5743520000000  0.5542730000000  0.5753510000000 1.0
C      1  0.4467500000000  0.4714720000000  0.5939770000000 1.0
C      1  0.4494710000000  0.5298990000000  0.4139990000000 1.0
C      1  0.5518090000000  0.4705370000000  0.5951380000000 1.0
C      1  0.5521900000000  0.5321160000000  0.4046230000000 1.0
C      1  0.4679440000000  0.4033530000000  0.4944400000000 1.0
C      1  0.4637320000000  0.5949530000000  0.5036360000000 1.0
C      1  0.5333440000000  0.4055810000000  0.4974710000000 1.0
C      1  0.5242020000000  0.6007730000000  0.5165020000000 1.0
C      1  0.4357040000000  0.5515110000000  0.5101980000000 1.0
C      1  0.4359190000000  0.4462070000000  0.4845600000000 1.0
C      1  0.5605930000000  0.5591010000000  0.5168880000000 1.0
C      1  0.5643700000000  0.4456960000000  0.4856620000000 1.0
C      1  0.3973880000000  0.4350270000000  0.5130090000000 1.0
C      1  0.3958020000000  0.5668250000000  0.4847030000000 1.0
C      1  0.6030360000000  0.4326210000000  0.5156520000000 1.0
C      1  0.6008280000000  0.5645700000000  0.4888910000000 1.0
C      1  0.4846360000000  0.4421960000000  0.4820800000000 1.0
C      1  0.4872450000000  0.5528620000000  0.5153740000000 1.0
C      1  0.5144330000000  0.4399520000000  0.4807620000000 1.0
C      1  0.5155730000000  0.5508900000000  0.5202650000000 1.0
C      1  0.4725120000000  0.4248670000000  0.4301080000000 1.0
C      1  0.4741040000000  0.5767530000000  0.5673700000000 1.0
C      1  0.5260890000000  0.4187890000000  0.4242000000000 1.0
C      1  0.5266870000000  0.5750110000000  0.5663850000000 1.0
C      1  0.4808720000000  0.4771940000000  0.4390220000000 1.0
C      1  0.4773380000000  0.5241600000000  0.5595950000000 1.0
C      1  0.5239060000000  0.4671760000000  0.4359750000000 1.0
C      1  0.5213470000000  0.5213090000000  0.5615040000000 1.0
C      1  0.4713840000000  0.5306820000000  0.4674310000000 1.0
C      1  0.4749110000000  0.4674270000000  0.5299800000000 1.0
C      1  0.5317230000000  0.5304650000000  0.4616580000000 1.0
C      1  0.5279090000000  0.4677350000000  0.5284880000000 1.0
C      1  0.5162850000000  0.3939100000000  0.5178300000000 1.0
C      1  0.5132160000000  0.6042540000000  0.4891440000000 1.0
C      1  0.4860760000000  0.3940440000000  0.5162010000000 1.0
C      1  0.4831850000000  0.6066040000000  0.4852480000000 1.0
C      1  0.5134660000000  0.4456810000000  0.4517750000000 1.0
C      1  0.5141790000000  0.5495500000000  0.5482230000000 1.0
C      1  0.4840840000000  0.4487840000000  0.4525460000000 1.0
C      1  0.4841980000000  0.5520230000000  0.5452070000000 1.0
C      1  0.5601060000000  0.5917980000000  0.4580480000000 1.0
C      1  0.5598020000000  0.4083040000000  0.5464410000000 1.0
C      1  0.4402130000000  0.5937520000000  0.4550100000000 1.0
C      1  0.4428750000000  0.4088910000000  0.5445870000000 1.0
C      1  0.6041790000000  0.5110240000000  0.5069620000000 1.0
C      1  0.5981930000000  0.4848660000000  0.4934500000000 1.0
C      1  0.4027040000000  0.5144980000000  0.5056580000000 1.0
C      1  0.4031360000000  0.4863240000000  0.4927120000000 1.0
C      1  0.5106190000000  0.4685620000000  0.5727250000000 1.0
C      1  0.5132650000000  0.5453270000000  0.4156140000000 1.0
C      1  0.4859310000000  0.4500790000000  0.5803960000000 1.0
C      1  0.4869610000000  0.5527680000000  0.4124150000000 1.0
C      1  0.3912110000000  0.4634310000000  0.5126860000000 1.0
C      1  0.3900990000000  0.5382960000000  0.4868240000000 1.0
C      1  0.6091180000000  0.4609310000000  0.5148230000000 1.0
C      1  0.5999950000000  0.5345660000000  0.4893090000000 1.0
C      1  0.4396620000000  0.4008290000000  0.4512130000000 1.0
C      1  0.4396680000000  0.5982240000000  0.5492650000000 1.0
C      1  0.5589910000000  0.4053600000000  0.4525070000000 1.0
C      1  0.5641020000000  0.5975350000000  0.5488530000000 1.0
C      1  0.4875420000000  0.4915130000000  0.6154300000000 1.0
C      1  0.4874070000000  0.5101920000000  0.3853830000000 1.0
C      1  0.5144570000000  0.4949310000000  0.6234960000000 1.0
C      1  0.5147290000000  0.5088040000000  0.3836920000000 1.0
C      1  0.5835110000000  0.4964680000000  0.4218800000000 1.0
C      1  0.5854020000000  0.5052760000000  0.5797380000000 1.0
C      1  0.4195630000000  0.4958600000000  0.4273870000000 1.0
C      1  0.4165890000000  0.5065220000000  0.5769610000000 1.0
C      1  0.4503390000000  0.4905990000000  0.4724300000000 1.0
C      1  0.4495990000000  0.5070290000000  0.5254910000000 1.0
C      1  0.5460610000000  0.4907440000000  0.4734940000000 1.0
C      1  0.5583330000000  0.5069840000000  0.5306750000000 1.0
C      1  0.3949190000000  0.4975320000000  0.4660200000000 1.0
C      1  0.3951160000000  0.5050180000000  0.5333850000000 1.0
C      1  0.6009900000000  0.4971720000000  0.4663360000000 1.0
C      1  0.6050640000000  0.5023230000000  0.5350600000000 1.0
C      1  0.4819950000000  0.4941220000000  0.5565010000000 1.0
C      1  0.4875080000000  0.5103660000000  0.4431790000000 1.0
C      1  0.5106520000000  0.4904700000000  0.5531210000000 1.0
C      1  0.5146770000000  0.5192300000000  0.4386550000000 1.0
C      1  0.4499330000000  0.5213230000000  0.5509140000000 1.0
C      1  0.4531570000000  0.4779830000000  0.4455350000000 1.0
C      1  0.5496100000000  0.5163740000000  0.5572630000000 1.0
C      1  0.5444920000000  0.4829080000000  0.4452780000000 1.0
C      1  0.4723820000000  0.4888580000000  0.3949210000000 1.0
C      1  0.4730650000000  0.5132700000000  0.6054890000000 1.0
C      1  0.5289690000000  0.4862670000000  0.3911170000000 1.0
C      1  0.5282490000000  0.5160940000000  0.6126630000000 1.0
C      1  0.4650800000000  0.3936270000000  0.4662190000000 1.0
C      1  0.4503780000000  0.6012500000000  0.5267700000000 1.0
C      1  0.5321520000000  0.4047470000000  0.4674540000000 1.0
C      1  0.5497380000000  0.5885050000000  0.5239210000000 1.0
C      1  0.4850590000000  0.5341090000000  0.5916380000000 1.0
C      1  0.4836340000000  0.4674580000000  0.4088440000000 1.0
C      1  0.5161910000000  0.5325760000000  0.5918020000000 1.0
C      1  0.5177480000000  0.4646070000000  0.4073640000000 1.0
C      1  0.4596310000000  0.5563180000000  0.4096870000000 1.0
C      1  0.4623570000000  0.4491480000000  0.5906430000000 1.0
C      1  0.5392700000000  0.5574780000000  0.4069700000000 1.0
C      1  0.5316740000000  0.4520710000000  0.5831740000000 1.0
C      1  0.4507970000000  0.4267000000000  0.5001290000000 1.0
C      1  0.4505930000000  0.5690090000000  0.4908060000000 1.0
C      1  0.5527390000000  0.4263870000000  0.5038970000000 1.0
C      1  0.5532230000000  0.5649310000000  0.4892160000000 1.0
C      1  0.4898110000000  0.4425720000000  0.5359900000000 1.0
C      1  0.4675010000000  0.5587740000000  0.4675820000000 1.0
C      1  0.5171190000000  0.4406030000000  0.5333290000000 1.0
C      1  0.5312890000000  0.5568320000000  0.4700700000000 1.0
C      1  0.4436550000000  0.5799710000000  0.5701890000000 1.0
C      1  0.4416970000000  0.4217910000000  0.4305200000000 1.0
C      1  0.5567470000000  0.5773480000000  0.5697190000000 1.0
C      1  0.5558170000000  0.4227660000000  0.4289660000000 1.0
C      1  0.4251560000000  0.4787810000000  0.5758320000000 1.0
C      1  0.4320550000000  0.5218540000000  0.4343640000000 1.0
C      1  0.5751750000000  0.4775650000000  0.5796140000000 1.0
C      1  0.5762160000000  0.5250530000000  0.4188130000000 1.0
C      1  0.5145120000000  0.5634340000000  0.5906460000000 1.0
C      1  0.5125400000000  0.4349840000000  0.4041020000000 1.0
C      1  0.4863860000000  0.5642680000000  0.5915600000000 1.0
C      1  0.4845340000000  0.4376580000000  0.4059630000000 1.0
C      1  0.3971780000000  0.5268510000000  0.4617060000000 1.0
C      1  0.3984220000000  0.4762440000000  0.5368670000000 1.0
C      1  0.5854460000000  0.5240980000000  0.4657920000000 1.0
C      1  0.6016750000000  0.4730920000000  0.5392050000000 1.0
C      1  0.4676750000000  0.6015100000000  0.4612060000000 1.0
C      1  0.4702540000000  0.3984010000000  0.5402650000000 1.0
C      1  0.5308270000000  0.5993700000000  0.4658870000000 1.0
C      1  0.5333410000000  0.3970550000000  0.5412850000000 1.0
C      1  0.4359430000000  0.4725800000000  0.4233960000000 1.0
C      1  0.4366480000000  0.5280220000000  0.5757460000000 1.0
C      1  0.5629150000000  0.4761400000000  0.4242430000000 1.0
C      1  0.5654920000000  0.5264380000000  0.5804280000000 1.0
C      1  0.5687290000000  0.4339800000000  0.5552350000000 1.0
C      1  0.5698460000000  0.5690620000000  0.4436250000000 1.0
C      1  0.4290200000000  0.4336420000000  0.5486800000000 1.0
C      1  0.4245820000000  0.5701930000000  0.4477830000000 1.0
C      1  0.4065380000000  0.5491920000000  0.5567190000000 1.0
C      1  0.4041740000000  0.4521300000000  0.4435910000000 1.0
C      1  0.5947360000000  0.5476040000000  0.5562340000000 1.0
C      1  0.5935800000000  0.4532650000000  0.4423710000000 1.0
END
