TITL C-2441162-9305-540 0.0521876683995841 125000 -19932.1163291533 0 0 146 (C1) n - 1
REM
REM in /home/bkarasulu/work/CARBON/AIRSS/Generating-Clusters/ReaxFF-fromJPCA2015/Units_Real/with-SteepDescent/Higher-Symm
REM
REM
REM
REM
REM
REM ./C.cell (1df0a924f5614ab8850e4351716899ee)
REM
REM compiler GCC version 9.2.1 20190827 (Red Hat 9.2.1-1)
REM options -cpp -mtune=generic -march=x86-64 -g -O0 -fpre-include=/usr/include/finclude/math-vector-fortran.h
REM seed -722157892 399206609 -1694211031 1682731897 1465180079 2097254721 -97433866 2100117821 1276047734 689141445 -1620906134 -1856717389 673670515 726784944 -1290848623 -1525658842 480473669 450683392 1024749704 -1341684427 2000888727 -2007787115 -1508520954 -459533601 -1415560133 -664702486 -1910723585 1229160316 -484121701 1159926961 1503150752 -1267070557 1222224935
REM
CELL 1.54180   50.00000   50.00000   50.00000   90.00000   90.00000   90.00000
LATT -1
SFAC C  
C      1  0.4280970000000  0.4450380000000  0.5547010000000 1.0
C      1  0.5720370000000  0.5554270000000  0.5528700000000 1.0
C      1  0.5709630000000  0.4448040000000  0.5522030000000 1.0
C      1  0.4285410000000  0.5536220000000  0.5531630000000 1.0
C      1  0.5510540000000  0.5743560000000  0.4913400000000 1.0
C      1  0.4478910000000  0.4237250000000  0.4940310000000 1.0
C      1  0.4468150000000  0.5768520000000  0.4912960000000 1.0
C      1  0.5505280000000  0.4255370000000  0.4894950000000 1.0
C      1  0.5867010000000  0.5143450000000  0.5300220000000 1.0
C      1  0.4136920000000  0.4843200000000  0.5299990000000 1.0
C      1  0.4130340000000  0.5129640000000  0.5301940000000 1.0
C      1  0.5870890000000  0.4850400000000  0.5312600000000 1.0
C      1  0.5599040000000  0.4851490000000  0.4893680000000 1.0
C      1  0.4398320000000  0.5188950000000  0.4887560000000 1.0
C      1  0.4399640000000  0.4900440000000  0.4847840000000 1.0
C      1  0.5602000000000  0.5144780000000  0.4873430000000 1.0
C      1  0.5310150000000  0.4436030000000  0.4078900000000 1.0
C      1  0.4683590000000  0.5552230000000  0.4087830000000 1.0
C      1  0.4683130000000  0.4449540000000  0.4059300000000 1.0
C      1  0.5306590000000  0.5564290000000  0.4069210000000 1.0
C      1  0.4743650000000  0.5138060000000  0.5759580000000 1.0
C      1  0.5352620000000  0.4830360000000  0.5823230000000 1.0
C      1  0.5274070000000  0.5116600000000  0.5765070000000 1.0
C      1  0.4663850000000  0.4851660000000  0.5800480000000 1.0
C      1  0.5761100000000  0.4371770000000  0.4963970000000 1.0
C      1  0.4213650000000  0.5644950000000  0.4969960000000 1.0
C      1  0.4261700000000  0.4423040000000  0.5006430000000 1.0
C      1  0.5759580000000  0.5612520000000  0.4965020000000 1.0
C      1  0.5119920000000  0.4211330000000  0.4686710000000 1.0
C      1  0.4874300000000  0.5827650000000  0.4675290000000 1.0
C      1  0.4848850000000  0.4242170000000  0.4740400000000 1.0
C      1  0.5140900000000  0.5828300000000  0.4652050000000 1.0
C      1  0.4322800000000  0.4555430000000  0.4483510000000 1.0
C      1  0.5687700000000  0.5468170000000  0.4480700000000 1.0
C      1  0.5697820000000  0.4556340000000  0.4477460000000 1.0
C      1  0.4305530000000  0.5431400000000  0.4484280000000 1.0
C      1  0.4932180000000  0.5197010000000  0.4809430000000 1.0
C      1  0.5216400000000  0.4725380000000  0.4875850000000 1.0
C      1  0.5196340000000  0.5265400000000  0.4880480000000 1.0
C      1  0.4933830000000  0.4750280000000  0.4807870000000 1.0
C      1  0.5493100000000  0.5630460000000  0.5702380000000 1.0
C      1  0.4514600000000  0.4377580000000  0.5711560000000 1.0
C      1  0.4521960000000  0.5611690000000  0.5694410000000 1.0
C      1  0.5480380000000  0.4365860000000  0.5699080000000 1.0
C      1  0.5737130000000  0.5683060000000  0.5263060000000 1.0
C      1  0.4271030000000  0.4309760000000  0.5290530000000 1.0
C      1  0.4269010000000  0.5680860000000  0.5267300000000 1.0
C      1  0.5708380000000  0.4315060000000  0.5258310000000 1.0
C      1  0.4652800000000  0.4170550000000  0.5576500000000 1.0
C      1  0.5363470000000  0.5845910000000  0.5567920000000 1.0
C      1  0.5329600000000  0.4161300000000  0.5563940000000 1.0
C      1  0.4650850000000  0.5824530000000  0.5558750000000 1.0
C      1  0.4367490000000  0.5235600000000  0.5171350000000 1.0
C      1  0.5631660000000  0.4764060000000  0.5171610000000 1.0
C      1  0.5639780000000  0.5240010000000  0.5149940000000 1.0
C      1  0.4344920000000  0.4730690000000  0.5102510000000 1.0
C      1  0.4151130000000  0.4891320000000  0.4696480000000 1.0
C      1  0.5843660000000  0.5140300000000  0.4704790000000 1.0
C      1  0.5876890000000  0.4852890000000  0.4788780000000 1.0
C      1  0.4109260000000  0.5182600000000  0.4794190000000 1.0
C      1  0.5226260000000  0.4874070000000  0.5115890000000 1.0
C      1  0.4767970000000  0.5105160000000  0.5027060000000 1.0
C      1  0.4762030000000  0.4844810000000  0.5017240000000 1.0
C      1  0.5228140000000  0.5127100000000  0.5113960000000 1.0
C      1  0.4777110000000  0.4636260000000  0.5433770000000 1.0
C      1  0.5198610000000  0.5418160000000  0.5408900000000 1.0
C      1  0.5192210000000  0.4643020000000  0.5459310000000 1.0
C      1  0.4792770000000  0.5388150000000  0.5400230000000 1.0
C      1  0.5098280000000  0.5558460000000  0.5167630000000 1.0
C      1  0.4875750000000  0.4449820000000  0.5185630000000 1.0
C      1  0.4822140000000  0.5521040000000  0.5140590000000 1.0
C      1  0.5143050000000  0.4459270000000  0.5207450000000 1.0
C      1  0.5231130000000  0.5141350000000  0.6077560000000 1.0
C      1  0.4748860000000  0.4849840000000  0.6096750000000 1.0
C      1  0.4771190000000  0.5145740000000  0.6078730000000 1.0
C      1  0.5260940000000  0.4845570000000  0.6115030000000 1.0
C      1  0.5525800000000  0.5876980000000  0.5323370000000 1.0
C      1  0.4480890000000  0.4113450000000  0.5346490000000 1.0
C      1  0.4479600000000  0.5875070000000  0.5325140000000 1.0
C      1  0.5486350000000  0.4117760000000  0.5310070000000 1.0
C      1  0.4632880000000  0.5177370000000  0.5277620000000 1.0
C      1  0.5398510000000  0.4816410000000  0.5331770000000 1.0
C      1  0.5405380000000  0.5220410000000  0.5325640000000 1.0
C      1  0.4601410000000  0.4774750000000  0.5242810000000 1.0
C      1  0.4718860000000  0.5814920000000  0.4441030000000 1.0
C      1  0.5252660000000  0.4158410000000  0.4433620000000 1.0
C      1  0.5270010000000  0.5843620000000  0.4417350000000 1.0
C      1  0.4707800000000  0.4192760000000  0.4375410000000 1.0
C      1  0.5199790000000  0.5605880000000  0.5639580000000 1.0
C      1  0.4788340000000  0.4414430000000  0.5637260000000 1.0
C      1  0.4794910000000  0.5583480000000  0.5612540000000 1.0
C      1  0.5191950000000  0.4400180000000  0.5659650000000 1.0
C      1  0.5609260000000  0.5138190000000  0.5719690000000 1.0
C      1  0.4371770000000  0.4880770000000  0.5740100000000 1.0
C      1  0.4394770000000  0.5157440000000  0.5713520000000 1.0
C      1  0.5646290000000  0.4862190000000  0.5756820000000 1.0
C      1  0.5139580000000  0.5327730000000  0.4040890000000 1.0
C      1  0.4856800000000  0.4684020000000  0.4049380000000 1.0
C      1  0.4851800000000  0.5319370000000  0.4053590000000 1.0
C      1  0.5144120000000  0.4673960000000  0.4043810000000 1.0
C      1  0.4718120000000  0.5572460000000  0.4637560000000 1.0
C      1  0.5264640000000  0.4423390000000  0.4562010000000 1.0
C      1  0.5268390000000  0.5590140000000  0.4569220000000 1.0
C      1  0.4733560000000  0.4402240000000  0.4549490000000 1.0
C      1  0.4417440000000  0.5218360000000  0.4312830000000 1.0
C      1  0.5582890000000  0.4748670000000  0.4294720000000 1.0
C      1  0.5580470000000  0.5263910000000  0.4302960000000 1.0
C      1  0.4423210000000  0.4779420000000  0.4303250000000 1.0
C      1  0.5141150000000  0.5787300000000  0.4165070000000 1.0
C      1  0.4851550000000  0.4205390000000  0.4133010000000 1.0
C      1  0.4844670000000  0.5779040000000  0.4183430000000 1.0
C      1  0.5149960000000  0.4207120000000  0.4164710000000 1.0
C      1  0.5849740000000  0.5437220000000  0.4729680000000 1.0
C      1  0.4160340000000  0.4598810000000  0.4717540000000 1.0
C      1  0.4142150000000  0.5465540000000  0.4735140000000 1.0
C      1  0.5841350000000  0.4561650000000  0.4739420000000 1.0
C      1  0.5579770000000  0.4479100000000  0.4207950000000 1.0
C      1  0.4417530000000  0.5489550000000  0.4213940000000 1.0
C      1  0.4421980000000  0.4518690000000  0.4194070000000 1.0
C      1  0.5577410000000  0.5523530000000  0.4196680000000 1.0
C      1  0.4873500000000  0.6032890000000  0.5084090000000 1.0
C      1  0.5143500000000  0.3973670000000  0.5107870000000 1.0
C      1  0.5128620000000  0.6030340000000  0.5081520000000 1.0
C      1  0.4882460000000  0.3971200000000  0.5110920000000 1.0
C      1  0.4177640000000  0.5267950000000  0.5562220000000 1.0
C      1  0.5816770000000  0.4711810000000  0.5565270000000 1.0
C      1  0.5803570000000  0.5277760000000  0.5556700000000 1.0
C      1  0.4192660000000  0.4724260000000  0.5556360000000 1.0
C      1  0.5406360000000  0.5972690000000  0.5076070000000 1.0
C      1  0.4598380000000  0.4011760000000  0.5102990000000 1.0
C      1  0.4595720000000  0.5984220000000  0.5082980000000 1.0
C      1  0.5410020000000  0.4011350000000  0.5052100000000 1.0
C      1  0.5143740000000  0.5344400000000  0.4465030000000 1.0
C      1  0.4860830000000  0.4679800000000  0.4528750000000 1.0
C      1  0.4868410000000  0.5296660000000  0.4536040000000 1.0
C      1  0.5151190000000  0.4667880000000  0.4471070000000 1.0
C      1  0.4713150000000  0.5151670000000  0.4272650000000 1.0
C      1  0.5286000000000  0.4834460000000  0.4265960000000 1.0
C      1  0.5283100000000  0.5174160000000  0.4269270000000 1.0
C      1  0.4715340000000  0.4850130000000  0.4265020000000 1.0
C      1  0.4619940000000  0.5514510000000  0.4918930000000 1.0
C      1  0.5310030000000  0.4463640000000  0.4974060000000 1.0
C      1  0.5277620000000  0.5542260000000  0.4934970000000 1.0
C      1  0.4736840000000  0.4369150000000  0.4953380000000 1.0
C      1  0.4980990000000  0.4834240000000  0.5506450000000 1.0
C      1  0.5000610000000  0.5108320000000  0.5586810000000 1.0
END
