TITL C-2441169-1362-877 0.0633197653351362 125000 -20379.9591408575 0 0 145 (C1) n - 1
REM
REM in /home/bkarasulu/work/CARBON/AIRSS/Generating-Clusters/ReaxFF-fromJPCA2015/Units_Real/with-SteepDescent/Higher-Symm
REM
REM
REM
REM
REM
REM ./C.cell (1df0a924f5614ab8850e4351716899ee)
REM
REM compiler GCC version 9.2.1 20190827 (Red Hat 9.2.1-1)
REM options -cpp -mtune=generic -march=x86-64 -g -O0 -fpre-include=/usr/include/finclude/math-vector-fortran.h
REM seed -1508388313 1836166460 -1497832139 -319365784 761737354 -993637724 1259666299 1794301464 1835984106 -717779656 -1631171487 2046483006 2055144522 1353403469 1457234599 -1962729400 -719570236 1544213066 -632203050 1831162226 -493147282 411393222 49828897 347853301 1069169339 -1443547969 -1195077970 707067625 655772170 -1830412813 967641726 1777335745 -1273836162
REM
CELL 1.54180   50.00000   50.00000   50.00000   90.00000   90.00000   90.00000
LATT -1
SFAC C  
C      1  0.4380250000000  0.4768380000000  0.5859140000000 1.0
C      1  0.4303100000000  0.5167280000000  0.5885570000000 1.0
C      1  0.4508970000000  0.5401770000000  0.5930170000000 1.0
C      1  0.4837320000000  0.5645300000000  0.5935980000000 1.0
C      1  0.5230780000000  0.5615470000000  0.5897690000000 1.0
C      1  0.5585950000000  0.5410350000000  0.5898570000000 1.0
C      1  0.5627570000000  0.5116220000000  0.5926720000000 1.0
C      1  0.5641660000000  0.4712900000000  0.5900310000000 1.0
C      1  0.5376540000000  0.4410030000000  0.5921400000000 1.0
C      1  0.4988610000000  0.4328200000000  0.5891600000000 1.0
C      1  0.4605590000000  0.4446830000000  0.5937220000000 1.0
C      1  0.5352820000000  0.4784930000000  0.4944200000000 1.0
C      1  0.5196530000000  0.4586670000000  0.5073550000000 1.0
C      1  0.4918350000000  0.4530990000000  0.5089660000000 1.0
C      1  0.4689820000000  0.4624070000000  0.4946330000000 1.0
C      1  0.4560950000000  0.4856270000000  0.5039060000000 1.0
C      1  0.4542290000000  0.5155650000000  0.5021750000000 1.0
C      1  0.4726790000000  0.5367930000000  0.5114130000000 1.0
C      1  0.4962930000000  0.5421760000000  0.4972490000000 1.0
C      1  0.5216810000000  0.5419710000000  0.5073560000000 1.0
C      1  0.5399970000000  0.5270400000000  0.4940130000000 1.0
C      1  0.5438990000000  0.5013370000000  0.5060070000000 1.0
C      1  0.4238440000000  0.4930890000000  0.5747400000000 1.0
C      1  0.4415910000000  0.5306740000000  0.5691250000000 1.0
C      1  0.4583710000000  0.5660620000000  0.5822520000000 1.0
C      1  0.5021500000000  0.5714460000000  0.5808880000000 1.0
C      1  0.5460060000000  0.5644170000000  0.5771130000000 1.0
C      1  0.5446490000000  0.5207240000000  0.5754990000000 1.0
C      1  0.5790080000000  0.4923630000000  0.5790510000000 1.0
C      1  0.5524660000000  0.4548680000000  0.5783060000000 1.0
C      1  0.5214290000000  0.4261800000000  0.5790130000000 1.0
C      1  0.4766280000000  0.4325540000000  0.5785660000000 1.0
C      1  0.4412880000000  0.4516320000000  0.5802830000000 1.0
C      1  0.5360170000000  0.5447190000000  0.4201240000000 1.0
C      1  0.5519230000000  0.5209600000000  0.4162020000000 1.0
C      1  0.5527490000000  0.4883260000000  0.4179620000000 1.0
C      1  0.5402970000000  0.4614860000000  0.4165110000000 1.0
C      1  0.5141560000000  0.4455940000000  0.4163470000000 1.0
C      1  0.4829940000000  0.4465240000000  0.4168210000000 1.0
C      1  0.4653150000000  0.4696900000000  0.4229430000000 1.0
C      1  0.4409730000000  0.4861600000000  0.4189620000000 1.0
C      1  0.4461920000000  0.5267870000000  0.4212450000000 1.0
C      1  0.4706960000000  0.5406940000000  0.4198790000000 1.0
C      1  0.4870310000000  0.5649650000000  0.4213360000000 1.0
C      1  0.5061870000000  0.5896290000000  0.4570280000000 1.0
C      1  0.5570000000000  0.5789730000000  0.4564310000000 1.0
C      1  0.5875980000000  0.5341090000000  0.4557370000000 1.0
C      1  0.5906820000000  0.4809820000000  0.4552150000000 1.0
C      1  0.5683930000000  0.4331710000000  0.4561730000000 1.0
C      1  0.5213420000000  0.4083260000000  0.4558250000000 1.0
C      1  0.4677700000000  0.4114320000000  0.4562730000000 1.0
C      1  0.4286770000000  0.4464770000000  0.4537580000000 1.0
C      1  0.4044000000000  0.4919540000000  0.4546230000000 1.0
C      1  0.4134530000000  0.5442330000000  0.4596540000000 1.0
C      1  0.4557940000000  0.5760210000000  0.4589580000000 1.0
C      1  0.4199660000000  0.5526810000000  0.5224220000000 1.0
C      1  0.4664950000000  0.5914350000000  0.5385420000000 1.0
C      1  0.5212220000000  0.5943430000000  0.5371100000000 1.0
C      1  0.5663760000000  0.5685840000000  0.5357160000000 1.0
C      1  0.5924480000000  0.5225460000000  0.5377050000000 1.0
C      1  0.5907900000000  0.4715280000000  0.5375000000000 1.0
C      1  0.5595110000000  0.4262120000000  0.5365470000000 1.0
C      1  0.5081530000000  0.4074520000000  0.5359290000000 1.0
C      1  0.4543840000000  0.4153620000000  0.5357430000000 1.0
C      1  0.4168390000000  0.4556880000000  0.5367670000000 1.0
C      1  0.3983330000000  0.5039080000000  0.5315510000000 1.0
C      1  0.4901410000000  0.5400060000000  0.4696550000000 1.0
C      1  0.5140740000000  0.5457850000000  0.4539800000000 1.0
C      1  0.5365820000000  0.5306920000000  0.4656860000000 1.0
C      1  0.5339510000000  0.5039290000000  0.4546830000000 1.0
C      1  0.5404910000000  0.4792550000000  0.4685880000000 1.0
C      1  0.5284220000000  0.4544880000000  0.4587750000000 1.0
C      1  0.5015170000000  0.4558740000000  0.4616560000000 1.0
C      1  0.4744870000000  0.4592250000000  0.4659170000000 1.0
C      1  0.4683140000000  0.4878210000000  0.4635300000000 1.0
C      1  0.4480320000000  0.5057460000000  0.4585470000000 1.0
C      1  0.4647260000000  0.5277260000000  0.4639850000000 1.0
C      1  0.5494210000000  0.5629170000000  0.4356810000000 1.0
C      1  0.5718790000000  0.5266450000000  0.4341460000000 1.0
C      1  0.5716010000000  0.4819750000000  0.4356620000000 1.0
C      1  0.5489030000000  0.4440940000000  0.4382110000000 1.0
C      1  0.5137960000000  0.4226690000000  0.4327470000000 1.0
C      1  0.4726400000000  0.4280460000000  0.4354350000000 1.0
C      1  0.4394070000000  0.4581350000000  0.4287810000000 1.0
C      1  0.4266160000000  0.4988880000000  0.4392260000000 1.0
C      1  0.4303130000000  0.5387000000000  0.4398770000000 1.0
C      1  0.4611550000000  0.5666260000000  0.4321680000000 1.0
C      1  0.5094610000000  0.5686750000000  0.4376240000000 1.0
C      1  0.5668980000000  0.4283690000000  0.5096450000000 1.0
C      1  0.5166660000000  0.4050050000000  0.5094270000000 1.0
C      1  0.4609590000000  0.4102950000000  0.5091190000000 1.0
C      1  0.4194800000000  0.4453140000000  0.5103580000000 1.0
C      1  0.3984510000000  0.4913130000000  0.5058750000000 1.0
C      1  0.4014750000000  0.5304290000000  0.5175650000000 1.0
C      1  0.4569560000000  0.5876090000000  0.5116370000000 1.0
C      1  0.5112420000000  0.5960760000000  0.5105010000000 1.0
C      1  0.5616370000000  0.5748390000000  0.5084010000000 1.0
C      1  0.5921060000000  0.5294240000000  0.5094900000000 1.0
C      1  0.5935850000000  0.4755970000000  0.5094510000000 1.0
C      1  0.4569080000000  0.5686220000000  0.5528190000000 1.0
C      1  0.4963920000000  0.5861810000000  0.5510310000000 1.0
C      1  0.5415210000000  0.5736570000000  0.5483340000000 1.0
C      1  0.5726350000000  0.5416590000000  0.5447220000000 1.0
C      1  0.5896430000000  0.4957520000000  0.5519270000000 1.0
C      1  0.5694990000000  0.4508680000000  0.5491290000000 1.0
C      1  0.5290400000000  0.4245220000000  0.5481750000000 1.0
C      1  0.4811390000000  0.4203060000000  0.5472260000000 1.0
C      1  0.4395130000000  0.4412230000000  0.5496160000000 1.0
C      1  0.4125270000000  0.4836380000000  0.5472360000000 1.0
C      1  0.4322710000000  0.5353340000000  0.5430200000000 1.0
C      1  0.4981920000000  0.5576310000000  0.5422520000000 1.0
C      1  0.5244640000000  0.5462930000000  0.5354240000000 1.0
C      1  0.5467760000000  0.5233790000000  0.5479840000000 1.0
C      1  0.5471400000000  0.4980290000000  0.5328560000000 1.0
C      1  0.5461310000000  0.4705720000000  0.5416330000000 1.0
C      1  0.5258430000000  0.4532710000000  0.5344630000000 1.0
C      1  0.4826870000000  0.4485690000000  0.5354200000000 1.0
C      1  0.4598190000000  0.4618950000000  0.5421300000000 1.0
C      1  0.4482740000000  0.4863370000000  0.5316430000000 1.0
C      1  0.4439310000000  0.5149820000000  0.5292400000000 1.0
C      1  0.4727760000000  0.5473430000000  0.5381270000000 1.0
C      1  0.5326060000000  0.5911690000000  0.4689860000000 1.0
C      1  0.5774680000000  0.5596940000000  0.4683760000000 1.0
C      1  0.5955180000000  0.5075080000000  0.4682590000000 1.0
C      1  0.5857830000000  0.4535940000000  0.4684960000000 1.0
C      1  0.5476270000000  0.4157790000000  0.4690470000000 1.0
C      1  0.4944930000000  0.4038170000000  0.4690980000000 1.0
C      1  0.4428120000000  0.4250530000000  0.4681630000000 1.0
C      1  0.4101840000000  0.4655350000000  0.4661620000000 1.0
C      1  0.4012890000000  0.5180960000000  0.4668650000000 1.0
C      1  0.4331720000000  0.5637290000000  0.4735160000000 1.0
C      1  0.4800390000000  0.5898300000000  0.4702130000000 1.0
C      1  0.5842750000000  0.4516610000000  0.4965680000000 1.0
C      1  0.5449980000000  0.4141310000000  0.4971330000000 1.0
C      1  0.4907380000000  0.4040800000000  0.4969360000000 1.0
C      1  0.4388950000000  0.4245280000000  0.4969180000000 1.0
C      1  0.4074090000000  0.4655660000000  0.4946190000000 1.0
C      1  0.4020580000000  0.5157810000000  0.4934480000000 1.0
C      1  0.4344510000000  0.5687660000000  0.5023010000000 1.0
C      1  0.4821490000000  0.5939110000000  0.4985180000000 1.0
C      1  0.5361390000000  0.5896250000000  0.4974230000000 1.0
C      1  0.5788660000000  0.5554920000000  0.4963430000000 1.0
C      1  0.5958210000000  0.5041090000000  0.4962190000000 1.0
C      1  0.4914360000000  0.4988750000000  0.4809760000000 1.0
C      1  0.5041130000000  0.5038110000000  0.4540990000000 1.0
END
