TITL C-2441166-8118-387 0.144791199237632 125000 -24438.09788799 0 0 187 (C1) n - 1
REM
REM in /home/bkarasulu/work/CARBON/AIRSS/Generating-Clusters/ReaxFF-fromJPCA2015/Units_Real/with-SteepDescent/Higher-Symm
REM
REM
REM
REM
REM
REM ./C.cell (1df0a924f5614ab8850e4351716899ee)
REM
REM compiler GCC version 9.2.1 20190827 (Red Hat 9.2.1-1)
REM options -cpp -mtune=generic -march=x86-64 -g -O0 -fpre-include=/usr/include/finclude/math-vector-fortran.h
REM seed -1550121575 -1020150969 1119184981 1943621436 -1224666031 -1203989791 -38774141 -2082573242 1558846351 -14889980 1224288938 -1375226121 -1202817460 2035357984 -685058080 1406743189 1660919485 -1823602963 -1291775770 1125328102 -1160984187 970003280 1134801047 -1475872700 55845692 -1564841045 -904030498 61710610 -560955699 -1512544664 -2120198686 -770139332 -934718550
REM
CELL 1.54180   50.00000   50.00000   50.00000   90.00000   90.00000   90.00000
LATT -1
SFAC C  
C      1  0.4125900000000  0.5130450000000  0.5562730000000 1.0
C      1  0.4464870000000  0.5960100000000  0.4738240000000 1.0
C      1  0.4093200000000  0.4454560000000  0.4837150000000 1.0
C      1  0.4357950000000  0.4233110000000  0.5251830000000 1.0
C      1  0.5153080000000  0.5170230000000  0.4180220000000 1.0
C      1  0.4911890000000  0.4462360000000  0.5449000000000 1.0
C      1  0.4733270000000  0.4848870000000  0.5366110000000 1.0
C      1  0.4660530000000  0.5006250000000  0.6046610000000 1.0
C      1  0.5228780000000  0.4935210000000  0.6091550000000 1.0
C      1  0.5606740000000  0.5838000000000  0.4557900000000 1.0
C      1  0.5094540000000  0.4931420000000  0.4059520000000 1.0
C      1  0.5678850000000  0.4809750000000  0.5660440000000 1.0
C      1  0.5967960000000  0.5262680000000  0.4624550000000 1.0
C      1  0.5639860000000  0.4604550000000  0.4640780000000 1.0
C      1  0.4830540000000  0.4862220000000  0.3984490000000 1.0
C      1  0.5001910000000  0.5452940000000  0.4492600000000 1.0
C      1  0.5396780000000  0.3922170000000  0.4912020000000 1.0
C      1  0.5274920000000  0.5011060000000  0.4676570000000 1.0
C      1  0.5237960000000  0.5004210000000  0.5361010000000 1.0
C      1  0.5368600000000  0.4457270000000  0.5836860000000 1.0
C      1  0.5534560000000  0.5433830000000  0.4828870000000 1.0
C      1  0.5475560000000  0.5550180000000  0.5585820000000 1.0
C      1  0.4506340000000  0.5059030000000  0.4309910000000 1.0
C      1  0.4597860000000  0.5512290000000  0.5865950000000 1.0
C      1  0.5436760000000  0.5420010000000  0.5874680000000 1.0
C      1  0.5082300000000  0.4083950000000  0.5134200000000 1.0
C      1  0.5213700000000  0.4334170000000  0.5168260000000 1.0
C      1  0.6034160000000  0.5103340000000  0.5572780000000 1.0
C      1  0.6096170000000  0.4746140000000  0.4837390000000 1.0
C      1  0.4761380000000  0.4114830000000  0.5192370000000 1.0
C      1  0.5612150000000  0.5833140000000  0.5166040000000 1.0
C      1  0.4995600000000  0.4628810000000  0.5007790000000 1.0
C      1  0.4358710000000  0.4719490000000  0.4147810000000 1.0
C      1  0.4731450000000  0.5931410000000  0.5453980000000 1.0
C      1  0.4805800000000  0.5893200000000  0.4389590000000 1.0
C      1  0.4233790000000  0.4504170000000  0.4304270000000 1.0
C      1  0.4346050000000  0.4792400000000  0.5105460000000 1.0
C      1  0.5212090000000  0.4054860000000  0.4572770000000 1.0
C      1  0.4714020000000  0.6052120000000  0.4621600000000 1.0
C      1  0.5083160000000  0.5406640000000  0.5172650000000 1.0
C      1  0.4992380000000  0.5779400000000  0.4892730000000 1.0
C      1  0.4883870000000  0.5599380000000  0.4703290000000 1.0
C      1  0.5064230000000  0.4465570000000  0.4740490000000 1.0
C      1  0.5665450000000  0.4929530000000  0.5179000000000 1.0
C      1  0.5351820000000  0.5152060000000  0.5927790000000 1.0
C      1  0.5880430000000  0.4648450000000  0.5563200000000 1.0
C      1  0.4942850000000  0.4915650000000  0.6026550000000 1.0
C      1  0.5838850000000  0.4377030000000  0.5186070000000 1.0
C      1  0.5618840000000  0.4320300000000  0.4530330000000 1.0
C      1  0.4460970000000  0.5158630000000  0.4724930000000 1.0
C      1  0.6054380000000  0.4791850000000  0.4565430000000 1.0
C      1  0.5829480000000  0.5759130000000  0.4738230000000 1.0
C      1  0.5115030000000  0.3957280000000  0.4841470000000 1.0
C      1  0.4767320000000  0.5026910000000  0.5117950000000 1.0
C      1  0.5969940000000  0.5526940000000  0.4686700000000 1.0
C      1  0.4376190000000  0.5698310000000  0.4602650000000 1.0
C      1  0.6070530000000  0.4826710000000  0.5447350000000 1.0
C      1  0.5358740000000  0.5912010000000  0.4691500000000 1.0
C      1  0.4732310000000  0.4686510000000  0.4463800000000 1.0
C      1  0.4444680000000  0.4305450000000  0.4340410000000 1.0
C      1  0.4568220000000  0.4155360000000  0.5423970000000 1.0
C      1  0.5488590000000  0.5140020000000  0.5294570000000 1.0
C      1  0.5197530000000  0.4765710000000  0.5218270000000 1.0
C      1  0.4398350000000  0.4882580000000  0.4809720000000 1.0
C      1  0.4939260000000  0.5236790000000  0.4973360000000 1.0
C      1  0.4862290000000  0.5226690000000  0.4388870000000 1.0
C      1  0.4827340000000  0.4295340000000  0.4746820000000 1.0
C      1  0.5609520000000  0.5332520000000  0.5461300000000 1.0
C      1  0.4465060000000  0.5475400000000  0.4262650000000 1.0
C      1  0.5648540000000  0.4941130000000  0.4212380000000 1.0
C      1  0.5643420000000  0.5229120000000  0.5918840000000 1.0
C      1  0.4002890000000  0.4709170000000  0.4739150000000 1.0
C      1  0.5072090000000  0.5227730000000  0.5400060000000 1.0
C      1  0.4531050000000  0.5549610000000  0.5004230000000 1.0
C      1  0.5473560000000  0.5176320000000  0.4187490000000 1.0
C      1  0.3947330000000  0.4831870000000  0.5337410000000 1.0
C      1  0.4085700000000  0.5411440000000  0.4922090000000 1.0
C      1  0.5553230000000  0.5839740000000  0.5450650000000 1.0
C      1  0.4522130000000  0.5248690000000  0.4082090000000 1.0
C      1  0.5487400000000  0.3976400000000  0.5185280000000 1.0
C      1  0.4973190000000  0.5661330000000  0.5149670000000 1.0
C      1  0.5805430000000  0.4830270000000  0.4442590000000 1.0
C      1  0.4611540000000  0.5586060000000  0.4748160000000 1.0
C      1  0.4799970000000  0.4466250000000  0.5192010000000 1.0
C      1  0.4695180000000  0.5663390000000  0.4230000000000 1.0
C      1  0.4734360000000  0.5654250000000  0.5318610000000 1.0
C      1  0.5957980000000  0.4961280000000  0.5235350000000 1.0
C      1  0.5701030000000  0.4973820000000  0.4886200000000 1.0
C      1  0.4098530000000  0.5663140000000  0.5076990000000 1.0
C      1  0.3971870000000  0.5017950000000  0.4848630000000 1.0
C      1  0.4864510000000  0.4134890000000  0.4281880000000 1.0
C      1  0.5769180000000  0.4415640000000  0.5468990000000 1.0
C      1  0.5893630000000  0.5348670000000  0.5459060000000 1.0
C      1  0.4512210000000  0.4668350000000  0.4660480000000 1.0
C      1  0.4393640000000  0.5311540000000  0.4978350000000 1.0
C      1  0.5605350000000  0.5403140000000  0.4291590000000 1.0
C      1  0.4522720000000  0.4325210000000  0.5659520000000 1.0
C      1  0.5103280000000  0.4508130000000  0.4087300000000 1.0
C      1  0.4167100000000  0.4406260000000  0.5365800000000 1.0
C      1  0.5223250000000  0.5627650000000  0.5505970000000 1.0
C      1  0.5277300000000  0.4283600000000  0.5453010000000 1.0
C      1  0.4960520000000  0.4413660000000  0.5842290000000 1.0
C      1  0.5264160000000  0.5920120000000  0.5460570000000 1.0
C      1  0.5382210000000  0.5308600000000  0.5043480000000 1.0
C      1  0.4398550000000  0.5503810000000  0.5637720000000 1.0
C      1  0.4478290000000  0.4083920000000  0.4529480000000 1.0
C      1  0.4669860000000  0.5328890000000  0.6092890000000 1.0
C      1  0.4604770000000  0.4468360000000  0.4840400000000 1.0
C      1  0.5551630000000  0.5023390000000  0.4648830000000 1.0
C      1  0.5260670000000  0.4733470000000  0.4042490000000 1.0
C      1  0.4497040000000  0.5220390000000  0.5223860000000 1.0
C      1  0.5462880000000  0.4640650000000  0.4872910000000 1.0
C      1  0.5013360000000  0.4238500000000  0.5607160000000 1.0
C      1  0.4524270000000  0.5086890000000  0.5790910000000 1.0
C      1  0.5137280000000  0.4120200000000  0.4308090000000 1.0
C      1  0.4967270000000  0.5935240000000  0.5611380000000 1.0
C      1  0.4369430000000  0.5748300000000  0.5115050000000 1.0
C      1  0.6047910000000  0.5190130000000  0.5099760000000 1.0
C      1  0.5525260000000  0.4420990000000  0.4260220000000 1.0
C      1  0.5173460000000  0.5779890000000  0.4222920000000 1.0
C      1  0.4269160000000  0.4456410000000  0.5627790000000 1.0
C      1  0.4753230000000  0.5174520000000  0.4654020000000 1.0
C      1  0.4946030000000  0.6156340000000  0.5089510000000 1.0
C      1  0.5192770000000  0.5146740000000  0.4892830000000 1.0
C      1  0.5331160000000  0.5612010000000  0.4747420000000 1.0
C      1  0.5477200000000  0.4057020000000  0.4664860000000 1.0
C      1  0.4111910000000  0.5525300000000  0.5324300000000 1.0
C      1  0.5094990000000  0.4862560000000  0.4540500000000 1.0
C      1  0.4947520000000  0.6060080000000  0.4813050000000 1.0
C      1  0.3977090000000  0.5280620000000  0.5330900000000 1.0
C      1  0.5796200000000  0.5053530000000  0.5739830000000 1.0
C      1  0.4084980000000  0.4715290000000  0.4457430000000 1.0
C      1  0.4050190000000  0.5252620000000  0.4689680000000 1.0
C      1  0.5839900000000  0.4420860000000  0.4695320000000 1.0
C      1  0.4235070000000  0.4923560000000  0.4309680000000 1.0
C      1  0.5824990000000  0.5677000000000  0.5039130000000 1.0
C      1  0.4951140000000  0.5621140000000  0.4100650000000 1.0
C      1  0.4723480000000  0.3972640000000  0.4937920000000 1.0
C      1  0.4660780000000  0.4474760000000  0.5872190000000 1.0
C      1  0.4496610000000  0.4709500000000  0.5925210000000 1.0
C      1  0.4794750000000  0.4804840000000  0.4918120000000 1.0
C      1  0.5660950000000  0.5284820000000  0.4584390000000 1.0
C      1  0.5411560000000  0.4725420000000  0.5730950000000 1.0
C      1  0.5948790000000  0.5447480000000  0.5188860000000 1.0
C      1  0.4687990000000  0.4336620000000  0.4166460000000 1.0
C      1  0.4355680000000  0.5020900000000  0.5341630000000 1.0
C      1  0.5528300000000  0.4346220000000  0.5618940000000 1.0
C      1  0.4363080000000  0.4297700000000  0.4950160000000 1.0
C      1  0.4466230000000  0.4034090000000  0.4821660000000 1.0
C      1  0.4242520000000  0.4703750000000  0.5773910000000 1.0
C      1  0.5471460000000  0.5675190000000  0.4330900000000 1.0
C      1  0.4687890000000  0.6084720000000  0.5207210000000 1.0
C      1  0.4289070000000  0.5262360000000  0.5759260000000 1.0
C      1  0.4574810000000  0.4644340000000  0.5245500000000 1.0
C      1  0.4475700000000  0.5995520000000  0.5024940000000 1.0
C      1  0.5391840000000  0.4369170000000  0.4955440000000 1.0
C      1  0.4052510000000  0.4859970000000  0.5609600000000 1.0
C      1  0.5379430000000  0.4696210000000  0.6018480000000 1.0
C      1  0.4879230000000  0.5445160000000  0.5765150000000 1.0
C      1  0.4761840000000  0.5167140000000  0.3942500000000 1.0
C      1  0.4837940000000  0.4900520000000  0.4658940000000 1.0
C      1  0.5619100000000  0.4218230000000  0.5091140000000 1.0
C      1  0.5260270000000  0.3996930000000  0.5371020000000 1.0
C      1  0.5034770000000  0.4587390000000  0.4474560000000 1.0
C      1  0.4631050000000  0.4818600000000  0.4224170000000 1.0
C      1  0.5404220000000  0.5969400000000  0.4998770000000 1.0
C      1  0.5206690000000  0.6051420000000  0.5175710000000 1.0
C      1  0.4961520000000  0.4922280000000  0.5735130000000 1.0
C      1  0.5091550000000  0.5926100000000  0.4445140000000 1.0
C      1  0.5033690000000  0.5675400000000  0.5693430000000 1.0
C      1  0.5288790000000  0.4298030000000  0.4164580000000 1.0
C      1  0.3926680000000  0.5053370000000  0.5143830000000 1.0
C      1  0.4933860000000  0.5186560000000  0.5627470000000 1.0
C      1  0.4560570000000  0.5442120000000  0.5403110000000 1.0
C      1  0.4305030000000  0.5420540000000  0.4522650000000 1.0
C      1  0.5989580000000  0.5063510000000  0.4851670000000 1.0
C      1  0.4988900000000  0.4644550000000  0.5655150000000 1.0
C      1  0.5516190000000  0.4692300000000  0.4153420000000 1.0
C      1  0.5960630000000  0.4505590000000  0.4942040000000 1.0
C      1  0.4985810000000  0.5343590000000  0.3995700000000 1.0
C      1  0.5463160000000  0.4728730000000  0.5143230000000 1.0
C      1  0.4541760000000  0.4947650000000  0.5542900000000 1.0
C      1  0.4087190000000  0.4625560000000  0.5189870000000 1.0
C      1  0.4939410000000  0.5417780000000  0.6101510000000 1.0
C      1  0.4769080000000  0.4069810000000  0.4544480000000 1.0
C      1  0.5278080000000  0.5502200000000  0.4500990000000 1.0
C      1  0.4824850000000  0.4541330000000  0.4021120000000 1.0
END
