TITL C-2441162-9305-1261 0.155003318893157 125000 -17080.6620744777 0 0 148 (C1) n - 1
REM
REM in /home/bkarasulu/work/CARBON/AIRSS/Generating-Clusters/ReaxFF-fromJPCA2015/Units_Real/with-SteepDescent/Higher-Symm
REM
REM
REM
REM
REM
REM ./C.cell (1df0a924f5614ab8850e4351716899ee)
REM
REM compiler GCC version 9.2.1 20190827 (Red Hat 9.2.1-1)
REM options -cpp -mtune=generic -march=x86-64 -g -O0 -fpre-include=/usr/include/finclude/math-vector-fortran.h
REM seed -1137532410 104448714 1914976275 1741427835 -202914988 -1666428843 -1963441214 -1846276962 -967780649 -1451859513 -2496208 992155026 1690827688 -384267229 1068398395 573639161 776767937 -1009396978 -2029133420 -77306369 -1804134997 1884171135 1008133006 -1100618078 521182819 -709561129 -1448889640 -253128892 1378950103 1083149524 -417005529 1712740752 -2137299766
REM
CELL 1.54180   50.00000   50.00000   50.00000   90.00000   90.00000   90.00000
LATT -1
SFAC C  
C      1  0.5318010000000  0.4821850000000  0.4105920000000 1.0
C      1  0.4812580000000  0.4662930000000  0.4118410000000 1.0
C      1  0.4664610000000  0.5181940000000  0.4121430000000 1.0
C      1  0.5184930000000  0.5331150000000  0.4126580000000 1.0
C      1  0.5318870000000  0.4825870000000  0.5867910000000 1.0
C      1  0.4817920000000  0.4658470000000  0.5870050000000 1.0
C      1  0.4671460000000  0.5202230000000  0.5879900000000 1.0
C      1  0.5186020000000  0.5340030000000  0.5869310000000 1.0
C      1  0.4981650000000  0.5187530000000  0.5504540000000 1.0
C      1  0.5219640000000  0.5010010000000  0.5515330000000 1.0
C      1  0.5052100000000  0.4776060000000  0.5461330000000 1.0
C      1  0.4781690000000  0.4967160000000  0.5533410000000 1.0
C      1  0.4982940000000  0.5210480000000  0.4505490000000 1.0
C      1  0.5223110000000  0.5029480000000  0.4484070000000 1.0
C      1  0.5030430000000  0.4802660000000  0.4490130000000 1.0
C      1  0.4788530000000  0.4980580000000  0.4487680000000 1.0
C      1  0.5174860000000  0.4371500000000  0.4242140000000 1.0
C      1  0.4369800000000  0.4805460000000  0.4229280000000 1.0
C      1  0.4810020000000  0.5628790000000  0.4227510000000 1.0
C      1  0.5632260000000  0.5159320000000  0.4241630000000 1.0
C      1  0.5191280000000  0.4367490000000  0.5759910000000 1.0
C      1  0.4360890000000  0.4852130000000  0.5736470000000 1.0
C      1  0.4833120000000  0.5639970000000  0.5754300000000 1.0
C      1  0.5633630000000  0.5147550000000  0.5736890000000 1.0
C      1  0.5561300000000  0.5760330000000  0.4895830000000 1.0
C      1  0.5751770000000  0.4439740000000  0.4894080000000 1.0
C      1  0.4444230000000  0.4255560000000  0.4888000000000 1.0
C      1  0.4251000000000  0.5559410000000  0.4899830000000 1.0
C      1  0.5665430000000  0.5708170000000  0.5172470000000 1.0
C      1  0.5706360000000  0.4354490000000  0.5175590000000 1.0
C      1  0.4342650000000  0.4307920000000  0.5167390000000 1.0
C      1  0.4309370000000  0.5652910000000  0.5176520000000 1.0
C      1  0.4447210000000  0.5169520000000  0.5146180000000 1.0
C      1  0.5169540000000  0.5557520000000  0.5149000000000 1.0
C      1  0.5559150000000  0.4833170000000  0.5146860000000 1.0
C      1  0.4828880000000  0.4439760000000  0.5148370000000 1.0
C      1  0.4447900000000  0.5164370000000  0.4835160000000 1.0
C      1  0.5168450000000  0.5550400000000  0.4833680000000 1.0
C      1  0.5551560000000  0.4837450000000  0.4839210000000 1.0
C      1  0.4830380000000  0.4452960000000  0.4839360000000 1.0
C      1  0.4347000000000  0.4397550000000  0.4544190000000 1.0
C      1  0.4403370000000  0.5649850000000  0.4535600000000 1.0
C      1  0.5650380000000  0.5600680000000  0.4534950000000 1.0
C      1  0.5592870000000  0.4376690000000  0.4525560000000 1.0
C      1  0.4336480000000  0.4401960000000  0.5449270000000 1.0
C      1  0.4408610000000  0.5642660000000  0.5450190000000 1.0
C      1  0.5650590000000  0.5603710000000  0.5447080000000 1.0
C      1  0.5598760000000  0.4358720000000  0.5448160000000 1.0
C      1  0.5309030000000  0.5525160000000  0.4315610000000 1.0
C      1  0.5457150000000  0.4719770000000  0.4342360000000 1.0
C      1  0.4733010000000  0.4451920000000  0.4312750000000 1.0
C      1  0.4474720000000  0.5299920000000  0.4321770000000 1.0
C      1  0.5289630000000  0.5533220000000  0.5679350000000 1.0
C      1  0.5462780000000  0.4723730000000  0.5636460000000 1.0
C      1  0.4703400000000  0.4478770000000  0.5671810000000 1.0
C      1  0.4489820000000  0.5302530000000  0.5689600000000 1.0
C      1  0.5105250000000  0.4627900000000  0.5886330000000 1.0
C      1  0.4646210000000  0.4903110000000  0.5840920000000 1.0
C      1  0.4890770000000  0.5384470000000  0.5886970000000 1.0
C      1  0.5369590000000  0.5115310000000  0.5873900000000 1.0
C      1  0.5105630000000  0.4621190000000  0.4098650000000 1.0
C      1  0.4627600000000  0.4885510000000  0.4101050000000 1.0
C      1  0.4887300000000  0.5365060000000  0.4110610000000 1.0
C      1  0.5373390000000  0.5115630000000  0.4098250000000 1.0
C      1  0.4758520000000  0.5573260000000  0.5138030000000 1.0
C      1  0.5591110000000  0.5269370000000  0.5130900000000 1.0
C      1  0.5249380000000  0.4418160000000  0.5141590000000 1.0
C      1  0.4418850000000  0.4742260000000  0.5134100000000 1.0
C      1  0.4753340000000  0.5573610000000  0.4848810000000 1.0
C      1  0.5585550000000  0.5276640000000  0.4848710000000 1.0
C      1  0.5256140000000  0.4417340000000  0.4850740000000 1.0
C      1  0.4425510000000  0.4743610000000  0.4843490000000 1.0
C      1  0.5698970000000  0.4865730000000  0.5693810000000 1.0
C      1  0.4956910000000  0.4360740000000  0.5589600000000 1.0
C      1  0.4321390000000  0.5103790000000  0.5611390000000 1.0
C      1  0.5045270000000  0.5641430000000  0.5591070000000 1.0
C      1  0.5670850000000  0.4898100000000  0.4344970000000 1.0
C      1  0.4958270000000  0.4370310000000  0.4401670000000 1.0
C      1  0.4357790000000  0.5038810000000  0.4395230000000 1.0
C      1  0.5042850000000  0.5630870000000  0.4394920000000 1.0
C      1  0.5735330000000  0.4638200000000  0.5506750000000 1.0
C      1  0.4582910000000  0.4268560000000  0.5504760000000 1.0
C      1  0.4259110000000  0.5377140000000  0.5521090000000 1.0
C      1  0.5411870000000  0.5741840000000  0.5512860000000 1.0
C      1  0.5753460000000  0.4615130000000  0.4475260000000 1.0
C      1  0.4586650000000  0.4273250000000  0.4484100000000 1.0
C      1  0.4259810000000  0.5412000000000  0.4489290000000 1.0
C      1  0.5412060000000  0.5743020000000  0.4489020000000 1.0
C      1  0.5912600000000  0.5311690000000  0.5139980000000 1.0
C      1  0.5313730000000  0.4097320000000  0.5139680000000 1.0
C      1  0.4095310000000  0.4689380000000  0.5141930000000 1.0
C      1  0.4691870000000  0.5894300000000  0.5140930000000 1.0
C      1  0.5906300000000  0.5317900000000  0.4848790000000 1.0
C      1  0.5316870000000  0.4101310000000  0.4841300000000 1.0
C      1  0.4101100000000  0.4681570000000  0.4850290000000 1.0
C      1  0.4685420000000  0.5897030000000  0.4850020000000 1.0
C      1  0.4970480000000  0.5469230000000  0.5356370000000 1.0
C      1  0.5425610000000  0.5064210000000  0.5303750000000 1.0
C      1  0.5042600000000  0.4504690000000  0.5333560000000 1.0
C      1  0.4559950000000  0.4944740000000  0.5298090000000 1.0
C      1  0.4970130000000  0.5478020000000  0.4646260000000 1.0
C      1  0.5423140000000  0.5063330000000  0.4715140000000 1.0
C      1  0.5033880000000  0.4513450000000  0.4639380000000 1.0
C      1  0.4520560000000  0.4963400000000  0.4642220000000 1.0
C      1  0.5437330000000  0.5498260000000  0.4834720000000 1.0
C      1  0.5483240000000  0.4569020000000  0.4839270000000 1.0
C      1  0.4575320000000  0.4519030000000  0.4826360000000 1.0
C      1  0.4516250000000  0.5431210000000  0.4833270000000 1.0
C      1  0.5450090000000  0.5493690000000  0.5143210000000 1.0
C      1  0.5478200000000  0.4558350000000  0.5145520000000 1.0
C      1  0.4555670000000  0.4517600000000  0.5158170000000 1.0
C      1  0.4528910000000  0.5437680000000  0.5150240000000 1.0
C      1  0.4800210000000  0.4869520000000  0.5143010000000 1.0
C      1  0.4863980000000  0.5165340000000  0.5127330000000 1.0
C      1  0.5175830000000  0.5103990000000  0.5128160000000 1.0
C      1  0.5074700000000  0.4858670000000  0.5175930000000 1.0
C      1  0.4832290000000  0.4843160000000  0.4850250000000 1.0
C      1  0.4890580000000  0.5140920000000  0.4830980000000 1.0
C      1  0.5184240000000  0.5118310000000  0.4880250000000 1.0
C      1  0.5135810000000  0.4814880000000  0.4881420000000 1.0
C      1  0.4239060000000  0.4693060000000  0.5532410000000 1.0
C      1  0.4677350000000  0.5753320000000  0.5532600000000 1.0
C      1  0.5752300000000  0.5311380000000  0.5526650000000 1.0
C      1  0.5337500000000  0.4244140000000  0.5529200000000 1.0
C      1  0.4239450000000  0.4656680000000  0.4457990000000 1.0
C      1  0.4662320000000  0.5762720000000  0.4455390000000 1.0
C      1  0.5751160000000  0.5329590000000  0.4458680000000 1.0
C      1  0.5349000000000  0.4243650000000  0.4450140000000 1.0
C      1  0.4100260000000  0.4884030000000  0.5345980000000 1.0
C      1  0.4883070000000  0.5900440000000  0.5346950000000 1.0
C      1  0.5897140000000  0.5121830000000  0.5348880000000 1.0
C      1  0.5114190000000  0.4091760000000  0.5336270000000 1.0
C      1  0.4090030000000  0.4868160000000  0.4639700000000 1.0
C      1  0.4869210000000  0.5910620000000  0.4637820000000 1.0
C      1  0.5897640000000  0.5131110000000  0.4638100000000 1.0
C      1  0.5123320000000  0.4086300000000  0.4637320000000 1.0
C      1  0.4814100000000  0.4143990000000  0.5250750000000 1.0
C      1  0.4156750000000  0.5179760000000  0.5245060000000 1.0
C      1  0.5181070000000  0.5849350000000  0.5249500000000 1.0
C      1  0.5847250000000  0.4820870000000  0.5247070000000 1.0
C      1  0.4824040000000  0.4142130000000  0.4712060000000 1.0
C      1  0.4144280000000  0.5174560000000  0.4719080000000 1.0
C      1  0.5173320000000  0.5855290000000  0.4718830000000 1.0
C      1  0.5844980000000  0.4833480000000  0.4725350000000 1.0
C      1  0.5909760000000  0.4675350000000  0.4975450000000 1.0
C      1  0.4686130000000  0.4093190000000  0.4971790000000 1.0
C      1  0.4090820000000  0.5317370000000  0.4975470000000 1.0
C      1  0.5311560000000  0.5912140000000  0.4976160000000 1.0
END
