TITL C-2441167-4473-1490 0.222756397519685 125000 -3061.30341370125 0 0 70 (C1) n - 1
REM
REM in /home/bkarasulu/work/CARBON/AIRSS/Generating-Clusters/ReaxFF-fromJPCA2015/Units_Real/with-SteepDescent/Higher-Symm
REM
REM
REM
REM
REM
REM ./C.cell (1df0a924f5614ab8850e4351716899ee)
REM
REM compiler GCC version 9.2.1 20190827 (Red Hat 9.2.1-1)
REM options -cpp -mtune=generic -march=x86-64 -g -O0 -fpre-include=/usr/include/finclude/math-vector-fortran.h
REM seed 781418173 1715049104 -1208503967 -394280342 1739701657 690640156 -640233159 -1406778539 -1569074771 -1351675325 -1217337107 -362065698 -874673016 1360202800 -454450137 -133548273 1828798465 1999874168 -329681484 -1362451501 -926415190 -1729825284 688109278 -1517251003 -1690455608 718460830 -642190144 1508843645 1660266912 -1120317846 -1708818913 -1530694832 -94694438
REM
CELL 1.54180   50.00000   50.00000   50.00000   90.00000   90.00000   90.00000
LATT -1
SFAC C  
C      1  0.5177410000000  0.5428900000000  0.4998370000000 1.0
C      1  0.5431930000000  0.4810210000000  0.5020150000000 1.0
C      1  0.4819360000000  0.4560370000000  0.5014180000000 1.0
C      1  0.4571750000000  0.5172500000000  0.5001450000000 1.0
C      1  0.5185850000000  0.4533760000000  0.5050320000000 1.0
C      1  0.5428160000000  0.5181560000000  0.5027490000000 1.0
C      1  0.4807320000000  0.5427990000000  0.5020120000000 1.0
C      1  0.4562970000000  0.4803800000000  0.5014670000000 1.0
C      1  0.5120710000000  0.4274700000000  0.5006350000000 1.0
C      1  0.4289890000000  0.4853310000000  0.5033700000000 1.0
C      1  0.4854570000000  0.5704750000000  0.5032640000000 1.0
C      1  0.5708650000000  0.5138450000000  0.5029670000000 1.0
C      1  0.5134300000000  0.5709530000000  0.5003960000000 1.0
C      1  0.4287940000000  0.5136850000000  0.5002500000000 1.0
C      1  0.4851240000000  0.4289780000000  0.4996110000000 1.0
C      1  0.5706890000000  0.4855340000000  0.4998830000000 1.0
C      1  0.5429660000000  0.4762630000000  0.5557520000000 1.0
C      1  0.4765730000000  0.4569230000000  0.5551530000000 1.0
C      1  0.4575440000000  0.5235930000000  0.5552960000000 1.0
C      1  0.5231920000000  0.5425510000000  0.5554180000000 1.0
C      1  0.5425680000000  0.5235150000000  0.4472860000000 1.0
C      1  0.4765100000000  0.5424160000000  0.4476740000000 1.0
C      1  0.4568980000000  0.4764920000000  0.4478130000000 1.0
C      1  0.5228970000000  0.4570480000000  0.4482760000000 1.0
C      1  0.4777440000000  0.5140310000000  0.4563910000000 1.0
C      1  0.5143340000000  0.5224990000000  0.4544940000000 1.0
C      1  0.5216170000000  0.4851890000000  0.4556240000000 1.0
C      1  0.4849340000000  0.4772120000000  0.4541110000000 1.0
C      1  0.4772520000000  0.4850790000000  0.5488200000000 1.0
C      1  0.5140920000000  0.4771180000000  0.5473110000000 1.0
C      1  0.5233780000000  0.5138240000000  0.5484800000000 1.0
C      1  0.4846260000000  0.5219740000000  0.5468160000000 1.0
C      1  0.4913270000000  0.4771160000000  0.5174480000000 1.0
C      1  0.4761310000000  0.5075660000000  0.5174650000000 1.0
C      1  0.5088570000000  0.5229400000000  0.5176030000000 1.0
C      1  0.5228340000000  0.4908470000000  0.5174660000000 1.0
C      1  0.4914200000000  0.5216970000000  0.4845620000000 1.0
C      1  0.4787730000000  0.4901220000000  0.4846900000000 1.0
C      1  0.5082370000000  0.4795330000000  0.4841180000000 1.0
C      1  0.5240050000000  0.5086480000000  0.4854260000000 1.0
C      1  0.4531960000000  0.4693080000000  0.5428080000000 1.0
C      1  0.4694090000000  0.5473220000000  0.5433540000000 1.0
C      1  0.5467160000000  0.5323190000000  0.5432840000000 1.0
C      1  0.5316210000000  0.4534380000000  0.5436120000000 1.0
C      1  0.4531660000000  0.5317800000000  0.4603610000000 1.0
C      1  0.4678500000000  0.4527790000000  0.4597320000000 1.0
C      1  0.5467700000000  0.4681990000000  0.4599580000000 1.0
C      1  0.5311400000000  0.5460600000000  0.4599870000000 1.0
C      1  0.5048200000000  0.5455070000000  0.5344490000000 1.0
C      1  0.5460470000000  0.4924370000000  0.5325410000000 1.0
C      1  0.4924870000000  0.4532570000000  0.5325790000000 1.0
C      1  0.4526810000000  0.5056190000000  0.5343760000000 1.0
C      1  0.5074670000000  0.4532500000000  0.4714440000000 1.0
C      1  0.5461140000000  0.5054140000000  0.4680570000000 1.0
C      1  0.4928360000000  0.5456960000000  0.4704960000000 1.0
C      1  0.4543400000000  0.4920920000000  0.4709520000000 1.0
C      1  0.4625520000000  0.5675340000000  0.5225610000000 1.0
C      1  0.5673850000000  0.5365250000000  0.5235460000000 1.0
C      1  0.5359920000000  0.4334360000000  0.5231130000000 1.0
C      1  0.4319090000000  0.4629020000000  0.5227670000000 1.0
C      1  0.4630010000000  0.4325870000000  0.4795240000000 1.0
C      1  0.5675790000000  0.4629360000000  0.4800970000000 1.0
C      1  0.5366140000000  0.5671830000000  0.4795100000000 1.0
C      1  0.4327470000000  0.5364530000000  0.4801290000000 1.0
C      1  0.4510440000000  0.5490760000000  0.5016720000000 1.0
C      1  0.5490850000000  0.4514710000000  0.5011950000000 1.0
C      1  0.5486710000000  0.5478100000000  0.5016390000000 1.0
C      1  0.4508550000000  0.4513240000000  0.5015460000000 1.0
C      1  0.5004570000000  0.4996010000000  0.5623600000000 1.0
C      1  0.4994390000000  0.4996360000000  0.4405110000000 1.0
END
