TITL C-2441164-471-389 0.0589756620583426 125000 -17574.099645693 0 0 126 (C1) n - 1
REM
REM in /home/bkarasulu/work/CARBON/AIRSS/Generating-Clusters/ReaxFF-fromJPCA2015/Units_Real/with-SteepDescent/Higher-Symm
REM
REM
REM
REM
REM
REM ./C.cell (1df0a924f5614ab8850e4351716899ee)
REM
REM compiler GCC version 9.2.1 20190827 (Red Hat 9.2.1-1)
REM options -cpp -mtune=generic -march=x86-64 -g -O0 -fpre-include=/usr/include/finclude/math-vector-fortran.h
REM seed 550945221 50616530 -551963586 1348994084 460020411 -387220033 1349110230 722975255 -606061977 17062274 -1324752338 -1513216508 -1531039897 -1737474268 -1131650361 -1783596130 -569110280 665165868 -914307661 2116002067 -1568872306 207641695 375994075 -202090299 -1322963604 2018514768 1326862237 458201190 -1732563702 -1534445047 -190259075 -1039888356 -563887325
REM
CELL 1.54180   50.00000   50.00000   50.00000   90.00000   90.00000   90.00000
LATT -1
SFAC C  
C      1  0.4261540000000  0.5157580000000  0.4635490000000 1.0
C      1  0.4604880000000  0.4232160000000  0.5212110000000 1.0
C      1  0.5200500000000  0.4616780000000  0.4244100000000 1.0
C      1  0.5785480000000  0.5240240000000  0.5345610000000 1.0
C      1  0.4239790000000  0.4798430000000  0.5401930000000 1.0
C      1  0.5732340000000  0.4856430000000  0.4649700000000 1.0
C      1  0.5377790000000  0.4260500000000  0.4853900000000 1.0
C      1  0.4609230000000  0.5770520000000  0.4858100000000 1.0
C      1  0.5361170000000  0.5762500000000  0.5136760000000 1.0
C      1  0.4849080000000  0.4642270000000  0.5747250000000 1.0
C      1  0.5070330000000  0.5406930000000  0.5774220000000 1.0
C      1  0.4848100000000  0.5364910000000  0.4285600000000 1.0
C      1  0.4263580000000  0.4867710000000  0.4651640000000 1.0
C      1  0.4605190000000  0.5769960000000  0.5145440000000 1.0
C      1  0.5152780000000  0.5358410000000  0.4248150000000 1.0
C      1  0.5789550000000  0.4767370000000  0.5333430000000 1.0
C      1  0.4204250000000  0.5078840000000  0.5434880000000 1.0
C      1  0.5725760000000  0.5151030000000  0.4651820000000 1.0
C      1  0.5367890000000  0.5742280000000  0.4851450000000 1.0
C      1  0.4583890000000  0.4227450000000  0.4925370000000 1.0
C      1  0.5352280000000  0.4247410000000  0.5141620000000 1.0
C      1  0.4783360000000  0.5389320000000  0.5753070000000 1.0
C      1  0.5148610000000  0.4618810000000  0.5714360000000 1.0
C      1  0.4918970000000  0.4597100000000  0.4228300000000 1.0
C      1  0.4347710000000  0.4366540000000  0.5267370000000 1.0
C      1  0.5285330000000  0.4357200000000  0.4343610000000 1.0
C      1  0.4342810000000  0.5264550000000  0.4374320000000 1.0
C      1  0.5632850000000  0.4366170000000  0.4757440000000 1.0
C      1  0.4367370000000  0.5652430000000  0.4748790000000 1.0
C      1  0.5618680000000  0.5676570000000  0.5238510000000 1.0
C      1  0.4766810000000  0.4378330000000  0.5648080000000 1.0
C      1  0.5214090000000  0.5628250000000  0.5620920000000 1.0
C      1  0.4767280000000  0.5647570000000  0.4368890000000 1.0
C      1  0.5653560000000  0.5239630000000  0.5610810000000 1.0
C      1  0.4374070000000  0.4745940000000  0.5655130000000 1.0
C      1  0.5636720000000  0.4771930000000  0.4382270000000 1.0
C      1  0.4355250000000  0.5649580000000  0.5229590000000 1.0
C      1  0.5233920000000  0.5614830000000  0.4362160000000 1.0
C      1  0.4345540000000  0.4781040000000  0.4384640000000 1.0
C      1  0.5628170000000  0.5639090000000  0.4755050000000 1.0
C      1  0.4378260000000  0.4398440000000  0.4781810000000 1.0
C      1  0.5613260000000  0.4332210000000  0.5235640000000 1.0
C      1  0.4727170000000  0.5654750000000  0.5634490000000 1.0
C      1  0.5229860000000  0.4342570000000  0.5624420000000 1.0
C      1  0.4789530000000  0.4380900000000  0.4363200000000 1.0
C      1  0.5675650000000  0.4748040000000  0.5619320000000 1.0
C      1  0.4345240000000  0.5221300000000  0.5654250000000 1.0
C      1  0.5620520000000  0.5232110000000  0.4388030000000 1.0
C      1  0.5482330000000  0.5698110000000  0.5707050000000 1.0
C      1  0.5695860000000  0.5509160000000  0.5701020000000 1.0
C      1  0.5676860000000  0.5717000000000  0.5514640000000 1.0
C      1  0.4497010000000  0.5715810000000  0.4286850000000 1.0
C      1  0.5544510000000  0.4290700000000  0.4285930000000 1.0
C      1  0.4495720000000  0.4290550000000  0.5722120000000 1.0
C      1  0.4283630000000  0.5528750000000  0.4309390000000 1.0
C      1  0.5727980000000  0.4503620000000  0.4305750000000 1.0
C      1  0.4299430000000  0.4488730000000  0.5729250000000 1.0
C      1  0.4299560000000  0.5725450000000  0.4488540000000 1.0
C      1  0.5713790000000  0.4295140000000  0.4494480000000 1.0
C      1  0.4283640000000  0.4303390000000  0.5535670000000 1.0
C      1  0.5503180000000  0.4285210000000  0.5705610000000 1.0
C      1  0.5722220000000  0.4473170000000  0.5697620000000 1.0
C      1  0.5691360000000  0.4277830000000  0.5502750000000 1.0
C      1  0.4519220000000  0.4327400000000  0.4308310000000 1.0
C      1  0.5505280000000  0.5700680000000  0.4293120000000 1.0
C      1  0.4461160000000  0.5713900000000  0.5695960000000 1.0
C      1  0.4314240000000  0.4508570000000  0.4314000000000 1.0
C      1  0.5706160000000  0.5498310000000  0.4305530000000 1.0
C      1  0.4276060000000  0.5501890000000  0.5697510000000 1.0
C      1  0.4323830000000  0.4309900000000  0.4509730000000 1.0
C      1  0.5698150000000  0.5706360000000  0.4489780000000 1.0
C      1  0.4280630000000  0.5699890000000  0.5495040000000 1.0
C      1  0.4922390000000  0.4235060000000  0.4584190000000 1.0
C      1  0.4544240000000  0.4914440000000  0.4222690000000 1.0
C      1  0.4276710000000  0.4657430000000  0.4868790000000 1.0
C      1  0.5141140000000  0.4239710000000  0.5362290000000 1.0
C      1  0.4831400000000  0.5759490000000  0.5382950000000 1.0
C      1  0.5141210000000  0.5729120000000  0.4624910000000 1.0
C      1  0.5415390000000  0.4800630000000  0.5740590000000 1.0
C      1  0.4608610000000  0.5142470000000  0.5742660000000 1.0
C      1  0.5359750000000  0.5146300000000  0.4265060000000 1.0
C      1  0.5750600000000  0.4566890000000  0.5124230000000 1.0
C      1  0.4239240000000  0.5417860000000  0.5093320000000 1.0
C      1  0.5742100000000  0.5386700000000  0.4843760000000 1.0
C      1  0.4852810000000  0.5759090000000  0.4622430000000 1.0
C      1  0.4578530000000  0.5185100000000  0.4231070000000 1.0
C      1  0.4258800000000  0.5389940000000  0.4815020000000 1.0
C      1  0.5119350000000  0.5755600000000  0.5377940000000 1.0
C      1  0.4852400000000  0.4255670000000  0.5392220000000 1.0
C      1  0.5206640000000  0.4243290000000  0.4605910000000 1.0
C      1  0.5430680000000  0.5080060000000  0.5742030000000 1.0
C      1  0.4635240000000  0.4849440000000  0.5742950000000 1.0
C      1  0.5380480000000  0.4851770000000  0.4259790000000 1.0
C      1  0.5753780000000  0.5440710000000  0.5129240000000 1.0
C      1  0.4256740000000  0.4622630000000  0.5162930000000 1.0
C      1  0.5746200000000  0.4621850000000  0.4838740000000 1.0
C      1  0.4895110000000  0.5230950000000  0.4566700000000 1.0
C      1  0.4660430000000  0.4805720000000  0.5263760000000 1.0
C      1  0.5160840000000  0.4660290000000  0.4842930000000 1.0
C      1  0.5125560000000  0.5252700000000  0.5312490000000 1.0
C      1  0.4891190000000  0.4885470000000  0.5404100000000 1.0
C      1  0.5138740000000  0.4876450000000  0.4632800000000 1.0
C      1  0.5385920000000  0.4833640000000  0.4960170000000 1.0
C      1  0.4650070000000  0.5086920000000  0.4891710000000 1.0
C      1  0.5375820000000  0.5119660000000  0.5253950000000 1.0
C      1  0.4797270000000  0.4605310000000  0.5102860000000 1.0
C      1  0.5134630000000  0.5405630000000  0.5070990000000 1.0
C      1  0.4762060000000  0.5322280000000  0.4809710000000 1.0
C      1  0.4860740000000  0.4933020000000  0.4519420000000 1.0
C      1  0.4584210000000  0.5071890000000  0.5160470000000 1.0
C      1  0.5277910000000  0.5310700000000  0.4842470000000 1.0
C      1  0.5141870000000  0.4721030000000  0.5375670000000 1.0
C      1  0.4858390000000  0.5153490000000  0.5352910000000 1.0
C      1  0.5158250000000  0.5158160000000  0.4643430000000 1.0
C      1  0.5443910000000  0.5123280000000  0.4975400000000 1.0
C      1  0.4686830000000  0.4862390000000  0.4731940000000 1.0
C      1  0.5382720000000  0.4839870000000  0.5254270000000 1.0
C      1  0.4882030000000  0.5500990000000  0.5004550000000 1.0
C      1  0.5071640000000  0.4579230000000  0.5136510000000 1.0
C      1  0.4824220000000  0.4635960000000  0.4822710000000 1.0
C      1  0.5844430000000  0.5006140000000  0.5164170000000 1.0
C      1  0.4986200000000  0.5773810000000  0.5001670000000 1.0
C      1  0.5122580000000  0.5114140000000  0.5767880000000 1.0
C      1  0.4300370000000  0.5155330000000  0.5180300000000 1.0
C      1  0.4881690000000  0.4199640000000  0.4884430000000 1.0
C      1  0.4804050000000  0.4850010000000  0.4238580000000 1.0
END
