TITL C-2441166-8118-676 0.0551484402001917 125000 -9790.13897410564 0 0 78 (C1) n - 1
REM
REM in /home/bkarasulu/work/CARBON/AIRSS/Generating-Clusters/ReaxFF-fromJPCA2015/Units_Real/with-SteepDescent/Higher-Symm
REM
REM
REM
REM
REM
REM ./C.cell (1df0a924f5614ab8850e4351716899ee)
REM
REM compiler GCC version 9.2.1 20190827 (Red Hat 9.2.1-1)
REM options -cpp -mtune=generic -march=x86-64 -g -O0 -fpre-include=/usr/include/finclude/math-vector-fortran.h
REM seed 879067310 -1571562946 -1167804877 1872268388 215387196 -509481589 749466615 -20315913 1290610944 -1394510443 -258775448 2032377316 -533942381 1826966465 1738945548 -1288762963 -1518085897 887051314 -840257489 -908971760 738125666 235923497 -1988130254 -941522121 930635937 -1962640113 -1176310650 1245757757 215415654 635540771 -296927772 -162906971 -299154321
REM
CELL 1.54180   50.00000   50.00000   50.00000   90.00000   90.00000   90.00000
LATT -1
SFAC C  
C      1  0.5331100000000  0.5335840000000  0.4876240000000 1.0
C      1  0.4669350000000  0.4659020000000  0.4870480000000 1.0
C      1  0.4650350000000  0.5072690000000  0.5042550000000 1.0
C      1  0.5348010000000  0.4938200000000  0.5045630000000 1.0
C      1  0.4810590000000  0.5163760000000  0.4288920000000 1.0
C      1  0.5197560000000  0.4844380000000  0.4280530000000 1.0
C      1  0.5581960000000  0.5613640000000  0.5028910000000 1.0
C      1  0.4413920000000  0.4375460000000  0.5028240000000 1.0
C      1  0.5230310000000  0.4883110000000  0.4571580000000 1.0
C      1  0.4764970000000  0.5122670000000  0.4582610000000 1.0
C      1  0.4197320000000  0.4980070000000  0.5014400000000 1.0
C      1  0.5805940000000  0.5019370000000  0.4998970000000 1.0
C      1  0.4943030000000  0.5339460000000  0.5207710000000 1.0
C      1  0.5057460000000  0.4674930000000  0.5201740000000 1.0
C      1  0.4935550000000  0.4712380000000  0.4275500000000 1.0
C      1  0.5074250000000  0.5290310000000  0.4275090000000 1.0
C      1  0.5491560000000  0.4564140000000  0.4637050000000 1.0
C      1  0.4501550000000  0.5427210000000  0.4605970000000 1.0
C      1  0.4395410000000  0.5424770000000  0.5177340000000 1.0
C      1  0.5606160000000  0.4562320000000  0.5154380000000 1.0
C      1  0.5765340000000  0.5217740000000  0.4797550000000 1.0
C      1  0.4231150000000  0.4763500000000  0.4837640000000 1.0
C      1  0.5191640000000  0.5112980000000  0.4892860000000 1.0
C      1  0.4837190000000  0.4873480000000  0.4933250000000 1.0
C      1  0.5519520000000  0.4863160000000  0.4603830000000 1.0
C      1  0.4472130000000  0.5128920000000  0.4610670000000 1.0
C      1  0.4860940000000  0.4992470000000  0.5412510000000 1.0
C      1  0.5144560000000  0.5011860000000  0.5415280000000 1.0
C      1  0.5255060000000  0.5308930000000  0.5487720000000 1.0
C      1  0.4744320000000  0.4699480000000  0.5477060000000 1.0
C      1  0.4884610000000  0.4473200000000  0.5612780000000 1.0
C      1  0.5116120000000  0.5531200000000  0.5626180000000 1.0
C      1  0.5302200000000  0.4641740000000  0.5044450000000 1.0
C      1  0.4696610000000  0.5371170000000  0.5046110000000 1.0
C      1  0.4363000000000  0.4591180000000  0.5205220000000 1.0
C      1  0.5627760000000  0.5400280000000  0.5214470000000 1.0
C      1  0.4665110000000  0.5396310000000  0.5579030000000 1.0
C      1  0.5342570000000  0.4599270000000  0.5569100000000 1.0
C      1  0.5112990000000  0.4481440000000  0.5412090000000 1.0
C      1  0.4882140000000  0.5522920000000  0.5428250000000 1.0
C      1  0.5521820000000  0.5131180000000  0.4470060000000 1.0
C      1  0.4486050000000  0.4870070000000  0.4459190000000 1.0
C      1  0.5680970000000  0.5490250000000  0.4773170000000 1.0
C      1  0.4317520000000  0.4502360000000  0.4766920000000 1.0
C      1  0.4541920000000  0.5008110000000  0.5742640000000 1.0
C      1  0.5456230000000  0.4993810000000  0.5734080000000 1.0
C      1  0.4446250000000  0.4627700000000  0.5475740000000 1.0
C      1  0.5547640000000  0.5380500000000  0.5489080000000 1.0
C      1  0.5454320000000  0.5389630000000  0.4611610000000 1.0
C      1  0.4540770000000  0.4616840000000  0.4609170000000 1.0
C      1  0.4943170000000  0.4239970000000  0.4947660000000 1.0
C      1  0.5056570000000  0.5789030000000  0.4936370000000 1.0
C      1  0.4701580000000  0.4890890000000  0.4263960000000 1.0
C      1  0.5308970000000  0.5113930000000  0.4260530000000 1.0
C      1  0.5304580000000  0.5735200000000  0.5063900000000 1.0
C      1  0.4680930000000  0.4251310000000  0.5066170000000 1.0
C      1  0.5224850000000  0.4421230000000  0.4599910000000 1.0
C      1  0.4763690000000  0.5575720000000  0.4611750000000 1.0
C      1  0.4780050000000  0.5132350000000  0.5661470000000 1.0
C      1  0.5220110000000  0.4867660000000  0.5662480000000 1.0
C      1  0.5686400000000  0.4516770000000  0.4852220000000 1.0
C      1  0.4295090000000  0.5455590000000  0.4794190000000 1.0
C      1  0.4381170000000  0.4911210000000  0.5533030000000 1.0
C      1  0.5621560000000  0.5099210000000  0.5531350000000 1.0
C      1  0.4429900000000  0.4954120000000  0.5206920000000 1.0
C      1  0.5576820000000  0.5074260000000  0.5198620000000 1.0
C      1  0.4192640000000  0.5283140000000  0.4991370000000 1.0
C      1  0.5820150000000  0.4725520000000  0.4991840000000 1.0
C      1  0.5188550000000  0.4368850000000  0.4876510000000 1.0
C      1  0.4821250000000  0.5645430000000  0.4881370000000 1.0
C      1  0.4972310000000  0.4555840000000  0.4520280000000 1.0
C      1  0.5015970000000  0.5444310000000  0.4522670000000 1.0
C      1  0.5015130000000  0.4776090000000  0.4711270000000 1.0
C      1  0.4981910000000  0.5224500000000  0.4720850000000 1.0
C      1  0.5200090000000  0.5455980000000  0.5093790000000 1.0
C      1  0.4809510000000  0.4498310000000  0.5062500000000 1.0
C      1  0.4379670000000  0.5425390000000  0.5469000000000 1.0
C      1  0.5612560000000  0.4572750000000  0.5466460000000 1.0
END
