TITL C-2441159-1093-1442 0.137138478793563 125000 -24526.0803814511 0 0 190 (C1) n - 1
REM
REM in /home/bkarasulu/work/CARBON/AIRSS/Generating-Clusters/ReaxFF-fromJPCA2015/Units_Real/with-SteepDescent/Higher-Symm
REM
REM
REM
REM
REM
REM ./C.cell (1df0a924f5614ab8850e4351716899ee)
REM
REM compiler GCC version 9.2.1 20190827 (Red Hat 9.2.1-1)
REM options -cpp -mtune=generic -march=x86-64 -g -O0 -fpre-include=/usr/include/finclude/math-vector-fortran.h
REM seed -706743997 1650938198 -2068280798 -1528130184 1937366977 -214175787 421266289 1396653109 150517934 -435347184 40715457 -720389946 -1275903921 2052038242 727380500 1530136363 1534761098 -853498517 109010068 1658464136 2064010259 -1974553127 1509454353 1278378121 1544085352 556978540 -1674427699 -1460936468 -1200823559 826679258 -1684299315 -384704899 367148597
REM
CELL 1.54180   50.00000   50.00000   50.00000   90.00000   90.00000   90.00000
LATT -1
SFAC C  
C      1  0.4997810000000  0.5551550000000  0.5179680000000 1.0
C      1  0.4834630000000  0.5579950000000  0.4946590000000 1.0
C      1  0.5125170000000  0.5617060000000  0.4926220000000 1.0
C      1  0.4911500000000  0.4454690000000  0.5211280000000 1.0
C      1  0.5088000000000  0.4394920000000  0.4810590000000 1.0
C      1  0.4826750000000  0.4387890000000  0.4943880000000 1.0
C      1  0.4962680000000  0.4879050000000  0.5840920000000 1.0
C      1  0.4322090000000  0.4901160000000  0.4432210000000 1.0
C      1  0.5709460000000  0.4844840000000  0.4672510000000 1.0
C      1  0.5104670000000  0.5133500000000  0.5894930000000 1.0
C      1  0.5686170000000  0.5094740000000  0.4498790000000 1.0
C      1  0.4281340000000  0.5144460000000  0.4598090000000 1.0
C      1  0.4137210000000  0.5242820000000  0.4353480000000 1.0
C      1  0.5966570000000  0.5195890000000  0.4501710000000 1.0
C      1  0.4906700000000  0.5232160000000  0.6098160000000 1.0
C      1  0.5927960000000  0.4708660000000  0.4454160000000 1.0
C      1  0.4057640000000  0.4756300000000  0.4526780000000 1.0
C      1  0.5059980000000  0.4738890000000  0.6088470000000 1.0
C      1  0.4778360000000  0.6087620000000  0.4997420000000 1.0
C      1  0.5041730000000  0.6056770000000  0.4856700000000 1.0
C      1  0.5160350000000  0.6017560000000  0.5139830000000 1.0
C      1  0.5082440000000  0.3928740000000  0.5045550000000 1.0
C      1  0.4960590000000  0.3954700000000  0.4777960000000 1.0
C      1  0.4846380000000  0.3928530000000  0.5220790000000 1.0
C      1  0.5777040000000  0.5477480000000  0.5689410000000 1.0
C      1  0.4015760000000  0.5351790000000  0.5361470000000 1.0
C      1  0.5206850000000  0.5348390000000  0.3948890000000 1.0
C      1  0.4168320000000  0.4621470000000  0.5674150000000 1.0
C      1  0.5997470000000  0.4660210000000  0.5379400000000 1.0
C      1  0.4850500000000  0.4673090000000  0.3954950000000 1.0
C      1  0.4454270000000  0.4773570000000  0.4811640000000 1.0
C      1  0.5430460000000  0.4774260000000  0.4650480000000 1.0
C      1  0.5071430000000  0.4844150000000  0.5588540000000 1.0
C      1  0.5551940000000  0.5243310000000  0.4890890000000 1.0
C      1  0.4558700000000  0.5202310000000  0.4683660000000 1.0
C      1  0.4922000000000  0.5223560000000  0.5622290000000 1.0
C      1  0.4960580000000  0.5602830000000  0.5795880000000 1.0
C      1  0.4250260000000  0.5647230000000  0.4507960000000 1.0
C      1  0.5744580000000  0.5611650000000  0.4628200000000 1.0
C      1  0.5038980000000  0.4381610000000  0.5794290000000 1.0
C      1  0.5668540000000  0.4401580000000  0.4528720000000 1.0
C      1  0.4287140000000  0.4376810000000  0.4657470000000 1.0
C      1  0.5098060000000  0.4663610000000  0.5235260000000 1.0
C      1  0.4721100000000  0.4636140000000  0.4824490000000 1.0
C      1  0.5237830000000  0.4646870000000  0.4819030000000 1.0
C      1  0.4940380000000  0.5275610000000  0.5304390000000 1.0
C      1  0.5294410000000  0.5380050000000  0.4843990000000 1.0
C      1  0.4783470000000  0.5347880000000  0.4789090000000 1.0
C      1  0.5156300000000  0.4080660000000  0.5475370000000 1.0
C      1  0.4505830000000  0.4074750000000  0.4910710000000 1.0
C      1  0.5343700000000  0.4096940000000  0.4592610000000 1.0
C      1  0.4834860000000  0.5933930000000  0.5459640000000 1.0
C      1  0.5509140000000  0.5947160000000  0.4881450000000 1.0
C      1  0.4657660000000  0.5904310000000  0.4623400000000 1.0
C      1  0.4541570000000  0.4902220000000  0.5702330000000 1.0
C      1  0.4610430000000  0.4851080000000  0.4354900000000 1.0
C      1  0.5727250000000  0.4853060000000  0.5012780000000 1.0
C      1  0.5477790000000  0.5090070000000  0.5730470000000 1.0
C      1  0.5357970000000  0.5160570000000  0.4379020000000 1.0
C      1  0.4249090000000  0.5151660000000  0.5044850000000 1.0
C      1  0.4760760000000  0.5017860000000  0.4554710000000 1.0
C      1  0.5500420000000  0.5032320000000  0.5074450000000 1.0
C      1  0.4668890000000  0.5118970000000  0.5553230000000 1.0
C      1  0.5237990000000  0.4962870000000  0.4548890000000 1.0
C      1  0.4499690000000  0.4968750000000  0.5038250000000 1.0
C      1  0.5329840000000  0.4964320000000  0.5492230000000 1.0
C      1  0.5594610000000  0.4772520000000  0.4123980000000 1.0
C      1  0.5452660000000  0.4678250000000  0.5947620000000 1.0
C      1  0.3995200000000  0.4717080000000  0.4942560000000 1.0
C      1  0.4475310000000  0.5322780000000  0.4134360000000 1.0
C      1  0.4530410000000  0.5293100000000  0.5920510000000 1.0
C      1  0.5881810000000  0.5273460000000  0.4911090000000 1.0
C      1  0.4807470000000  0.5039240000000  0.5155930000000 1.0
C      1  0.5057520000000  0.5228790000000  0.4779800000000 1.0
C      1  0.5215220000000  0.5190780000000  0.5322480000000 1.0
C      1  0.5236700000000  0.4829590000000  0.5048310000000 1.0
C      1  0.4899220000000  0.4835230000000  0.4749460000000 1.0
C      1  0.4894000000000  0.4819230000000  0.5360630000000 1.0
C      1  0.4783350000000  0.5460900000000  0.5974240000000 1.0
C      1  0.4252820000000  0.5486000000000  0.4261360000000 1.0
C      1  0.5959120000000  0.5437250000000  0.4671510000000 1.0
C      1  0.5206970000000  0.4501510000000  0.5996260000000 1.0
C      1  0.5749040000000  0.4563510000000  0.4283520000000 1.0
C      1  0.4040390000000  0.4524980000000  0.4698750000000 1.0
C      1  0.4257710000000  0.4936710000000  0.5665810000000 1.0
C      1  0.4741280000000  0.4937090000000  0.4048660000000 1.0
C      1  0.5958580000000  0.4934230000000  0.5263860000000 1.0
C      1  0.5730980000000  0.4958710000000  0.5733530000000 1.0
C      1  0.5269090000000  0.5076260000000  0.4080340000000 1.0
C      1  0.4075010000000  0.5046830000000  0.5271850000000 1.0
C      1  0.4552170000000  0.5569690000000  0.5547690000000 1.0
C      1  0.4724060000000  0.5458040000000  0.4336260000000 1.0
C      1  0.5699360000000  0.5583930000000  0.5118980000000 1.0
C      1  0.5415190000000  0.4462090000000  0.5534020000000 1.0
C      1  0.5226800000000  0.4499320000000  0.4363560000000 1.0
C      1  0.4315070000000  0.4486700000000  0.5113540000000 1.0
C      1  0.4032120000000  0.4557100000000  0.5426650000000 1.0
C      1  0.5123340000000  0.4581990000000  0.3966880000000 1.0
C      1  0.5814420000000  0.4540170000000  0.5567580000000 1.0
C      1  0.5825710000000  0.5313360000000  0.5414720000000 1.0
C      1  0.4924910000000  0.5429010000000  0.3964400000000 1.0
C      1  0.4156170000000  0.5454000000000  0.5592730000000 1.0
C      1  0.4768060000000  0.4414200000000  0.5691060000000 1.0
C      1  0.4455490000000  0.4437570000000  0.4432030000000 1.0
C      1  0.5760350000000  0.4429820000000  0.4794860000000 1.0
C      1  0.5211650000000  0.5512000000000  0.5676700000000 1.0
C      1  0.5546030000000  0.5565210000000  0.4443170000000 1.0
C      1  0.4336900000000  0.5557200000000  0.4767470000000 1.0
C      1  0.5095030000000  0.6036900000000  0.5428440000000 1.0
C      1  0.4531540000000  0.6059520000000  0.4837280000000 1.0
C      1  0.5314040000000  0.6053700000000  0.4688870000000 1.0
C      1  0.4884730000000  0.3998190000000  0.5494880000000 1.0
C      1  0.5447410000000  0.4010030000000  0.4845820000000 1.0
C      1  0.4676830000000  0.3960270000000  0.4695850000000 1.0
C      1  0.4382270000000  0.4503890000000  0.4152110000000 1.0
C      1  0.6021830000000  0.4500660000000  0.4884860000000 1.0
C      1  0.4563930000000  0.4498890000000  0.5895800000000 1.0
C      1  0.5584010000000  0.5556030000000  0.4147110000000 1.0
C      1  0.4068410000000  0.5554720000000  0.4869630000000 1.0
C      1  0.5419340000000  0.5589150000000  0.5859660000000 1.0
C      1  0.5311340000000  0.5446000000000  0.5398370000000 1.0
C      1  0.4386130000000  0.5392470000000  0.5145120000000 1.0
C      1  0.5276620000000  0.5443960000000  0.4410340000000 1.0
C      1  0.4714990000000  0.4579340000000  0.5389770000000 1.0
C      1  0.5657900000000  0.4577130000000  0.5098330000000 1.0
C      1  0.4712610000000  0.4575440000000  0.4398420000000 1.0
C      1  0.4004910000000  0.4939380000000  0.4744830000000 1.0
C      1  0.5717510000000  0.5046290000000  0.4194890000000 1.0
C      1  0.5297470000000  0.4900150000000  0.6055000000000 1.0
C      1  0.6093120000000  0.5049760000000  0.4728620000000 1.0
C      1  0.4252190000000  0.5042400000000  0.4165310000000 1.0
C      1  0.4669260000000  0.5053280000000  0.6051440000000 1.0
C      1  0.5650600000000  0.4322190000000  0.5486750000000 1.0
C      1  0.4213900000000  0.4335180000000  0.5332980000000 1.0
C      1  0.5110140000000  0.4344390000000  0.4148780000000 1.0
C      1  0.4301930000000  0.5703920000000  0.5509480000000 1.0
C      1  0.5824540000000  0.5783400000000  0.5277570000000 1.0
C      1  0.4882300000000  0.5642440000000  0.4168350000000 1.0
C      1  0.4702920000000  0.5233390000000  0.3974410000000 1.0
C      1  0.6000330000000  0.5221800000000  0.5171590000000 1.0
C      1  0.4294520000000  0.5258530000000  0.5763360000000 1.0
C      1  0.5342020000000  0.4780170000000  0.4001980000000 1.0
C      1  0.3956610000000  0.4753050000000  0.5223670000000 1.0
C      1  0.5703310000000  0.4682800000000  0.5793760000000 1.0
C      1  0.3963460000000  0.5270800000000  0.4870020000000 1.0
C      1  0.5620940000000  0.5282520000000  0.4071310000000 1.0
C      1  0.5566900000000  0.5340380000000  0.5831400000000 1.0
C      1  0.6135350000000  0.4777270000000  0.4809110000000 1.0
C      1  0.4270680000000  0.4753040000000  0.4067380000000 1.0
C      1  0.4578310000000  0.4786320000000  0.5958970000000 1.0
C      1  0.5330500000000  0.5951080000000  0.5549210000000 1.0
C      1  0.4334600000000  0.5962360000000  0.5020170000000 1.0
C      1  0.5266130000000  0.5956680000000  0.4433980000000 1.0
C      1  0.4661110000000  0.4155850000000  0.5601500000000 1.0
C      1  0.5642820000000  0.4052690000000  0.5018100000000 1.0
C      1  0.4752750000000  0.4063040000000  0.4439300000000 1.0
C      1  0.4380970000000  0.5879240000000  0.5273170000000 1.0
C      1  0.5037410000000  0.5832350000000  0.4358460000000 1.0
C      1  0.5601380000000  0.5919660000000  0.5471000000000 1.0
C      1  0.5581370000000  0.4124840000000  0.5271320000000 1.0
C      1  0.4860870000000  0.4194510000000  0.4210420000000 1.0
C      1  0.4439880000000  0.4152070000000  0.5413240000000 1.0
C      1  0.5289480000000  0.4052810000000  0.5222900000000 1.0
C      1  0.4577340000000  0.4027900000000  0.5181010000000 1.0
C      1  0.5090900000000  0.4169120000000  0.4653600000000 1.0
C      1  0.4681080000000  0.5954640000000  0.5231620000000 1.0
C      1  0.5419690000000  0.5956660000000  0.5152660000000 1.0
C      1  0.4939160000000  0.5848700000000  0.4644980000000 1.0
C      1  0.4433670000000  0.4344950000000  0.4896750000000 1.0
C      1  0.5418870000000  0.4338360000000  0.4494910000000 1.0
C      1  0.5197050000000  0.4316760000000  0.5590430000000 1.0
C      1  0.5638470000000  0.5698410000000  0.4856410000000 1.0
C      1  0.4538960000000  0.5660500000000  0.4550410000000 1.0
C      1  0.4792520000000  0.5714000000000  0.5603060000000 1.0
C      1  0.5936640000000  0.4478600000000  0.5167560000000 1.0
C      1  0.4362650000000  0.4419630000000  0.5711640000000 1.0
C      1  0.4713980000000  0.4460080000000  0.4111540000000 1.0
C      1  0.4121390000000  0.5529900000000  0.5164570000000 1.0
C      1  0.5633270000000  0.5726210000000  0.5710620000000 1.0
C      1  0.5281650000000  0.5561650000000  0.4129350000000 1.0
C      1  0.5491490000000  0.4681560000000  0.5375520000000 1.0
C      1  0.4436350000000  0.4722180000000  0.5260850000000 1.0
C      1  0.5086940000000  0.4755370000000  0.4396370000000 1.0
C      1  0.4539320000000  0.5333330000000  0.5386120000000 1.0
C      1  0.5571380000000  0.5371300000000  0.5280610000000 1.0
C      1  0.4916140000000  0.5241070000000  0.4395330000000 1.0
C      1  0.5864000000000  0.5050490000000  0.5509480000000 1.0
C      1  0.4275830000000  0.4921310000000  0.5399340000000 1.0
C      1  0.4996550000000  0.5006520000000  0.4226520000000 1.0
C      1  0.5005180000000  0.4999480000000  0.4941810000000 1.0
END
