TITL C-2441157-2117-1219 -0.00111769468730554 125000 -6695.1189310029 0 0 46 (C1) n - 1
REM
REM in /home/bkarasulu/work/CARBON/AIRSS/Generating-Clusters/ReaxFF-fromJPCA2015/Units_Real/with-SteepDescent/Higher-Symm
REM
REM
REM
REM
REM
REM ./C.cell (1df0a924f5614ab8850e4351716899ee)
REM
REM compiler GCC version 9.2.1 20190827 (Red Hat 9.2.1-1)
REM options -cpp -mtune=generic -march=x86-64 -g -O0 -fpre-include=/usr/include/finclude/math-vector-fortran.h
REM seed 1729438012 1502414014 1710226085 -1730499310 -2081938550 -1187554156 615850941 168496716 -809846785 1887630454 298371662 -263525515 -2014875424 -1451726569 -862353668 -1254495376 -1329313650 -1086114864 -2021265401 -815801837 66819735 -2109194320 -838198620 -1131114521 -229308705 581324455 569148961 1429561310 592261178 1059025679 -1832593473 -1424989333 1597460827
REM
CELL 1.54180   50.00000   50.00000   50.00000   90.00000   90.00000   90.00000
LATT -1
SFAC C  
C      1  0.4686230000000  0.4548370000000  0.5331680000000 1.0
C      1  0.4586150000000  0.4553240000000  0.4773260000000 1.0
C      1  0.5090900000000  0.4556620000000  0.4523830000000 1.0
C      1  0.5468290000000  0.4542350000000  0.4938160000000 1.0
C      1  0.5236050000000  0.4567660000000  0.5420600000000 1.0
C      1  0.5153260000000  0.4762650000000  0.4324230000000 1.0
C      1  0.5701000000000  0.4716680000000  0.4906260000000 1.0
C      1  0.5309740000000  0.4795700000000  0.5589590000000 1.0
C      1  0.4509700000000  0.4746490000000  0.5456310000000 1.0
C      1  0.4416450000000  0.4761040000000  0.4653840000000 1.0
C      1  0.4421280000000  0.5001520000000  0.5327900000000 1.0
C      1  0.4515780000000  0.5017820000000  0.4539800000000 1.0
C      1  0.5304000000000  0.5011500000000  0.4376420000000 1.0
C      1  0.5728250000000  0.4975420000000  0.5042900000000 1.0
C      1  0.5159800000000  0.5051160000000  0.5622820000000 1.0
C      1  0.4821680000000  0.4635170000000  0.4618440000000 1.0
C      1  0.5294100000000  0.4629820000000  0.4718520000000 1.0
C      1  0.5347050000000  0.4640020000000  0.5172150000000 1.0
C      1  0.4952280000000  0.4643100000000  0.5416520000000 1.0
C      1  0.4603270000000  0.4622760000000  0.5059180000000 1.0
C      1  0.5428140000000  0.5334890000000  0.5060000000000 1.0
C      1  0.5059110000000  0.5465780000000  0.5398400000000 1.0
C      1  0.4660020000000  0.5442550000000  0.5301880000000 1.0
C      1  0.4761490000000  0.5480070000000  0.4850350000000 1.0
C      1  0.5142640000000  0.5462590000000  0.4677780000000 1.0
C      1  0.5207830000000  0.5506690000000  0.5164940000000 1.0
C      1  0.4816410000000  0.5435940000000  0.5541160000000 1.0
C      1  0.4546750000000  0.5396590000000  0.5052160000000 1.0
C      1  0.4861190000000  0.5376150000000  0.4593700000000 1.0
C      1  0.5383280000000  0.5316600000000  0.4767580000000 1.0
C      1  0.5697210000000  0.4965230000000  0.4749680000000 1.0
C      1  0.5423370000000  0.5048540000000  0.5483880000000 1.0
C      1  0.4617100000000  0.5005980000000  0.5553370000000 1.0
C      1  0.4359050000000  0.5019700000000  0.4790330000000 1.0
C      1  0.5014750000000  0.5022500000000  0.4314370000000 1.0
C      1  0.4961920000000  0.4881960000000  0.5242100000000 1.0
C      1  0.4759880000000  0.4873350000000  0.5034530000000 1.0
C      1  0.4889630000000  0.4874950000000  0.4776660000000 1.0
C      1  0.5173310000000  0.4876240000000  0.4820860000000 1.0
C      1  0.5214790000000  0.4872540000000  0.5104180000000 1.0
C      1  0.4876680000000  0.5139590000000  0.5599530000000 1.0
C      1  0.4413830000000  0.5125900000000  0.5060090000000 1.0
C      1  0.4777430000000  0.5132610000000  0.4457330000000 1.0
C      1  0.5480910000000  0.5102110000000  0.4599800000000 1.0
C      1  0.5549410000000  0.5130280000000  0.5223130000000 1.0
C      1  0.5031930000000  0.5572220000000  0.4922730000000 1.0
END
