TITL C-2441155-8282-166 0.000904667400749444 125000 -13428.6794836125 0 0 90 (C1) n - 1
REM
REM in /home/bkarasulu/work/CARBON/AIRSS/Generating-Clusters/ReaxFF-fromJPCA2015/Units_Real/with-SteepDescent/Higher-Symm
REM
REM
REM
REM
REM
REM ./C.cell (1df0a924f5614ab8850e4351716899ee)
REM
REM compiler GCC version 9.2.1 20190827 (Red Hat 9.2.1-1)
REM options -cpp -mtune=generic -march=x86-64 -g -O0 -fpre-include=/usr/include/finclude/math-vector-fortran.h
REM seed -1908598270 -1733751892 -28507344 471340141 920550895 -1278194127 1611868436 -237894615 -284260534 -1211425010 -44066089 -1755908152 -1135028954 -547114276 1235771118 -1666617793 348391074 -6833456 780083597 -918236379 -2108706258 -998888058 1767648594 -2033297775 -9144619 -1649311249 1613208714 480004575 1616737863 -1298994695 964219993 -2004767345 651082275
REM
CELL 1.54180   50.00000   50.00000   50.00000   90.00000   90.00000   90.00000
LATT -1
SFAC C  
C      1  0.5161620000000  0.5746190000000  0.5177010000000 1.0
C      1  0.5231010000000  0.4241520000000  0.4944210000000 1.0
C      1  0.5031850000000  0.5766330000000  0.4792360000000 1.0
C      1  0.4828610000000  0.4236390000000  0.4868870000000 1.0
C      1  0.4798870000000  0.5781270000000  0.4987090000000 1.0
C      1  0.4893110000000  0.4213740000000  0.5161280000000 1.0
C      1  0.4228470000000  0.5021810000000  0.4647150000000 1.0
C      1  0.4332310000000  0.4987670000000  0.5486280000000 1.0
C      1  0.5079560000000  0.5007940000000  0.5815410000000 1.0
C      1  0.5755870000000  0.4984290000000  0.5332740000000 1.0
C      1  0.5677290000000  0.5012330000000  0.4522870000000 1.0
C      1  0.4921950000000  0.4974850000000  0.4178380000000 1.0
C      1  0.4627980000000  0.5263080000000  0.5789690000000 1.0
C      1  0.5497970000000  0.4741350000000  0.5706350000000 1.0
C      1  0.5881120000000  0.5263050000000  0.4928190000000 1.0
C      1  0.5372940000000  0.4752020000000  0.4213220000000 1.0
C      1  0.4514380000000  0.5255050000000  0.4302540000000 1.0
C      1  0.4158560000000  0.4753020000000  0.5075000000000 1.0
C      1  0.5077800000000  0.4510160000000  0.5626740000000 1.0
C      1  0.5586630000000  0.5481150000000  0.5247940000000 1.0
C      1  0.5508030000000  0.4515440000000  0.4613470000000 1.0
C      1  0.4951370000000  0.5467530000000  0.4352710000000 1.0
C      1  0.4401920000000  0.4530530000000  0.4726690000000 1.0
C      1  0.4487690000000  0.5482090000000  0.5377610000000 1.0
C      1  0.5134400000000  0.4601530000000  0.4203570000000 1.0
C      1  0.4374910000000  0.5400510000000  0.4501130000000 1.0
C      1  0.4262710000000  0.4608700000000  0.5296040000000 1.0
C      1  0.4861470000000  0.5417580000000  0.5806770000000 1.0
C      1  0.5632290000000  0.4586360000000  0.5514720000000 1.0
C      1  0.5774810000000  0.5423620000000  0.4724990000000 1.0
C      1  0.5189870000000  0.5074000000000  0.5201720000000 1.0
C      1  0.5281610000000  0.4916290000000  0.4917350000000 1.0
C      1  0.5105550000000  0.5071820000000  0.4678890000000 1.0
C      1  0.4786860000000  0.4954150000000  0.4757940000000 1.0
C      1  0.4699230000000  0.5083170000000  0.5067090000000 1.0
C      1  0.4911570000000  0.4892620000000  0.5281890000000 1.0
C      1  0.4792260000000  0.5006850000000  0.5789810000000 1.0
C      1  0.5582200000000  0.4995970000000  0.5564870000000 1.0
C      1  0.5793210000000  0.5009110000000  0.4786640000000 1.0
C      1  0.5210750000000  0.5004810000000  0.4212510000000 1.0
C      1  0.4399770000000  0.4997400000000  0.4408390000000 1.0
C      1  0.4240500000000  0.5007420000000  0.5209520000000 1.0
C      1  0.5021280000000  0.5683020000000  0.5411780000000 1.0
C      1  0.5372430000000  0.4314260000000  0.5177750000000 1.0
C      1  0.5320940000000  0.5682930000000  0.4794800000000 1.0
C      1  0.4976640000000  0.4312280000000  0.4617270000000 1.0
C      1  0.4560890000000  0.5701750000000  0.4887070000000 1.0
C      1  0.4694900000000  0.4302190000000  0.5327800000000 1.0
C      1  0.5190840000000  0.5541370000000  0.5611390000000 1.0
C      1  0.5630900000000  0.4452540000000  0.5133210000000 1.0
C      1  0.5431080000000  0.5540660000000  0.4552680000000 1.0
C      1  0.4815060000000  0.4445970000000  0.4404430000000 1.0
C      1  0.4318620000000  0.5555530000000  0.4877990000000 1.0
C      1  0.4550390000000  0.4435950000000  0.5528690000000 1.0
C      1  0.4211650000000  0.5318430000000  0.4698170000000 1.0
C      1  0.4357540000000  0.4692500000000  0.5533300000000 1.0
C      1  0.5113810000000  0.5314970000000  0.5801060000000 1.0
C      1  0.5761540000000  0.4679840000000  0.5293470000000 1.0
C      1  0.5640940000000  0.5323000000000  0.4513100000000 1.0
C      1  0.4872170000000  0.4673560000000  0.4204020000000 1.0
C      1  0.5649880000000  0.4563990000000  0.4860440000000 1.0
C      1  0.5236320000000  0.5418610000000  0.4372800000000 1.0
C      1  0.4558730000000  0.4566880000000  0.4481730000000 1.0
C      1  0.4348700000000  0.5415770000000  0.5136480000000 1.0
C      1  0.4793450000000  0.4557350000000  0.5654550000000 1.0
C      1  0.5434540000000  0.5427670000000  0.5488210000000 1.0
C      1  0.5100100000000  0.5325780000000  0.5075810000000 1.0
C      1  0.5111440000000  0.4679180000000  0.4952200000000 1.0
C      1  0.5045540000000  0.5334200000000  0.4794620000000 1.0
C      1  0.4844650000000  0.4682020000000  0.4852660000000 1.0
C      1  0.4827180000000  0.5331680000000  0.5153560000000 1.0
C      1  0.5051550000000  0.4658590000000  0.5206720000000 1.0
C      1  0.4642540000000  0.4467540000000  0.4885300000000 1.0
C      1  0.4755230000000  0.5592770000000  0.5273570000000 1.0
C      1  0.5120070000000  0.4419860000000  0.5333760000000 1.0
C      1  0.5412060000000  0.5662450000000  0.5073540000000 1.0
C      1  0.5261990000000  0.4348270000000  0.4683480000000 1.0
C      1  0.4919440000000  0.5542800000000  0.4635830000000 1.0
C      1  0.5552430000000  0.4752780000000  0.4446360000000 1.0
C      1  0.4802940000000  0.5237590000000  0.4241050000000 1.0
C      1  0.4229930000000  0.4761290000000  0.4790640000000 1.0
C      1  0.4449130000000  0.5254800000000  0.5556280000000 1.0
C      1  0.5204880000000  0.4743920000000  0.5747220000000 1.0
C      1  0.5757340000000  0.5248250000000  0.5194170000000 1.0
C      1  0.5575190000000  0.4846590000000  0.4902310000000 1.0
C      1  0.5226450000000  0.5153040000000  0.4438430000000 1.0
C      1  0.4622350000000  0.4853380000000  0.4530390000000 1.0
C      1  0.4429450000000  0.5157620000000  0.5086550000000 1.0
C      1  0.4792720000000  0.4837790000000  0.5548010000000 1.0
C      1  0.5361300000000  0.5146070000000  0.5437700000000 1.0
END
