TITL C-2441156-4686-1220 -0.00106713651486637 125000 -6407.04470790154 0 0 45 (C1) n - 1
REM
REM in /home/bkarasulu/work/CARBON/AIRSS/Generating-Clusters/ReaxFF-fromJPCA2015/Units_Real/with-SteepDescent/Higher-Symm
REM
REM
REM
REM
REM
REM ./C.cell (1df0a924f5614ab8850e4351716899ee)
REM
REM compiler GCC version 9.2.1 20190827 (Red Hat 9.2.1-1)
REM options -cpp -mtune=generic -march=x86-64 -g -O0 -fpre-include=/usr/include/finclude/math-vector-fortran.h
REM seed 922273668 1065091839 -926726848 286160908 -1712241562 -697844749 -1125148280 -263744399 -251577918 29940204 -2092684116 -1960477679 1279298168 -387715285 1700120007 -1657546013 155114748 -852016694 -220909860 1188500882 1859268337 832819150 -39218975 -1271994966 -460174634 -2012655322 1321927736 537512622 460411557 100330011 -372055822 -1889029940 1378982783
REM
CELL 1.54180   50.00000   50.00000   50.00000   90.00000   90.00000   90.00000
LATT -1
SFAC C  
C      1  0.5383580000000  0.5523220000000  0.5062090000000 1.0
C      1  0.4648500000000  0.5616680000000  0.5049540000000 1.0
C      1  0.4305780000000  0.4828010000000  0.5042230000000 1.0
C      1  0.4952440000000  0.4274470000000  0.5046040000000 1.0
C      1  0.5650990000000  0.4687110000000  0.5061600000000 1.0
C      1  0.4779410000000  0.4494270000000  0.4963860000000 1.0
C      1  0.5386160000000  0.4619560000000  0.4947270000000 1.0
C      1  0.5484120000000  0.5236620000000  0.4995390000000 1.0
C      1  0.4891900000000  0.5495450000000  0.4943580000000 1.0
C      1  0.4472990000000  0.5036190000000  0.4964020000000 1.0
C      1  0.4773860000000  0.5411040000000  0.4522860000000 1.0
C      1  0.4532610000000  0.4902050000000  0.4525230000000 1.0
C      1  0.4956720000000  0.4533880000000  0.4524950000000 1.0
C      1  0.5452050000000  0.4832860000000  0.4542590000000 1.0
C      1  0.5349950000000  0.5365460000000  0.4554930000000 1.0
C      1  0.4596240000000  0.4646240000000  0.5436500000000 1.0
C      1  0.5216650000000  0.4513500000000  0.5441700000000 1.0
C      1  0.5568140000000  0.5136640000000  0.5284270000000 1.0
C      1  0.5111420000000  0.5535130000000  0.5489320000000 1.0
C      1  0.4529360000000  0.5277350000000  0.5441630000000 1.0
C      1  0.4375220000000  0.4787710000000  0.5331940000000 1.0
C      1  0.5016490000000  0.4345170000000  0.5337940000000 1.0
C      1  0.5617240000000  0.4841270000000  0.5315030000000 1.0
C      1  0.5362630000000  0.5580220000000  0.5358330000000 1.0
C      1  0.4607190000000  0.5528400000000  0.5340950000000 1.0
C      1  0.5073790000000  0.5425440000000  0.4486990000000 1.0
C      1  0.4659060000000  0.5156830000000  0.4507750000000 1.0
C      1  0.4747810000000  0.4717680000000  0.4516130000000 1.0
C      1  0.5219050000000  0.4670330000000  0.4478710000000 1.0
C      1  0.5292360000000  0.5077840000000  0.4578800000000 1.0
C      1  0.4757100000000  0.5016240000000  0.4991840000000 1.0
C      1  0.4889700000000  0.4766890000000  0.4996700000000 1.0
C      1  0.5163490000000  0.4805770000000  0.4969040000000 1.0
C      1  0.5203310000000  0.5077890000000  0.4885380000000 1.0
C      1  0.4953080000000  0.5210960000000  0.4959570000000 1.0
C      1  0.5492770000000  0.5467760000000  0.4807050000000 1.0
C      1  0.4677920000000  0.5581440000000  0.4766400000000 1.0
C      1  0.4345450000000  0.4896420000000  0.4771120000000 1.0
C      1  0.4914820000000  0.4334660000000  0.4766570000000 1.0
C      1  0.5600680000000  0.4700700000000  0.4771880000000 1.0
C      1  0.4816800000000  0.4504690000000  0.5450000000000 1.0
C      1  0.5420710000000  0.4671550000000  0.5411760000000 1.0
C      1  0.5439370000000  0.5322810000000  0.5436050000000 1.0
C      1  0.4850410000000  0.5519330000000  0.5476030000000 1.0
C      1  0.4460700000000  0.5026290000000  0.5448460000000 1.0
END
