TITL C-2441158-471-461 0.112261416860428 125000 -15423.3928357822 0 0 124 (C1) n - 1
REM
REM in /home/bkarasulu/work/CARBON/AIRSS/Generating-Clusters/ReaxFF-fromJPCA2015/Units_Real/with-SteepDescent/Higher-Symm
REM
REM
REM
REM
REM
REM ./C.cell (1df0a924f5614ab8850e4351716899ee)
REM
REM compiler GCC version 9.2.1 20190827 (Red Hat 9.2.1-1)
REM options -cpp -mtune=generic -march=x86-64 -g -O0 -fpre-include=/usr/include/finclude/math-vector-fortran.h
REM seed 234998845 -112009069 115180667 1858064835 -250624595 1061257151 1435737214 581760635 -1494910406 1518006406 -1745537031 -993114516 -1114390367 -293899890 -905400084 -1058167761 -233878270 1210975509 576341145 -1464870341 -354227922 -781826209 153263924 -1498483241 1710698309 -672313406 -709289022 -1500578061 2125553756 313673357 -995690479 -1146420147 -1087283595
REM
CELL 1.54180   50.00000   50.00000   50.00000   90.00000   90.00000   90.00000
LATT -1
SFAC C  
C      1  0.5667620000000  0.5367060000000  0.4471560000000 1.0
C      1  0.5110690000000  0.5366530000000  0.5865330000000 1.0
C      1  0.4209580000000  0.5368320000000  0.4677060000000 1.0
C      1  0.4355240000000  0.4395860000000  0.4894640000000 1.0
C      1  0.5432040000000  0.4424570000000  0.4461500000000 1.0
C      1  0.5227320000000  0.4386790000000  0.5610840000000 1.0
C      1  0.4867560000000  0.5397300000000  0.4771360000000 1.0
C      1  0.5314340000000  0.5423400000000  0.4983900000000 1.0
C      1  0.4818830000000  0.5448400000000  0.5365420000000 1.0
C      1  0.5334300000000  0.4770880000000  0.5478880000000 1.0
C      1  0.4438430000000  0.4803730000000  0.5118250000000 1.0
C      1  0.5182280000000  0.4796270000000  0.4437250000000 1.0
C      1  0.5552930000000  0.4315110000000  0.4706200000000 1.0
C      1  0.4966910000000  0.4315140000000  0.5566660000000 1.0
C      1  0.4546390000000  0.4316530000000  0.4698870000000 1.0
C      1  0.4519770000000  0.5432520000000  0.5315840000000 1.0
C      1  0.4853020000000  0.5448880000000  0.4421340000000 1.0
C      1  0.5489360000000  0.5402580000000  0.5222480000000 1.0
C      1  0.5346270000000  0.4694780000000  0.5200010000000 1.0
C      1  0.4654710000000  0.4690120000000  0.5263880000000 1.0
C      1  0.4978950000000  0.4673550000000  0.4587930000000 1.0
C      1  0.4514200000000  0.5710800000000  0.5246260000000 1.0
C      1  0.4986330000000  0.5714260000000  0.4444730000000 1.0
C      1  0.5474820000000  0.5667970000000  0.5338830000000 1.0
C      1  0.5604080000000  0.4946300000000  0.4300520000000 1.0
C      1  0.5301200000000  0.4945020000000  0.5882530000000 1.0
C      1  0.4092250000000  0.4950980000000  0.4835580000000 1.0
C      1  0.5412810000000  0.5397870000000  0.4357900000000 1.0
C      1  0.5325320000000  0.5391050000000  0.5699700000000 1.0
C      1  0.4246480000000  0.5406430000000  0.4943370000000 1.0
C      1  0.4945620000000  0.4455000000000  0.4167750000000 1.0
C      1  0.5672850000000  0.4439680000000  0.5416400000000 1.0
C      1  0.4312940000000  0.4449500000000  0.5409090000000 1.0
C      1  0.5175270000000  0.4624160000000  0.4813220000000 1.0
C      1  0.5131460000000  0.4512690000000  0.5087690000000 1.0
C      1  0.4838020000000  0.4557280000000  0.5072100000000 1.0
C      1  0.5607930000000  0.4331500000000  0.4989010000000 1.0
C      1  0.4685370000000  0.4331150000000  0.5543630000000 1.0
C      1  0.4684700000000  0.4327120000000  0.4452820000000 1.0
C      1  0.5703290000000  0.4774430000000  0.4781850000000 1.0
C      1  0.4849840000000  0.4740310000000  0.5724720000000 1.0
C      1  0.4443610000000  0.4745820000000  0.4505340000000 1.0
C      1  0.4555680000000  0.5488460000000  0.4379810000000 1.0
C      1  0.5702620000000  0.5558290000000  0.4923270000000 1.0
C      1  0.4723210000000  0.5491810000000  0.5677030000000 1.0
C      1  0.5218830000000  0.6006960000000  0.5129400000000 1.0
C      1  0.4933590000000  0.6029260000000  0.5126330000000 1.0
C      1  0.4940330000000  0.5920560000000  0.4821230000000 1.0
C      1  0.5130270000000  0.5081560000000  0.4161340000000 1.0
C      1  0.5682110000000  0.5091840000000  0.5544010000000 1.0
C      1  0.4173190000000  0.5111220000000  0.5322830000000 1.0
C      1  0.4667320000000  0.4251010000000  0.5262930000000 1.0
C      1  0.4942070000000  0.4199400000000  0.4537830000000 1.0
C      1  0.5398060000000  0.4218990000000  0.5153570000000 1.0
C      1  0.5031160000000  0.4824050000000  0.5929580000000 1.0
C      1  0.4175570000000  0.4834420000000  0.4577440000000 1.0
C      1  0.5780650000000  0.4835780000000  0.4511760000000 1.0
C      1  0.5182930000000  0.4904380000000  0.4899980000000 1.0
C      1  0.5010210000000  0.4900450000000  0.5217360000000 1.0
C      1  0.4783310000000  0.4826110000000  0.4911360000000 1.0
C      1  0.5132970000000  0.5086600000000  0.5398770000000 1.0
C      1  0.4574170000000  0.5027580000000  0.4973310000000 1.0
C      1  0.5277570000000  0.5051250000000  0.4657580000000 1.0
C      1  0.5328940000000  0.5693860000000  0.4899700000000 1.0
C      1  0.4894930000000  0.5655080000000  0.5201230000000 1.0
C      1  0.4888840000000  0.5655690000000  0.4925970000000 1.0
C      1  0.5474500000000  0.4596590000000  0.4708290000000 1.0
C      1  0.5045780000000  0.4603510000000  0.5549460000000 1.0
C      1  0.4495910000000  0.4576370000000  0.4731190000000 1.0
C      1  0.5430190000000  0.4286380000000  0.5431320000000 1.0
C      1  0.4399170000000  0.4304020000000  0.5173400000000 1.0
C      1  0.5210420000000  0.4263930000000  0.4495570000000 1.0
C      1  0.5777960000000  0.5280710000000  0.4905570000000 1.0
C      1  0.4677860000000  0.5218570000000  0.5738600000000 1.0
C      1  0.4502220000000  0.5203510000000  0.4354460000000 1.0
C      1  0.5212090000000  0.4047350000000  0.5053880000000 1.0
C      1  0.4833080000000  0.4056930000000  0.5167700000000 1.0
C      1  0.4919660000000  0.4041150000000  0.4779290000000 1.0
C      1  0.5088940000000  0.5103950000000  0.5996090000000 1.0
C      1  0.4100340000000  0.5111040000000  0.4598430000000 1.0
C      1  0.5805860000000  0.5113080000000  0.4424490000000 1.0
C      1  0.4349950000000  0.5267290000000  0.5479680000000 1.0
C      1  0.4916770000000  0.5246780000000  0.4224750000000 1.0
C      1  0.5724430000000  0.5250830000000  0.5315940000000 1.0
C      1  0.4807060000000  0.5221020000000  0.4996770000000 1.0
C      1  0.5157050000000  0.5286200000000  0.4786270000000 1.0
C      1  0.5006260000000  0.5283520000000  0.5215940000000 1.0
C      1  0.4420570000000  0.5653350000000  0.4979560000000 1.0
C      1  0.5267050000000  0.5639710000000  0.4451960000000 1.0
C      1  0.5273350000000  0.5634200000000  0.5536050000000 1.0
C      1  0.4167010000000  0.4857150000000  0.5458600000000 1.0
C      1  0.5034540000000  0.4835930000000  0.4048500000000 1.0
C      1  0.5805010000000  0.4850370000000  0.5448120000000 1.0
C      1  0.5413870000000  0.4939100000000  0.5065240000000 1.0
C      1  0.4778600000000  0.4914010000000  0.5340890000000 1.0
C      1  0.4824050000000  0.4905150000000  0.4650270000000 1.0
C      1  0.4499000000000  0.4544830000000  0.5626030000000 1.0
C      1  0.4679440000000  0.4536220000000  0.4238150000000 1.0
C      1  0.5761880000000  0.4517070000000  0.5147900000000 1.0
C      1  0.4372270000000  0.4809900000000  0.5658040000000 1.0
C      1  0.4753210000000  0.4816040000000  0.4115570000000 1.0
C      1  0.5856640000000  0.4800510000000  0.5159650000000 1.0
C      1  0.5448830000000  0.5131270000000  0.5711860000000 1.0
C      1  0.4155420000000  0.5151510000000  0.5039390000000 1.0
C      1  0.5388250000000  0.5134920000000  0.4248180000000 1.0
C      1  0.5463190000000  0.5833100000000  0.5105390000000 1.0
C      1  0.4796750000000  0.5861460000000  0.5336800000000 1.0
C      1  0.4774490000000  0.5863150000000  0.4593140000000 1.0
C      1  0.4426580000000  0.5095480000000  0.5701740000000 1.0
C      1  0.4683490000000  0.5096500000000  0.4156400000000 1.0
C      1  0.5864340000000  0.5100740000000  0.5118460000000 1.0
C      1  0.5186970000000  0.4620600000000  0.4192450000000 1.0
C      1  0.5604910000000  0.4680740000000  0.5564670000000 1.0
C      1  0.4205440000000  0.4666370000000  0.5240560000000 1.0
C      1  0.4515710000000  0.5756160000000  0.4706640000000 1.0
C      1  0.5452950000000  0.5743790000000  0.4648530000000 1.0
C      1  0.5015590000000  0.5764480000000  0.5568200000000 1.0
C      1  0.5717530000000  0.5607330000000  0.4641240000000 1.0
C      1  0.4950290000000  0.5609700000000  0.5804070000000 1.0
C      1  0.4346040000000  0.5592220000000  0.4546890000000 1.0
C      1  0.5570680000000  0.5030830000000  0.4835780000000 1.0
C      1  0.4860480000000  0.5016100000000  0.5598780000000 1.0
C      1  0.4566420000000  0.5010910000000  0.4564750000000 1.0
C      1  0.4990390000000  0.4112270000000  0.4997630000000 1.0
END
