TITL C-2441162-9305-275 0.0492797270063301 125000 -18815.5365704171 0 0 135 (C1) n - 1
REM
REM in /home/bkarasulu/work/CARBON/AIRSS/Generating-Clusters/ReaxFF-fromJPCA2015/Units_Real/with-SteepDescent/Higher-Symm
REM
REM
REM
REM
REM
REM ./C.cell (1df0a924f5614ab8850e4351716899ee)
REM
REM compiler GCC version 9.2.1 20190827 (Red Hat 9.2.1-1)
REM options -cpp -mtune=generic -march=x86-64 -g -O0 -fpre-include=/usr/include/finclude/math-vector-fortran.h
REM seed -1095637281 -42405397 1879707871 1633540030 -1953308361 -1505743670 -1269883466 1284211733 -1023891071 2080589509 -1947062397 1523924541 -557549611 -1906080603 -404198642 1265625988 -1665698774 -840683276 -1479179337 -147120871 695778023 568306117 350623894 -1206523586 -1532266733 -432223743 -2127735910 789013477 -163522548 1317232057 1622141693 -1917042853 188152687
REM
CELL 1.54180   50.00000   50.00000   50.00000   90.00000   90.00000   90.00000
LATT -1
SFAC C  
C      1  0.5084020000000  0.5000060000000  0.4671900000000 1.0
C      1  0.5089900000000  0.5380600000000  0.5167810000000 1.0
C      1  0.5089310000000  0.4690610000000  0.5232850000000 1.0
C      1  0.5316760000000  0.4982180000000  0.4179850000000 1.0
C      1  0.5328350000000  0.5752560000000  0.5448470000000 1.0
C      1  0.5323310000000  0.4255920000000  0.5451470000000 1.0
C      1  0.4700340000000  0.4335760000000  0.5670110000000 1.0
C      1  0.4660460000000  0.4773750000000  0.4042310000000 1.0
C      1  0.4619250000000  0.5876430000000  0.5328080000000 1.0
C      1  0.4437530000000  0.4742040000000  0.4882370000000 1.0
C      1  0.4453220000000  0.5224450000000  0.4833340000000 1.0
C      1  0.4443160000000  0.5027540000000  0.5268960000000 1.0
C      1  0.5232090000000  0.5319810000000  0.5406830000000 1.0
C      1  0.5291630000000  0.4531780000000  0.5088250000000 1.0
C      1  0.5208150000000  0.5235570000000  0.4567520000000 1.0
C      1  0.5623900000000  0.5240750000000  0.5834890000000 1.0
C      1  0.5585180000000  0.4225620000000  0.4746590000000 1.0
C      1  0.5600700000000  0.5654220000000  0.4469330000000 1.0
C      1  0.4934760000000  0.5021670000000  0.4918030000000 1.0
C      1  0.4985480000000  0.5115580000000  0.5169290000000 1.0
C      1  0.4931710000000  0.4762640000000  0.4995300000000 1.0
C      1  0.4570960000000  0.4483170000000  0.4839380000000 1.0
C      1  0.4499440000000  0.5445830000000  0.4612990000000 1.0
C      1  0.4586000000000  0.5139680000000  0.5502870000000 1.0
C      1  0.5193370000000  0.4308960000000  0.4294960000000 1.0
C      1  0.5236400000000  0.5917270000000  0.4778640000000 1.0
C      1  0.5276640000000  0.4877480000000  0.5938440000000 1.0
C      1  0.5229750000000  0.4231330000000  0.5163380000000 1.0
C      1  0.5169590000000  0.5218750000000  0.4276640000000 1.0
C      1  0.5216670000000  0.5524170000000  0.5628720000000 1.0
C      1  0.5341010000000  0.4842350000000  0.4714380000000 1.0
C      1  0.5449450000000  0.5211650000000  0.5007580000000 1.0
C      1  0.5389700000000  0.4964060000000  0.5155900000000 1.0
C      1  0.5843720000000  0.5098510000000  0.4804700000000 1.0
C      1  0.5914030000000  0.5044490000000  0.5108530000000 1.0
C      1  0.5840120000000  0.4760100000000  0.5037090000000 1.0
C      1  0.4510490000000  0.5351230000000  0.5686160000000 1.0
C      1  0.4498740000000  0.4216720000000  0.4931020000000 1.0
C      1  0.4454930000000  0.5449570000000  0.4313430000000 1.0
C      1  0.4900580000000  0.5205390000000  0.5911900000000 1.0
C      1  0.4911180000000  0.4108140000000  0.4719420000000 1.0
C      1  0.4880030000000  0.5681320000000  0.4305060000000 1.0
C      1  0.5359860000000  0.5347670000000  0.5870370000000 1.0
C      1  0.5390280000000  0.4083360000000  0.4909230000000 1.0
C      1  0.5381490000000  0.5695340000000  0.4304280000000 1.0
C      1  0.4784370000000  0.4338690000000  0.5383990000000 1.0
C      1  0.4793690000000  0.4963560000000  0.4228950000000 1.0
C      1  0.4818860000000  0.5703410000000  0.5389860000000 1.0
C      1  0.5009850000000  0.4516730000000  0.4231170000000 1.0
C      1  0.5031340000000  0.5916990000000  0.4979980000000 1.0
C      1  0.4929990000000  0.4482660000000  0.5761880000000 1.0
C      1  0.5244730000000  0.4702440000000  0.4194160000000 1.0
C      1  0.5245920000000  0.5852010000000  0.5190570000000 1.0
C      1  0.5202150000000  0.4419830000000  0.5668160000000 1.0
C      1  0.5441980000000  0.5863570000000  0.4966710000000 1.0
C      1  0.5362800000000  0.4638670000000  0.5785480000000 1.0
C      1  0.5421750000000  0.4475050000000  0.4298630000000 1.0
C      1  0.4275260000000  0.4315360000000  0.5092180000000 1.0
C      1  0.4224570000000  0.5270900000000  0.4344860000000 1.0
C      1  0.4282540000000  0.5447840000000  0.5519160000000 1.0
C      1  0.5788700000000  0.4734370000000  0.4552580000000 1.0
C      1  0.5781210000000  0.5517560000000  0.4999610000000 1.0
C      1  0.5721810000000  0.4741810000000  0.5443260000000 1.0
C      1  0.5177930000000  0.5152320000000  0.5991480000000 1.0
C      1  0.5167840000000  0.4036600000000  0.4769980000000 1.0
C      1  0.5152860000000  0.5706040000000  0.4255890000000 1.0
C      1  0.5453110000000  0.4415060000000  0.4584400000000 1.0
C      1  0.5447500000000  0.5646740000000  0.4735840000000 1.0
C      1  0.5391840000000  0.4902880000000  0.5672260000000 1.0
C      1  0.5774340000000  0.5420150000000  0.4479550000000 1.0
C      1  0.5786650000000  0.5233480000000  0.5573600000000 1.0
C      1  0.5789980000000  0.4352040000000  0.4905220000000 1.0
C      1  0.5320860000000  0.5050380000000  0.5422030000000 1.0
C      1  0.5277740000000  0.4559200000000  0.4761930000000 1.0
C      1  0.5348550000000  0.5364010000000  0.4776640000000 1.0
C      1  0.4100600000000  0.4669810000000  0.4525780000000 1.0
C      1  0.4132290000000  0.5558560000000  0.4911620000000 1.0
C      1  0.4104440000000  0.4769230000000  0.5502140000000 1.0
C      1  0.5602790000000  0.5015140000000  0.4178310000000 1.0
C      1  0.5610450000000  0.5722550000000  0.5437370000000 1.0
C      1  0.5610690000000  0.4241420000000  0.5420940000000 1.0
C      1  0.4933070000000  0.5602310000000  0.4592360000000 1.0
C      1  0.4926890000000  0.5011070000000  0.5696150000000 1.0
C      1  0.4977770000000  0.4408440000000  0.4665690000000 1.0
C      1  0.4218040000000  0.5663470000000  0.5176990000000 1.0
C      1  0.4239530000000  0.4509980000000  0.5507400000000 1.0
C      1  0.4234890000000  0.4787210000000  0.4294090000000 1.0
C      1  0.4786880000000  0.4748810000000  0.5676300000000 1.0
C      1  0.4798370000000  0.4558540000000  0.4466740000000 1.0
C      1  0.4819750000000  0.5720240000000  0.4888960000000 1.0
C      1  0.4155380000000  0.5180630000000  0.5546200000000 1.0
C      1  0.4146920000000  0.4425590000000  0.4857520000000 1.0
C      1  0.4097220000000  0.5285430000000  0.4599750000000 1.0
C      1  0.5894150000000  0.4606830000000  0.4798970000000 1.0
C      1  0.5872430000000  0.5379000000000  0.4752600000000 1.0
C      1  0.5846750000000  0.5000070000000  0.5411330000000 1.0
C      1  0.4140670000000  0.4714930000000  0.4820030000000 1.0
C      1  0.4146830000000  0.5266160000000  0.4870070000000 1.0
C      1  0.4142390000000  0.5001660000000  0.5317860000000 1.0
C      1  0.4358220000000  0.5013910000000  0.4426010000000 1.0
C      1  0.4377650000000  0.5472310000000  0.5261730000000 1.0
C      1  0.4354970000000  0.4513860000000  0.5267970000000 1.0
C      1  0.4759990000000  0.4083350000000  0.4974840000000 1.0
C      1  0.4714290000000  0.5465550000000  0.4186750000000 1.0
C      1  0.4760690000000  0.5447670000000  0.5813810000000 1.0
C      1  0.4813550000000  0.4638520000000  0.5356740000000 1.0
C      1  0.4802780000000  0.4871850000000  0.4515680000000 1.0
C      1  0.4827600000000  0.5509690000000  0.5133350000000 1.0
C      1  0.4540270000000  0.4964970000000  0.4665510000000 1.0
C      1  0.4557460000000  0.5312670000000  0.5104320000000 1.0
C      1  0.4526870000000  0.4734170000000  0.5204950000000 1.0
C      1  0.4506340000000  0.4453000000000  0.4416680000000 1.0
C      1  0.4536510000000  0.5828410000000  0.4876860000000 1.0
C      1  0.4486150000000  0.4770960000000  0.5763590000000 1.0
C      1  0.4251620000000  0.4416470000000  0.4561690000000 1.0
C      1  0.4350140000000  0.5661900000000  0.4749810000000 1.0
C      1  0.4241930000000  0.4930100000000  0.5709070000000 1.0
C      1  0.5776490000000  0.5193000000000  0.4297940000000 1.0
C      1  0.5792020000000  0.5510020000000  0.5482470000000 1.0
C      1  0.5797490000000  0.4292170000000  0.5194050000000 1.0
C      1  0.5690560000000  0.5288180000000  0.5136260000000 1.0
C      1  0.5571540000000  0.4722550000000  0.5176430000000 1.0
C      1  0.5616890000000  0.4934280000000  0.4681400000000 1.0
C      1  0.4414880000000  0.5893630000000  0.5135710000000 1.0
C      1  0.4449470000000  0.4492030000000  0.5714440000000 1.0
C      1  0.4447140000000  0.4609460000000  0.4180380000000 1.0
C      1  0.4813380000000  0.5349970000000  0.4636190000000 1.0
C      1  0.4856650000000  0.5104840000000  0.5433390000000 1.0
C      1  0.4833550000000  0.4534940000000  0.4870140000000 1.0
C      1  0.4926000000000  0.5612940000000  0.5650450000000 1.0
C      1  0.4925510000000  0.4166520000000  0.5194410000000 1.0
C      1  0.4898390000000  0.5236570000000  0.4167010000000 1.0
C      1  0.5824480000000  0.4904660000000  0.4319990000000 1.0
C      1  0.5816690000000  0.5656830000000  0.5243680000000 1.0
C      1  0.5808330000000  0.4464480000000  0.5432480000000 1.0
END
