TITL C-2441158-471-1067 0.0555660713249527 125000 -26996.795868737 0 0 187 (C1) n - 1
REM
REM in /home/bkarasulu/work/CARBON/AIRSS/Generating-Clusters/ReaxFF-fromJPCA2015/Units_Real/with-SteepDescent/Higher-Symm
REM
REM
REM
REM
REM
REM ./C.cell (1df0a924f5614ab8850e4351716899ee)
REM
REM compiler GCC version 9.2.1 20190827 (Red Hat 9.2.1-1)
REM options -cpp -mtune=generic -march=x86-64 -g -O0 -fpre-include=/usr/include/finclude/math-vector-fortran.h
REM seed 1814601429 1684532407 1980536176 -1688237837 -479265098 -986576526 -160886881 -344080254 693383938 30447272 1353232097 1150842467 32912892 -2017789095 -1623587381 -1096069906 -575205099 -676649 -837307203 115843453 -1067694689 -205623041 1118078464 556424434 -288878100 -368680832 1114254492 911051214 2040343729 -1662485252 1266860838 -405425847 1637138203
REM
CELL 1.54180   50.00000   50.00000   50.00000   90.00000   90.00000   90.00000
LATT -1
SFAC C  
C      1  0.5298310000000  0.5212820000000  0.5709160000000 1.0
C      1  0.4669060000000  0.5005460000000  0.5751310000000 1.0
C      1  0.4226300000000  0.5019090000000  0.5236710000000 1.0
C      1  0.4187440000000  0.5015070000000  0.4472730000000 1.0
C      1  0.4912780000000  0.4909680000000  0.4174980000000 1.0
C      1  0.5634830000000  0.5198350000000  0.4536720000000 1.0
C      1  0.5755670000000  0.5187350000000  0.5210780000000 1.0
C      1  0.5413330000000  0.5943340000000  0.5367750000000 1.0
C      1  0.4972800000000  0.5951500000000  0.5549900000000 1.0
C      1  0.4549660000000  0.5956560000000  0.5325080000000 1.0
C      1  0.4464900000000  0.5951980000000  0.4853920000000 1.0
C      1  0.4782740000000  0.5950080000000  0.4494700000000 1.0
C      1  0.5260150000000  0.5941780000000  0.4520120000000 1.0
C      1  0.5542590000000  0.5940490000000  0.4905860000000 1.0
C      1  0.3956600000000  0.4715150000000  0.4757460000000 1.0
C      1  0.4525420000000  0.4742370000000  0.3971530000000 1.0
C      1  0.5601630000000  0.4738780000000  0.4053080000000 1.0
C      1  0.6017380000000  0.4719820000000  0.4755640000000 1.0
C      1  0.5774200000000  0.4746950000000  0.5801150000000 1.0
C      1  0.5032080000000  0.4722510000000  0.6051610000000 1.0
C      1  0.4142650000000  0.4701930000000  0.5722230000000 1.0
C      1  0.4722110000000  0.4051450000000  0.4477960000000 1.0
C      1  0.5179870000000  0.4022520000000  0.4534490000000 1.0
C      1  0.5524910000000  0.3965810000000  0.4870670000000 1.0
C      1  0.5398310000000  0.3996520000000  0.5333140000000 1.0
C      1  0.5023810000000  0.4070620000000  0.5573950000000 1.0
C      1  0.4602640000000  0.3984000000000  0.5368160000000 1.0
C      1  0.4466010000000  0.4003730000000  0.4873780000000 1.0
C      1  0.4865930000000  0.5800180000000  0.5776340000000 1.0
C      1  0.4303420000000  0.5804700000000  0.5364000000000 1.0
C      1  0.4272490000000  0.5812470000000  0.4682780000000 1.0
C      1  0.4805250000000  0.5820270000000  0.4236900000000 1.0
C      1  0.5465180000000  0.5805590000000  0.4361700000000 1.0
C      1  0.5793300000000  0.5799030000000  0.4956060000000 1.0
C      1  0.5535970000000  0.5800280000000  0.5591090000000 1.0
C      1  0.4267050000000  0.4821350000000  0.4116450000000 1.0
C      1  0.5158160000000  0.4940490000000  0.3853000000000 1.0
C      1  0.5956420000000  0.4909890000000  0.4400700000000 1.0
C      1  0.5991220000000  0.4895060000000  0.5366350000000 1.0
C      1  0.5392190000000  0.4914160000000  0.6067180000000 1.0
C      1  0.4335560000000  0.4815780000000  0.5910650000000 1.0
C      1  0.3859180000000  0.4895370000000  0.5106130000000 1.0
C      1  0.4785300000000  0.4333390000000  0.5864130000000 1.0
C      1  0.4233830000000  0.4331610000000  0.5362450000000 1.0
C      1  0.4243940000000  0.4337210000000  0.4591370000000 1.0
C      1  0.4832280000000  0.4352310000000  0.4135570000000 1.0
C      1  0.5548210000000  0.4303010000000  0.4362600000000 1.0
C      1  0.5858140000000  0.4312500000000  0.5045790000000 1.0
C      1  0.5528850000000  0.4289930000000  0.5715810000000 1.0
C      1  0.4363560000000  0.5664090000000  0.5617400000000 1.0
C      1  0.4110510000000  0.5652580000000  0.4874950000000 1.0
C      1  0.4538670000000  0.5692060000000  0.4227320000000 1.0
C      1  0.5313430000000  0.5654880000000  0.4157740000000 1.0
C      1  0.5853300000000  0.5659440000000  0.4697230000000 1.0
C      1  0.5776140000000  0.5660250000000  0.5475640000000 1.0
C      1  0.5105760000000  0.5653770000000  0.5886110000000 1.0
C      1  0.4056850000000  0.4558350000000  0.4552760000000 1.0
C      1  0.4763040000000  0.4574710000000  0.3964260000000 1.0
C      1  0.5662340000000  0.4492700000000  0.4181300000000 1.0
C      1  0.6047010000000  0.4538440000000  0.4972070000000 1.0
C      1  0.5691010000000  0.4486250000000  0.5856720000000 1.0
C      1  0.4795500000000  0.4586720000000  0.6010300000000 1.0
C      1  0.4121920000000  0.4579420000000  0.5459120000000 1.0
C      1  0.4743360000000  0.5259610000000  0.4503090000000 1.0
C      1  0.5344600000000  0.5209570000000  0.4498860000000 1.0
C      1  0.5588030000000  0.5199380000000  0.4980640000000 1.0
C      1  0.5370520000000  0.5234030000000  0.5438420000000 1.0
C      1  0.4888310000000  0.5134190000000  0.5580910000000 1.0
C      1  0.4471540000000  0.5148090000000  0.5340920000000 1.0
C      1  0.4424650000000  0.5200550000000  0.4881810000000 1.0
C      1  0.5251170000000  0.5727070000000  0.5230140000000 1.0
C      1  0.4982360000000  0.5727220000000  0.5349340000000 1.0
C      1  0.4721460000000  0.5729940000000  0.5215960000000 1.0
C      1  0.4646340000000  0.5719430000000  0.4925040000000 1.0
C      1  0.4839940000000  0.5718780000000  0.4690190000000 1.0
C      1  0.5149520000000  0.5722110000000  0.4694610000000 1.0
C      1  0.5332580000000  0.5723930000000  0.4936560000000 1.0
C      1  0.5132040000000  0.4933000000000  0.6000610000000 1.0
C      1  0.4182100000000  0.4984080000000  0.5751330000000 1.0
C      1  0.3943630000000  0.4931100000000  0.4857140000000 1.0
C      1  0.4507880000000  0.4974510000000  0.4138930000000 1.0
C      1  0.5399190000000  0.4948850000000  0.4023380000000 1.0
C      1  0.5948000000000  0.4933280000000  0.4673080000000 1.0
C      1  0.5741450000000  0.4888930000000  0.5554120000000 1.0
C      1  0.4892890000000  0.5415480000000  0.3996040000000 1.0
C      1  0.5757670000000  0.5439920000000  0.4235240000000 1.0
C      1  0.6060920000000  0.5426150000000  0.5103810000000 1.0
C      1  0.5585620000000  0.5440260000000  0.5890520000000 1.0
C      1  0.4653810000000  0.5424660000000  0.5974040000000 1.0
C      1  0.4014830000000  0.5426740000000  0.5324180000000 1.0
C      1  0.4133880000000  0.5435850000000  0.4400810000000 1.0
C      1  0.6036610000000  0.5139580000000  0.5196220000000 1.0
C      1  0.5474710000000  0.5168720000000  0.5926720000000 1.0
C      1  0.4534070000000  0.5163160000000  0.5940210000000 1.0
C      1  0.3972130000000  0.5144160000000  0.5239740000000 1.0
C      1  0.4173650000000  0.5181250000000  0.4276200000000 1.0
C      1  0.4969490000000  0.5123260000000  0.3991880000000 1.0
C      1  0.5819880000000  0.5164080000000  0.4320110000000 1.0
C      1  0.4154940000000  0.5164910000000  0.4768490000000 1.0
C      1  0.4597670000000  0.5226070000000  0.4263820000000 1.0
C      1  0.5357740000000  0.5181410000000  0.4195800000000 1.0
C      1  0.5788970000000  0.5189100000000  0.4770260000000 1.0
C      1  0.5670450000000  0.5196070000000  0.5484970000000 1.0
C      1  0.5052850000000  0.5177490000000  0.5812940000000 1.0
C      1  0.4327300000000  0.5189130000000  0.5605910000000 1.0
C      1  0.4617500000000  0.5412000000000  0.4936640000000 1.0
C      1  0.4868050000000  0.5441240000000  0.4666970000000 1.0
C      1  0.5163980000000  0.5418960000000  0.4684690000000 1.0
C      1  0.5330650000000  0.5411510000000  0.4951930000000 1.0
C      1  0.5227930000000  0.5427070000000  0.5247130000000 1.0
C      1  0.4941050000000  0.5399300000000  0.5363360000000 1.0
C      1  0.4678340000000  0.5418010000000  0.5230770000000 1.0
C      1  0.4607870000000  0.4383420000000  0.5648660000000 1.0
C      1  0.4249190000000  0.4395050000000  0.5073420000000 1.0
C      1  0.4470850000000  0.4415490000000  0.4441990000000 1.0
C      1  0.5079870000000  0.4415140000000  0.4269490000000 1.0
C      1  0.5634910000000  0.4366010000000  0.4626820000000 1.0
C      1  0.5709000000000  0.4375170000000  0.5280560000000 1.0
C      1  0.5259700000000  0.4399990000000  0.5736400000000 1.0
C      1  0.4636820000000  0.4608430000000  0.4564110000000 1.0
C      1  0.5045590000000  0.4603480000000  0.4484960000000 1.0
C      1  0.5511470000000  0.4594810000000  0.4712730000000 1.0
C      1  0.5509890000000  0.4572980000000  0.5233150000000 1.0
C      1  0.5237550000000  0.4602820000000  0.5536250000000 1.0
C      1  0.4730200000000  0.4556480000000  0.5457170000000 1.0
C      1  0.4451940000000  0.4582120000000  0.5036840000000 1.0
C      1  0.5317530000000  0.3919480000000  0.4719110000000 1.0
C      1  0.5414370000000  0.3907470000000  0.5097760000000 1.0
C      1  0.5151260000000  0.3879520000000  0.5409320000000 1.0
C      1  0.4858570000000  0.3896850000000  0.5467840000000 1.0
C      1  0.4623770000000  0.3937910000000  0.5088400000000 1.0
C      1  0.4634780000000  0.3895940000000  0.4679790000000 1.0
C      1  0.4932850000000  0.3895390000000  0.4572610000000 1.0
C      1  0.5531040000000  0.4701810000000  0.4976580000000 1.0
C      1  0.5443530000000  0.4773250000000  0.5424410000000 1.0
C      1  0.4976600000000  0.4692790000000  0.5474460000000 1.0
C      1  0.4580770000000  0.4690830000000  0.5254570000000 1.0
C      1  0.4514380000000  0.4716180000000  0.4806350000000 1.0
C      1  0.4832250000000  0.4808880000000  0.4444200000000 1.0
C      1  0.5295410000000  0.4718040000000  0.4578190000000 1.0
C      1  0.4671550000000  0.6155880000000  0.4892680000000 1.0
C      1  0.4880370000000  0.6156500000000  0.4679250000000 1.0
C      1  0.5177080000000  0.6152240000000  0.4706440000000 1.0
C      1  0.5343390000000  0.6149400000000  0.4954220000000 1.0
C      1  0.5252000000000  0.6150610000000  0.5238340000000 1.0
C      1  0.4971120000000  0.6155640000000  0.5340050000000 1.0
C      1  0.4713890000000  0.6157360000000  0.5188460000000 1.0
C      1  0.4453430000000  0.4198040000000  0.5494190000000 1.0
C      1  0.4272500000000  0.4209200000000  0.4848230000000 1.0
C      1  0.4623760000000  0.4240770000000  0.4299640000000 1.0
C      1  0.5269760000000  0.4219370000000  0.4342100000000 1.0
C      1  0.5714470000000  0.4192010000000  0.4828800000000 1.0
C      1  0.5583880000000  0.4181500000000  0.5452320000000 1.0
C      1  0.5035110000000  0.4233220000000  0.5792660000000 1.0
C      1  0.5020810000000  0.5642710000000  0.4122890000000 1.0
C      1  0.5707400000000  0.5651900000000  0.4437240000000 1.0
C      1  0.5878790000000  0.5643010000000  0.5196290000000 1.0
C      1  0.5397930000000  0.5652520000000  0.5810620000000 1.0
C      1  0.4610430000000  0.5646940000000  0.5781970000000 1.0
C      1  0.4131570000000  0.5642880000000  0.5172640000000 1.0
C      1  0.4321060000000  0.5666810000000  0.4425770000000 1.0
C      1  0.5764890000000  0.5437550000000  0.5658330000000 1.0
C      1  0.4950200000000  0.5430690000000  0.5972330000000 1.0
C      1  0.4174310000000  0.5442610000000  0.5575070000000 1.0
C      1  0.4049640000000  0.5437600000000  0.4690490000000 1.0
C      1  0.4613350000000  0.5449830000000  0.4075800000000 1.0
C      1  0.5488150000000  0.5425730000000  0.4103890000000 1.0
C      1  0.5981590000000  0.5433470000000  0.4820790000000 1.0
C      1  0.6000620000000  0.4653340000000  0.5228190000000 1.0
C      1  0.5593730000000  0.4712550000000  0.6008930000000 1.0
C      1  0.4598930000000  0.4738890000000  0.5842980000000 1.0
C      1  0.4095280000000  0.4748270000000  0.5218490000000 1.0
C      1  0.4200070000000  0.4744550000000  0.4384050000000 1.0
C      1  0.5025980000000  0.4713380000000  0.3995450000000 1.0
C      1  0.5811820000000  0.4719540000000  0.4240140000000 1.0
C      1  0.5268690000000  0.4977540000000  0.4704650000000 1.0
C      1  0.5411050000000  0.4967890000000  0.4987020000000 1.0
C      1  0.5278780000000  0.4987440000000  0.5276020000000 1.0
C      1  0.4964510000000  0.4953740000000  0.5364910000000 1.0
C      1  0.4680750000000  0.4962190000000  0.5212070000000 1.0
C      1  0.4593400000000  0.4977260000000  0.4882250000000 1.0
C      1  0.4799550000000  0.5034200000000  0.4659160000000 1.0
C      1  0.5019700000000  0.5001910000000  0.4830380000000 1.0
C      1  0.5012190000000  0.4528980000000  0.5005590000000 1.0
C      1  0.5013260000000  0.4757050000000  0.4942170000000 1.0
C      1  0.4990610000000  0.4282870000000  0.5024800000000 1.0
C      1  0.4925860000000  0.4008000000000  0.5026260000000 1.0
END
