TITL C-2441161-5029-414 0.0143779881181151 125000 -13573.4780073428 0 0 96 (C1) n - 1
REM
REM in /home/bkarasulu/work/CARBON/AIRSS/Generating-Clusters/ReaxFF-fromJPCA2015/Units_Real/with-SteepDescent/Higher-Symm
REM
REM
REM
REM
REM
REM ./C.cell (1df0a924f5614ab8850e4351716899ee)
REM
REM compiler GCC version 9.2.1 20190827 (Red Hat 9.2.1-1)
REM options -cpp -mtune=generic -march=x86-64 -g -O0 -fpre-include=/usr/include/finclude/math-vector-fortran.h
REM seed 250831195 410672663 -1491958676 -895118289 503147592 1890905225 70495139 130512849 -1018420493 1533521990 -834595041 878831705 1811102926 -1826597209 -472235319 -1653127425 740598195 2079080520 648331822 -2017246869 876309972 -698623033 270551741 -767689791 -1774274777 2001350989 1586310870 -387949851 1659463161 641571550 -198903148 -889699259 1951004378
REM
CELL 1.54180   50.00000   50.00000   50.00000   90.00000   90.00000   90.00000
LATT -1
SFAC C  
C      1  0.4689370000000  0.4189720000000  0.5291670000000 1.0
C      1  0.5398930000000  0.4180300000000  0.5129120000000 1.0
C      1  0.4931290000000  0.4201100000000  0.4614860000000 1.0
C      1  0.4219160000000  0.4815200000000  0.5372590000000 1.0
C      1  0.5701920000000  0.4805800000000  0.5478130000000 1.0
C      1  0.5065590000000  0.4816560000000  0.4132770000000 1.0
C      1  0.5627820000000  0.5519730000000  0.4882810000000 1.0
C      1  0.4583550000000  0.5512860000000  0.4518530000000 1.0
C      1  0.4776390000000  0.5531300000000  0.5588110000000 1.0
C      1  0.4363790000000  0.4750600000000  0.5622340000000 1.0
C      1  0.5836680000000  0.4727470000000  0.5215630000000 1.0
C      1  0.4775480000000  0.4749000000000  0.4145110000000 1.0
C      1  0.5440420000000  0.4631350000000  0.4306010000000 1.0
C      1  0.4210000000000  0.4647470000000  0.4959840000000 1.0
C      1  0.5377100000000  0.4633790000000  0.5693370000000 1.0
C      1  0.5284860000000  0.4805800000000  0.5243960000000 1.0
C      1  0.5079180000000  0.4823480000000  0.4564600000000 1.0
C      1  0.4627660000000  0.4779520000000  0.5130940000000 1.0
C      1  0.4995560000000  0.5374750000000  0.5185860000000 1.0
C      1  0.5162000000000  0.5372970000000  0.4939610000000 1.0
C      1  0.4862050000000  0.5385430000000  0.4918350000000 1.0
C      1  0.5751730000000  0.5139580000000  0.5210990000000 1.0
C      1  0.4831860000000  0.5155460000000  0.4185020000000 1.0
C      1  0.4416950000000  0.5169940000000  0.5524740000000 1.0
C      1  0.4509590000000  0.4758720000000  0.4567630000000 1.0
C      1  0.4868470000000  0.4753140000000  0.5681830000000 1.0
C      1  0.5597910000000  0.4758380000000  0.4774370000000 1.0
C      1  0.4953770000000  0.4224920000000  0.5325870000000 1.0
C      1  0.5385900000000  0.4295950000000  0.4876250000000 1.0
C      1  0.4754080000000  0.4226610000000  0.4813280000000 1.0
C      1  0.4901920000000  0.5136430000000  0.4471470000000 1.0
C      1  0.4592630000000  0.5098910000000  0.5289150000000 1.0
C      1  0.5473830000000  0.5083690000000  0.5217630000000 1.0
C      1  0.5613310000000  0.4766400000000  0.4483600000000 1.0
C      1  0.4277470000000  0.4805690000000  0.4736510000000 1.0
C      1  0.5114260000000  0.4628990000000  0.5817720000000 1.0
C      1  0.5921520000000  0.4969010000000  0.5054130000000 1.0
C      1  0.4596110000000  0.4990580000000  0.4157990000000 1.0
C      1  0.4460740000000  0.5007140000000  0.5757820000000 1.0
C      1  0.5209990000000  0.4260110000000  0.5359040000000 1.0
C      1  0.5231130000000  0.4297510000000  0.4647230000000 1.0
C      1  0.4578100000000  0.4252840000000  0.5011400000000 1.0
C      1  0.5051120000000  0.5605190000000  0.5547900000000 1.0
C      1  0.5447230000000  0.5592650000000  0.4670460000000 1.0
C      1  0.4487210000000  0.5602550000000  0.4776020000000 1.0
C      1  0.5279590000000  0.5769670000000  0.5097530000000 1.0
C      1  0.4947050000000  0.5786500000000  0.4712490000000 1.0
C      1  0.4776400000000  0.5773670000000  0.5181870000000 1.0
C      1  0.4263830000000  0.5371280000000  0.5375980000000 1.0
C      1  0.5637910000000  0.5410290000000  0.5490490000000 1.0
C      1  0.5039660000000  0.5363940000000  0.4138650000000 1.0
C      1  0.5025940000000  0.4893870000000  0.5397980000000 1.0
C      1  0.5306000000000  0.4907770000000  0.4717690000000 1.0
C      1  0.4710380000000  0.4853760000000  0.4851820000000 1.0
C      1  0.4122400000000  0.4882610000000  0.5111800000000 1.0
C      1  0.5516830000000  0.4902790000000  0.5669960000000 1.0
C      1  0.5339980000000  0.4878810000000  0.4179040000000 1.0
C      1  0.5616930000000  0.5390620000000  0.5782900000000 1.0
C      1  0.5320810000000  0.5326630000000  0.4156910000000 1.0
C      1  0.4059240000000  0.5322640000000  0.5155190000000 1.0
C      1  0.4959940000000  0.4713510000000  0.4802030000000 1.0
C      1  0.4889990000000  0.4696590000000  0.5225130000000 1.0
C      1  0.5105190000000  0.4671540000000  0.5042130000000 1.0
C      1  0.5390970000000  0.5183800000000  0.5734850000000 1.0
C      1  0.5480860000000  0.5146610000000  0.4296040000000 1.0
C      1  0.4170300000000  0.5155220000000  0.4937060000000 1.0
C      1  0.4619420000000  0.5596820000000  0.5344010000000 1.0
C      1  0.5512450000000  0.5600890000000  0.5145810000000 1.0
C      1  0.4857280000000  0.5629230000000  0.4489910000000 1.0
C      1  0.4604430000000  0.4585290000000  0.5613840000000 1.0
C      1  0.5696070000000  0.4559580000000  0.5026010000000 1.0
C      1  0.4682340000000  0.4573310000000  0.4355480000000 1.0
C      1  0.5182260000000  0.4524430000000  0.4447120000000 1.0
C      1  0.4454870000000  0.4524280000000  0.5118430000000 1.0
C      1  0.5367100000000  0.4535440000000  0.5401200000000 1.0
C      1  0.5230270000000  0.5752230000000  0.4804730000000 1.0
C      1  0.4710640000000  0.5769540000000  0.4891860000000 1.0
C      1  0.5056030000000  0.5765210000000  0.5292550000000 1.0
C      1  0.5658350000000  0.5239880000000  0.4763830000000 1.0
C      1  0.4594060000000  0.5215810000000  0.4555030000000 1.0
C      1  0.4867470000000  0.5268310000000  0.5725920000000 1.0
C      1  0.5167920000000  0.5089580000000  0.4879640000000 1.0
C      1  0.4878100000000  0.5095220000000  0.4896540000000 1.0
C      1  0.4883240000000  0.5134940000000  0.5305290000000 1.0
C      1  0.5039670000000  0.5403500000000  0.4436700000000 1.0
C      1  0.4491440000000  0.5371090000000  0.5175110000000 1.0
C      1  0.5419550000000  0.5360190000000  0.5303220000000 1.0
C      1  0.4443760000000  0.5007440000000  0.4409070000000 1.0
C      1  0.4747030000000  0.5012140000000  0.5793670000000 1.0
C      1  0.5802040000000  0.4987300000000  0.4788260000000 1.0
C      1  0.4408660000000  0.5330210000000  0.4860310000000 1.0
C      1  0.5142680000000  0.5330540000000  0.5661610000000 1.0
C      1  0.5479100000000  0.5309080000000  0.4546100000000 1.0
C      1  0.4521120000000  0.4410290000000  0.5403580000000 1.0
C      1  0.5584600000000  0.4386030000000  0.5222430000000 1.0
C      1  0.4902250000000  0.4395450000000  0.4392930000000 1.0
END
