TITL C-2441157-2117-1459 0.20737308979855 125000 -23639.9849297312 0 0 189 (C1) n - 1
REM
REM in /home/bkarasulu/work/CARBON/AIRSS/Generating-Clusters/ReaxFF-fromJPCA2015/Units_Real/with-SteepDescent/Higher-Symm
REM
REM
REM
REM
REM
REM ./C.cell (1df0a924f5614ab8850e4351716899ee)
REM
REM compiler GCC version 9.2.1 20190827 (Red Hat 9.2.1-1)
REM options -cpp -mtune=generic -march=x86-64 -g -O0 -fpre-include=/usr/include/finclude/math-vector-fortran.h
REM seed -1309722473 601222596 -117028002 1422422288 -854231792 380466222 2018776766 -989769880 643480526 1092871992 1254578839 2119169700 -441459320 1316725057 173432684 1301987662 342719964 -974491207 -1171209609 -1067434650 435296194 1917619641 -1085579068 1727626792 -1868813862 1326848046 2131882371 41509404 -678106354 1586639586 -1997592211 978721543 -750491023
REM
CELL 1.54180   50.00000   50.00000   50.00000   90.00000   90.00000   90.00000
LATT -1
SFAC C  
C      1  0.5241870000000  0.5723290000000  0.5779500000000 1.0
C      1  0.5543170000000  0.4464490000000  0.5771080000000 1.0
C      1  0.4294510000000  0.4857970000000  0.5772990000000 1.0
C      1  0.4745790000000  0.5709060000000  0.5774460000000 1.0
C      1  0.4462580000000  0.4467620000000  0.5779150000000 1.0
C      1  0.5752650000000  0.4814680000000  0.5787330000000 1.0
C      1  0.4442570000000  0.4532000000000  0.5500990000000 1.0
C      1  0.4861560000000  0.5701830000000  0.5498440000000 1.0
C      1  0.5680280000000  0.4802610000000  0.5491730000000 1.0
C      1  0.5556370000000  0.4545640000000  0.5497700000000 1.0
C      1  0.5141710000000  0.5690180000000  0.5498380000000 1.0
C      1  0.4351450000000  0.4795510000000  0.5481470000000 1.0
C      1  0.5326850000000  0.5459940000000  0.5877730000000 1.0
C      1  0.5148730000000  0.4425650000000  0.5901210000000 1.0
C      1  0.4478810000000  0.5018000000000  0.5921930000000 1.0
C      1  0.4610600000000  0.5473220000000  0.5876090000000 1.0
C      1  0.4857060000000  0.4416280000000  0.5904750000000 1.0
C      1  0.5565190000000  0.5038580000000  0.5875480000000 1.0
C      1  0.3965890000000  0.5188470000000  0.5464660000000 1.0
C      1  0.5673480000000  0.5845250000000  0.5500540000000 1.0
C      1  0.5417470000000  0.3992440000000  0.5493420000000 1.0
C      1  0.6054730000000  0.5162430000000  0.5490730000000 1.0
C      1  0.4344860000000  0.5841010000000  0.5487880000000 1.0
C      1  0.4586010000000  0.3989490000000  0.5504200000000 1.0
C      1  0.4728910000000  0.4993560000000  0.5296310000000 1.0
C      1  0.5098730000000  0.5287460000000  0.5328730000000 1.0
C      1  0.5146960000000  0.4735480000000  0.5252450000000 1.0
C      1  0.5337550000000  0.4935910000000  0.5288560000000 1.0
C      1  0.4831820000000  0.5270850000000  0.5273410000000 1.0
C      1  0.4866050000000  0.4739740000000  0.5274060000000 1.0
C      1  0.4262560000000  0.5573600000000  0.4309810000000 1.0
C      1  0.5863230000000  0.5336480000000  0.4304530000000 1.0
C      1  0.4849290000000  0.4071810000000  0.4313030000000 1.0
C      1  0.5733060000000  0.5584860000000  0.4305830000000 1.0
C      1  0.4125500000000  0.5322540000000  0.4313860000000 1.0
C      1  0.5132900000000  0.4067410000000  0.4310620000000 1.0
C      1  0.4687100000000  0.4979640000000  0.5581100000000 1.0
C      1  0.5119790000000  0.5203060000000  0.5588530000000 1.0
C      1  0.5138260000000  0.4775640000000  0.5686780000000 1.0
C      1  0.5277060000000  0.4976770000000  0.5555950000000 1.0
C      1  0.4845090000000  0.5199780000000  0.5688440000000 1.0
C      1  0.4852440000000  0.4762010000000  0.5674480000000 1.0
C      1  0.3947930000000  0.4709860000000  0.4859170000000 1.0
C      1  0.5301880000000  0.6075170000000  0.4911950000000 1.0
C      1  0.5771440000000  0.4196790000000  0.4823620000000 1.0
C      1  0.6086340000000  0.4715050000000  0.4912000000000 1.0
C      1  0.4693830000000  0.6056720000000  0.4823210000000 1.0
C      1  0.4223420000000  0.4190050000000  0.4887760000000 1.0
C      1  0.4637030000000  0.5064280000000  0.4577180000000 1.0
C      1  0.5130980000000  0.5284850000000  0.4469220000000 1.0
C      1  0.5189040000000  0.4763100000000  0.4539230000000 1.0
C      1  0.5317350000000  0.5079960000000  0.4584320000000 1.0
C      1  0.4836570000000  0.5247630000000  0.4484500000000 1.0
C      1  0.4894480000000  0.4647790000000  0.4564770000000 1.0
C      1  0.6043690000000  0.5211360000000  0.4839640000000 1.0
C      1  0.4693810000000  0.3992190000000  0.4831840000000 1.0
C      1  0.4231850000000  0.5833200000000  0.4822490000000 1.0
C      1  0.3973280000000  0.5220370000000  0.4861590000000 1.0
C      1  0.5337080000000  0.3925840000000  0.4827000000000 1.0
C      1  0.5729150000000  0.5815040000000  0.4830910000000 1.0
C      1  0.4836120000000  0.5620910000000  0.4864610000000 1.0
C      1  0.5557390000000  0.4794370000000  0.4807770000000 1.0
C      1  0.4515050000000  0.4578620000000  0.4835370000000 1.0
C      1  0.5111660000000  0.5635400000000  0.4828500000000 1.0
C      1  0.4383940000000  0.4820320000000  0.4859100000000 1.0
C      1  0.5419530000000  0.4544570000000  0.4867970000000 1.0
C      1  0.5942300000000  0.4591560000000  0.5103300000000 1.0
C      1  0.4177760000000  0.4366540000000  0.5107620000000 1.0
C      1  0.4854490000000  0.6000500000000  0.5073650000000 1.0
C      1  0.4048420000000  0.4598700000000  0.5103020000000 1.0
C      1  0.5792110000000  0.4376780000000  0.5068430000000 1.0
C      1  0.5120070000000  0.6011060000000  0.5105250000000 1.0
C      1  0.5492510000000  0.5423750000000  0.5613220000000 1.0
C      1  0.5202570000000  0.4302040000000  0.5634230000000 1.0
C      1  0.4376780000000  0.5219340000000  0.5488480000000 1.0
C      1  0.4442340000000  0.5453410000000  0.5639180000000 1.0
C      1  0.4797480000000  0.4310300000000  0.5628870000000 1.0
C      1  0.5615280000000  0.5171970000000  0.5627250000000 1.0
C      1  0.4461960000000  0.4083120000000  0.5258870000000 1.0
C      1  0.4473600000000  0.5899470000000  0.5236090000000 1.0
C      1  0.6067330000000  0.4972770000000  0.5268880000000 1.0
C      1  0.5534740000000  0.4092240000000  0.5246830000000 1.0
C      1  0.5517710000000  0.5917840000000  0.5264240000000 1.0
C      1  0.3934150000000  0.4980760000000  0.5264470000000 1.0
C      1  0.4139030000000  0.5381190000000  0.5074170000000 1.0
C      1  0.5695140000000  0.5520380000000  0.4965150000000 1.0
C      1  0.5162940000000  0.4126080000000  0.4905410000000 1.0
C      1  0.5932050000000  0.5379040000000  0.5052230000000 1.0
C      1  0.4298560000000  0.5574390000000  0.4928500000000 1.0
C      1  0.4902060000000  0.4126460000000  0.4977620000000 1.0
C      1  0.4090080000000  0.5248590000000  0.4607870000000 1.0
C      1  0.5658080000000  0.5717490000000  0.4568340000000 1.0
C      1  0.5300300000000  0.4025540000000  0.4548350000000 1.0
C      1  0.5904270000000  0.5201710000000  0.4575400000000 1.0
C      1  0.4312340000000  0.5728280000000  0.4558340000000 1.0
C      1  0.4712830000000  0.4120990000000  0.4573350000000 1.0
C      1  0.4823920000000  0.5249620000000  0.5987630000000 1.0
C      1  0.5306400000000  0.5022320000000  0.6011670000000 1.0
C      1  0.4845910000000  0.4717580000000  0.5981600000000 1.0
C      1  0.5163030000000  0.5262540000000  0.6003980000000 1.0
C      1  0.4699700000000  0.4980800000000  0.6066720000000 1.0
C      1  0.5169560000000  0.4732390000000  0.5980640000000 1.0
C      1  0.5807910000000  0.4887440000000  0.4334540000000 1.0
C      1  0.4494330000000  0.4366020000000  0.4323280000000 1.0
C      1  0.4665280000000  0.5779740000000  0.4338670000000 1.0
C      1  0.4155150000000  0.4888850000000  0.4316720000000 1.0
C      1  0.5511500000000  0.4296590000000  0.4340320000000 1.0
C      1  0.5316700000000  0.5747720000000  0.4330630000000 1.0
C      1  0.4411340000000  0.5198400000000  0.4687440000000 1.0
C      1  0.5575540000000  0.5458720000000  0.4704220000000 1.0
C      1  0.5198990000000  0.4336700000000  0.4711890000000 1.0
C      1  0.5584810000000  0.5178100000000  0.4651790000000 1.0
C      1  0.4484960000000  0.5476350000000  0.4730250000000 1.0
C      1  0.4932220000000  0.4365870000000  0.4625080000000 1.0
C      1  0.4167970000000  0.5110700000000  0.5668710000000 1.0
C      1  0.5490550000000  0.5881620000000  0.5732300000000 1.0
C      1  0.5467880000000  0.4195830000000  0.5705010000000 1.0
C      1  0.5987960000000  0.4995020000000  0.5728730000000 1.0
C      1  0.4524430000000  0.5903660000000  0.5716650000000 1.0
C      1  0.4538820000000  0.4197780000000  0.5719030000000 1.0
C      1  0.5847350000000  0.4425390000000  0.4621660000000 1.0
C      1  0.4067420000000  0.4598070000000  0.4617430000000 1.0
C      1  0.5210050000000  0.6052010000000  0.4650450000000 1.0
C      1  0.4177540000000  0.4321420000000  0.4636020000000 1.0
C      1  0.6018280000000  0.4659270000000  0.4653960000000 1.0
C      1  0.4921400000000  0.6002910000000  0.4620880000000 1.0
C      1  0.6128030000000  0.4981120000000  0.4989420000000 1.0
C      1  0.4447740000000  0.4020480000000  0.4974770000000 1.0
C      1  0.4440130000000  0.5978520000000  0.4964010000000 1.0
C      1  0.3907400000000  0.4975350000000  0.4973230000000 1.0
C      1  0.5567360000000  0.4026620000000  0.4969690000000 1.0
C      1  0.5562700000000  0.5985680000000  0.4987080000000 1.0
C      1  0.5149880000000  0.4499700000000  0.4055390000000 1.0
C      1  0.4497020000000  0.5127650000000  0.4023570000000 1.0
C      1  0.5365460000000  0.5378890000000  0.4020160000000 1.0
C      1  0.4865030000000  0.4499530000000  0.4037310000000 1.0
C      1  0.5493800000000  0.5122690000000  0.4016520000000 1.0
C      1  0.4630780000000  0.5379910000000  0.4029730000000 1.0
C      1  0.4248830000000  0.5110560000000  0.4165040000000 1.0
C      1  0.5490370000000  0.5600170000000  0.4157920000000 1.0
C      1  0.5274490000000  0.4275130000000  0.4179070000000 1.0
C      1  0.5748340000000  0.5113710000000  0.4160570000000 1.0
C      1  0.4514490000000  0.5596950000000  0.4178970000000 1.0
C      1  0.4719320000000  0.4277580000000  0.4157210000000 1.0
C      1  0.5573070000000  0.4121040000000  0.4554640000000 1.0
C      1  0.3990510000000  0.4989710000000  0.4521430000000 1.0
C      1  0.5428430000000  0.5932240000000  0.4506230000000 1.0
C      1  0.4395730000000  0.4179670000000  0.4512950000000 1.0
C      1  0.6020260000000  0.4927980000000  0.4529170000000 1.0
C      1  0.4523630000000  0.5915560000000  0.4542280000000 1.0
C      1  0.5246610000000  0.5878270000000  0.5311900000000 1.0
C      1  0.5638010000000  0.4349530000000  0.5294240000000 1.0
C      1  0.4105510000000  0.4766250000000  0.5325920000000 1.0
C      1  0.4744440000000  0.5880250000000  0.5298110000000 1.0
C      1  0.4347710000000  0.4333900000000  0.5313490000000 1.0
C      1  0.5901770000000  0.4756710000000  0.5320330000000 1.0
C      1  0.5144910000000  0.4753890000000  0.4207260000000 1.0
C      1  0.4731540000000  0.4987070000000  0.4094650000000 1.0
C      1  0.5146850000000  0.5246800000000  0.4162240000000 1.0
C      1  0.4841820000000  0.4744860000000  0.4198820000000 1.0
C      1  0.5253910000000  0.4991530000000  0.4090700000000 1.0
C      1  0.4845590000000  0.5243030000000  0.4172160000000 1.0
C      1  0.4484940000000  0.5003870000000  0.5065550000000 1.0
C      1  0.5257350000000  0.5468470000000  0.5033140000000 1.0
C      1  0.5217380000000  0.4521370000000  0.5081890000000 1.0
C      1  0.5503490000000  0.5038470000000  0.5064970000000 1.0
C      1  0.4723430000000  0.5428010000000  0.5051230000000 1.0
C      1  0.4742710000000  0.4557360000000  0.5071710000000 1.0
C      1  0.4859270000000  0.5232590000000  0.4868730000000 1.0
C      1  0.5258710000000  0.5026220000000  0.4873000000000 1.0
C      1  0.4866080000000  0.4771210000000  0.4843030000000 1.0
C      1  0.5107140000000  0.5225610000000  0.4956990000000 1.0
C      1  0.4730040000000  0.5009430000000  0.4839830000000 1.0
C      1  0.5132660000000  0.4796520000000  0.4829610000000 1.0
C      1  0.5608890000000  0.4785650000000  0.4520690000000 1.0
C      1  0.4512440000000  0.4568870000000  0.4537210000000 1.0
C      1  0.4894460000000  0.5740390000000  0.4494600000000 1.0
C      1  0.4300790000000  0.4745050000000  0.4523410000000 1.0
C      1  0.5637600000000  0.4515620000000  0.4449130000000 1.0
C      1  0.5137570000000  0.5588900000000  0.4514810000000 1.0
C      1  0.5920340000000  0.5382290000000  0.5336960000000 1.0
C      1  0.4861910000000  0.4071780000000  0.5476190000000 1.0
C      1  0.4211830000000  0.5590990000000  0.5524430000000 1.0
C      1  0.4031090000000  0.5444420000000  0.5353700000000 1.0
C      1  0.5138310000000  0.4057860000000  0.5501320000000 1.0
C      1  0.5731100000000  0.5552560000000  0.5489180000000 1.0
C      1  0.4357830000000  0.5223130000000  0.5202620000000 1.0
C      1  0.5505720000000  0.5336570000000  0.5089170000000 1.0
C      1  0.4945990000000  0.4360920000000  0.5132390000000 1.0
END
