TITL C-2441167-4473-136 0.0952972246994647 125000 -19234.5985779029 0 0 140 (C1) n - 1
REM
REM in /home/bkarasulu/work/CARBON/AIRSS/Generating-Clusters/ReaxFF-fromJPCA2015/Units_Real/with-SteepDescent/Higher-Symm
REM
REM
REM
REM
REM
REM ./C.cell (1df0a924f5614ab8850e4351716899ee)
REM
REM compiler GCC version 9.2.1 20190827 (Red Hat 9.2.1-1)
REM options -cpp -mtune=generic -march=x86-64 -g -O0 -fpre-include=/usr/include/finclude/math-vector-fortran.h
REM seed -1593725087 520012600 269304408 -270100341 -1272777577 1589957627 -1960702409 1455745759 1355072835 2109800451 2097583808 1985471748 1564579623 -612478780 946199261 706559003 -716381161 86777569 -1674473362 -334438997 152521669 518822386 -976295254 -1208938270 1221587904 -1830090870 -2002096665 2117575430 -1643036558 -773927984 1790786059 1276909266 -1011629517
REM
CELL 1.54180   50.00000   50.00000   50.00000   90.00000   90.00000   90.00000
LATT -1
SFAC C  
C      1  0.5659500000000  0.5649570000000  0.4700930000000 1.0
C      1  0.5885720000000  0.4765160000000  0.4674170000000 1.0
C      1  0.5195010000000  0.4171670000000  0.4697080000000 1.0
C      1  0.4369990000000  0.4359720000000  0.4685510000000 1.0
C      1  0.4122930000000  0.5231900000000  0.4737620000000 1.0
C      1  0.4702110000000  0.5864530000000  0.4736330000000 1.0
C      1  0.5673570000000  0.4350480000000  0.5263390000000 1.0
C      1  0.5891440000000  0.5264120000000  0.5274660000000 1.0
C      1  0.5193950000000  0.5840860000000  0.5281500000000 1.0
C      1  0.4347100000000  0.5688040000000  0.5275370000000 1.0
C      1  0.4106370000000  0.4778960000000  0.5239140000000 1.0
C      1  0.4775370000000  0.4107580000000  0.5274290000000 1.0
C      1  0.4643610000000  0.5589090000000  0.4325640000000 1.0
C      1  0.5298560000000  0.5569470000000  0.4332990000000 1.0
C      1  0.5685920000000  0.5025290000000  0.4318740000000 1.0
C      1  0.5337190000000  0.4440290000000  0.4303540000000 1.0
C      1  0.4668040000000  0.4390840000000  0.4311990000000 1.0
C      1  0.4330630000000  0.4990050000000  0.4327230000000 1.0
C      1  0.4652230000000  0.4454430000000  0.5645550000000 1.0
C      1  0.5328160000000  0.4390060000000  0.5644050000000 1.0
C      1  0.5656320000000  0.4985610000000  0.5646060000000 1.0
C      1  0.5357650000000  0.5607990000000  0.5675550000000 1.0
C      1  0.4680230000000  0.5589970000000  0.5657750000000 1.0
C      1  0.4298620000000  0.5033720000000  0.5638160000000 1.0
C      1  0.5009110000000  0.3995150000000  0.4836030000000 1.0
C      1  0.4135950000000  0.4452970000000  0.4827410000000 1.0
C      1  0.4191970000000  0.5498950000000  0.4848190000000 1.0
C      1  0.4925480000000  0.6000220000000  0.4846670000000 1.0
C      1  0.5878020000000  0.5523530000000  0.4842790000000 1.0
C      1  0.5905040000000  0.4529660000000  0.4835170000000 1.0
C      1  0.4995760000000  0.6001090000000  0.5139130000000 1.0
C      1  0.4127560000000  0.5563530000000  0.5148400000000 1.0
C      1  0.4104380000000  0.4522610000000  0.5127320000000 1.0
C      1  0.4984480000000  0.3963600000000  0.5131790000000 1.0
C      1  0.5891290000000  0.4487200000000  0.5129900000000 1.0
C      1  0.5913170000000  0.5520230000000  0.5140120000000 1.0
C      1  0.5892870000000  0.5298240000000  0.4665620000000 1.0
C      1  0.5706980000000  0.4396990000000  0.4656850000000 1.0
C      1  0.4798280000000  0.4062850000000  0.4650920000000 1.0
C      1  0.4113620000000  0.4687230000000  0.4653340000000 1.0
C      1  0.4321500000000  0.5722740000000  0.4610450000000 1.0
C      1  0.5146690000000  0.5937990000000  0.4654610000000 1.0
C      1  0.5894810000000  0.4703310000000  0.5327250000000 1.0
C      1  0.5735940000000  0.5648370000000  0.5332720000000 1.0
C      1  0.4794110000000  0.5931360000000  0.5336620000000 1.0
C      1  0.4098820000000  0.5329150000000  0.5316620000000 1.0
C      1  0.4268590000000  0.4391080000000  0.5337990000000 1.0
C      1  0.5178680000000  0.4069990000000  0.5318630000000 1.0
C      1  0.5299830000000  0.4802280000000  0.5954600000000 1.0
C      1  0.5034580000000  0.4646940000000  0.5945000000000 1.0
C      1  0.4676960000000  0.4842600000000  0.5963570000000 1.0
C      1  0.4652530000000  0.5154500000000  0.5951260000000 1.0
C      1  0.4985940000000  0.5379980000000  0.5953600000000 1.0
C      1  0.5321920000000  0.5205410000000  0.5947400000000 1.0
C      1  0.5322890000000  0.5153980000000  0.4022430000000 1.0
C      1  0.4979240000000  0.5363790000000  0.4012780000000 1.0
C      1  0.4714850000000  0.5220090000000  0.4015570000000 1.0
C      1  0.4704240000000  0.4810800000000  0.4018090000000 1.0
C      1  0.4959850000000  0.4649820000000  0.4023130000000 1.0
C      1  0.5311900000000  0.4848130000000  0.4009320000000 1.0
C      1  0.4427640000000  0.5544800000000  0.5521720000000 1.0
C      1  0.5167600000000  0.5799030000000  0.5572970000000 1.0
C      1  0.5735800000000  0.5238160000000  0.5528230000000 1.0
C      1  0.5583720000000  0.4459410000000  0.5522460000000 1.0
C      1  0.4825400000000  0.4250190000000  0.5528790000000 1.0
C      1  0.4227620000000  0.4781110000000  0.5502340000000 1.0
C      1  0.4413140000000  0.4468000000000  0.4428050000000 1.0
C      1  0.5161410000000  0.4231550000000  0.4413190000000 1.0
C      1  0.5749340000000  0.4758980000000  0.4420530000000 1.0
C      1  0.5561720000000  0.5526670000000  0.4452800000000 1.0
C      1  0.4809640000000  0.5758940000000  0.4482860000000 1.0
C      1  0.4236620000000  0.5227900000000  0.4481580000000 1.0
C      1  0.4873740000000  0.5795630000000  0.5582840000000 1.0
C      1  0.5616180000000  0.5508480000000  0.5565500000000 1.0
C      1  0.5728710000000  0.4709490000000  0.5565890000000 1.0
C      1  0.5109880000000  0.4208840000000  0.5565420000000 1.0
C      1  0.4373870000000  0.4527470000000  0.5568080000000 1.0
C      1  0.4251970000000  0.5311890000000  0.5563140000000 1.0
C      1  0.4870820000000  0.4201200000000  0.4406500000000 1.0
C      1  0.5605380000000  0.4506740000000  0.4403070000000 1.0
C      1  0.5734280000000  0.5292650000000  0.4428440000000 1.0
C      1  0.5099840000000  0.5770290000000  0.4423810000000 1.0
C      1  0.4373670000000  0.5518680000000  0.4426820000000 1.0
C      1  0.4254920000000  0.4714710000000  0.4399940000000 1.0
C      1  0.4943470000000  0.5274780000000  0.4711190000000 1.0
C      1  0.5355340000000  0.5261120000000  0.4879710000000 1.0
C      1  0.5281410000000  0.4904800000000  0.4689850000000 1.0
C      1  0.5107710000000  0.4451700000000  0.4747600000000 1.0
C      1  0.4801970000000  0.4792970000000  0.4718940000000 1.0
C      1  0.4553520000000  0.5128790000000  0.4747620000000 1.0
C      1  0.4935010000000  0.4739320000000  0.5186810000000 1.0
C      1  0.5331840000000  0.4706360000000  0.5244990000000 1.0
C      1  0.5281780000000  0.5126750000000  0.5144520000000 1.0
C      1  0.5126870000000  0.5552060000000  0.5259120000000 1.0
C      1  0.4801210000000  0.5205910000000  0.5210080000000 1.0
C      1  0.4561520000000  0.4878680000000  0.5245120000000 1.0
C      1  0.5343100000000  0.5379770000000  0.5290820000000 1.0
C      1  0.5474530000000  0.4905130000000  0.5229620000000 1.0
C      1  0.5138430000000  0.4540920000000  0.5250870000000 1.0
C      1  0.4672860000000  0.4661140000000  0.5235370000000 1.0
C      1  0.4519500000000  0.5130290000000  0.5247980000000 1.0
C      1  0.4879250000000  0.5468890000000  0.5225040000000 1.0
C      1  0.5313680000000  0.4626120000000  0.4747830000000 1.0
C      1  0.5500200000000  0.5081530000000  0.4724490000000 1.0
C      1  0.5158690000000  0.5436850000000  0.4770090000000 1.0
C      1  0.4667520000000  0.5349240000000  0.4741070000000 1.0
C      1  0.4529330000000  0.4880370000000  0.4729420000000 1.0
C      1  0.4848060000000  0.4526800000000  0.4749670000000 1.0
C      1  0.5796150000000  0.5052120000000  0.4797270000000 1.0
C      1  0.5505560000000  0.4454340000000  0.4829550000000 1.0
C      1  0.4639810000000  0.4287050000000  0.4797760000000 1.0
C      1  0.4283280000000  0.4822780000000  0.4838900000000 1.0
C      1  0.4483260000000  0.5487370000000  0.4892060000000 1.0
C      1  0.5218760000000  0.5708190000000  0.4821900000000 1.0
C      1  0.5746340000000  0.4874080000000  0.5185460000000 1.0
C      1  0.5515120000000  0.5579490000000  0.5168250000000 1.0
C      1  0.4728790000000  0.5697170000000  0.5187740000000 1.0
C      1  0.4262170000000  0.5174350000000  0.5166070000000 1.0
C      1  0.4509290000000  0.4438310000000  0.5187670000000 1.0
C      1  0.5220830000000  0.4283210000000  0.5158460000000 1.0
C      1  0.4566800000000  0.5018600000000  0.4162950000000 1.0
C      1  0.4794010000000  0.5395500000000  0.4210950000000 1.0
C      1  0.5215130000000  0.5372690000000  0.4147050000000 1.0
C      1  0.5444220000000  0.4998830000000  0.4203240000000 1.0
C      1  0.5203270000000  0.4631590000000  0.4146550000000 1.0
C      1  0.4766300000000  0.4625480000000  0.4214240000000 1.0
C      1  0.4541850000000  0.4994960000000  0.5764180000000 1.0
C      1  0.4789490000000  0.4633690000000  0.5814730000000 1.0
C      1  0.5235930000000  0.4621330000000  0.5758970000000 1.0
C      1  0.5428460000000  0.5005250000000  0.5821920000000 1.0
C      1  0.5208670000000  0.5396210000000  0.5813770000000 1.0
C      1  0.4766380000000  0.5369450000000  0.5822490000000 1.0
C      1  0.5486040000000  0.5715930000000  0.4918020000000 1.0
C      1  0.5476530000000  0.4299630000000  0.5053580000000 1.0
C      1  0.4142610000000  0.5012960000000  0.4987750000000 1.0
C      1  0.5868510000000  0.5064740000000  0.5075880000000 1.0
C      1  0.4621680000000  0.4218130000000  0.5073520000000 1.0
C      1  0.4553130000000  0.5722170000000  0.4982170000000 1.0
C      1  0.5004130000000  0.4997670000000  0.4693060000000 1.0
C      1  0.5003290000000  0.5014830000000  0.5189120000000 1.0
END
