TITL C-2441164-471-195 0.0512644736110696 125000 -25293.8761952491 0 0 176 (C1) n - 1
REM
REM in /home/bkarasulu/work/CARBON/AIRSS/Generating-Clusters/ReaxFF-fromJPCA2015/Units_Real/with-SteepDescent/Higher-Symm
REM
REM
REM
REM
REM
REM ./C.cell (1df0a924f5614ab8850e4351716899ee)
REM
REM compiler GCC version 9.2.1 20190827 (Red Hat 9.2.1-1)
REM options -cpp -mtune=generic -march=x86-64 -g -O0 -fpre-include=/usr/include/finclude/math-vector-fortran.h
REM seed -1770375614 -1308778275 15041410 -1123883398 1286837235 772031216 -30319847 -2085285936 1736777359 1291200865 1268933414 723338722 -249580857 -907191720 1341023992 1909439689 -984737398 -399708876 -2101652523 -202394647 -1696012174 -1352025651 -619080547 83505722 -1333773930 445004935 1356782351 623650277 -1700328295 350137784 1037649299 -103653471 402559738
REM
CELL 1.54180   50.00000   50.00000   50.00000   90.00000   90.00000   90.00000
LATT -1
SFAC C  
C      1  0.4500110000000  0.4109270000000  0.5220200000000 1.0
C      1  0.4986010000000  0.4017580000000  0.5296090000000 1.0
C      1  0.5464440000000  0.4090830000000  0.5313220000000 1.0
C      1  0.5447370000000  0.4112670000000  0.4790700000000 1.0
C      1  0.5046750000000  0.4112020000000  0.4479130000000 1.0
C      1  0.4610360000000  0.4125970000000  0.4715060000000 1.0
C      1  0.4527130000000  0.5889430000000  0.5206170000000 1.0
C      1  0.4949920000000  0.5891740000000  0.5515730000000 1.0
C      1  0.5436900000000  0.5905930000000  0.5317030000000 1.0
C      1  0.5376850000000  0.5872080000000  0.4832710000000 1.0
C      1  0.5042970000000  0.5888490000000  0.4469260000000 1.0
C      1  0.4574810000000  0.5879000000000  0.4692040000000 1.0
C      1  0.5786480000000  0.4459900000000  0.5371440000000 1.0
C      1  0.5702510000000  0.4458980000000  0.4528420000000 1.0
C      1  0.4934650000000  0.4459850000000  0.4138500000000 1.0
C      1  0.4223360000000  0.4450900000000  0.4628110000000 1.0
C      1  0.4277980000000  0.4458730000000  0.5497480000000 1.0
C      1  0.5052200000000  0.4472610000000  0.5853630000000 1.0
C      1  0.5785520000000  0.5554650000000  0.5368240000000 1.0
C      1  0.5724870000000  0.5539690000000  0.4521780000000 1.0
C      1  0.4938070000000  0.5540120000000  0.4127260000000 1.0
C      1  0.4211410000000  0.5537220000000  0.4608920000000 1.0
C      1  0.4281540000000  0.5544320000000  0.5479130000000 1.0
C      1  0.5057700000000  0.5540000000000  0.5864520000000 1.0
C      1  0.5779850000000  0.4856180000000  0.5671450000000 1.0
C      1  0.5982480000000  0.4854250000000  0.4655390000000 1.0
C      1  0.5191320000000  0.4857060000000  0.3978750000000 1.0
C      1  0.4208500000000  0.4851890000000  0.4322960000000 1.0
C      1  0.4023440000000  0.4857390000000  0.5349640000000 1.0
C      1  0.4803090000000  0.4862630000000  0.6023400000000 1.0
C      1  0.5779580000000  0.5149360000000  0.5668510000000 1.0
C      1  0.5977100000000  0.5147060000000  0.4650950000000 1.0
C      1  0.5186460000000  0.5147470000000  0.3979250000000 1.0
C      1  0.4208080000000  0.5142980000000  0.4325290000000 1.0
C      1  0.4020920000000  0.5149740000000  0.5345860000000 1.0
C      1  0.4804920000000  0.5152470000000  0.6016860000000 1.0
C      1  0.5560060000000  0.5581850000000  0.4765890000000 1.0
C      1  0.5082420000000  0.5597240000000  0.4386050000000 1.0
C      1  0.4508500000000  0.5589710000000  0.4621790000000 1.0
C      1  0.4439290000000  0.5597330000000  0.5224660000000 1.0
C      1  0.4918300000000  0.5605090000000  0.5605960000000 1.0
C      1  0.5492520000000  0.5615350000000  0.5373880000000 1.0
C      1  0.5533740000000  0.4404700000000  0.4769910000000 1.0
C      1  0.5069390000000  0.4402890000000  0.4399710000000 1.0
C      1  0.4529980000000  0.4405530000000  0.4645160000000 1.0
C      1  0.4427160000000  0.4401070000000  0.5244190000000 1.0
C      1  0.4909530000000  0.4471020000000  0.5595360000000 1.0
C      1  0.5498540000000  0.4383490000000  0.5377140000000 1.0
C      1  0.4851450000000  0.5189800000000  0.5371060000000 1.0
C      1  0.5247560000000  0.5076210000000  0.5276850000000 1.0
C      1  0.5339740000000  0.5171710000000  0.5014320000000 1.0
C      1  0.5158740000000  0.5167590000000  0.4623370000000 1.0
C      1  0.4759990000000  0.5152540000000  0.4689380000000 1.0
C      1  0.4564120000000  0.5125700000000  0.5108060000000 1.0
C      1  0.4883790000000  0.4924100000000  0.5466120000000 1.0
C      1  0.5279820000000  0.4793740000000  0.5318190000000 1.0
C      1  0.5425540000000  0.4873890000000  0.4881830000000 1.0
C      1  0.5101470000000  0.4885680000000  0.4548910000000 1.0
C      1  0.4662370000000  0.4874060000000  0.4677960000000 1.0
C      1  0.4606730000000  0.4833140000000  0.5076170000000 1.0
C      1  0.5402530000000  0.5441070000000  0.5634840000000 1.0
C      1  0.5772390000000  0.5460570000000  0.4963210000000 1.0
C      1  0.5372890000000  0.5450200000000  0.4307060000000 1.0
C      1  0.4579660000000  0.5451140000000  0.4333530000000 1.0
C      1  0.4214710000000  0.5443270000000  0.5019970000000 1.0
C      1  0.4627740000000  0.5469740000000  0.5704730000000 1.0
C      1  0.5437670000000  0.4514280000000  0.5686340000000 1.0
C      1  0.5785300000000  0.4563030000000  0.4962630000000 1.0
C      1  0.5361750000000  0.4537020000000  0.4293960000000 1.0
C      1  0.4566240000000  0.4535650000000  0.4327730000000 1.0
C      1  0.4193860000000  0.4531930000000  0.5046030000000 1.0
C      1  0.4629350000000  0.4559110000000  0.5702940000000 1.0
C      1  0.5279490000000  0.4579900000000  0.4880940000000 1.0
C      1  0.5034550000000  0.4568890000000  0.4701450000000 1.0
C      1  0.4763340000000  0.4567430000000  0.4814170000000 1.0
C      1  0.4723780000000  0.4558530000000  0.5138130000000 1.0
C      1  0.4960540000000  0.4508970000000  0.5316570000000 1.0
C      1  0.5239500000000  0.4530310000000  0.5191970000000 1.0
C      1  0.5291270000000  0.5442980000000  0.4881760000000 1.0
C      1  0.5056520000000  0.5436790000000  0.4683100000000 1.0
C      1  0.4748680000000  0.5426590000000  0.4810600000000 1.0
C      1  0.4707850000000  0.5447050000000  0.5108310000000 1.0
C      1  0.4951090000000  0.5454040000000  0.5298880000000 1.0
C      1  0.5215970000000  0.5559240000000  0.5155080000000 1.0
C      1  0.5589870000000  0.5680930000000  0.4303550000000 1.0
C      1  0.4680750000000  0.5679530000000  0.4140720000000 1.0
C      1  0.4098010000000  0.5676320000000  0.4839150000000 1.0
C      1  0.4406600000000  0.5696860000000  0.5694090000000 1.0
C      1  0.5317250000000  0.5668610000000  0.5843020000000 1.0
C      1  0.5905050000000  0.5696550000000  0.5142850000000 1.0
C      1  0.5584790000000  0.4309730000000  0.4308160000000 1.0
C      1  0.4681700000000  0.4314140000000  0.4129430000000 1.0
C      1  0.4072860000000  0.4320370000000  0.4839950000000 1.0
C      1  0.4423960000000  0.4313860000000  0.5703970000000 1.0
C      1  0.5288200000000  0.4299150000000  0.5865360000000 1.0
C      1  0.5902350000000  0.4331580000000  0.5131890000000 1.0
C      1  0.5617600000000  0.4789760000000  0.5081680000000 1.0
C      1  0.5353450000000  0.4767670000000  0.4484530000000 1.0
C      1  0.4725110000000  0.4765080000000  0.4426800000000 1.0
C      1  0.4378920000000  0.4750100000000  0.4933550000000 1.0
C      1  0.4630440000000  0.4797570000000  0.5487380000000 1.0
C      1  0.5258550000000  0.4732820000000  0.5580370000000 1.0
C      1  0.5595540000000  0.5262490000000  0.5113420000000 1.0
C      1  0.5414630000000  0.5224270000000  0.4529900000000 1.0
C      1  0.4787200000000  0.5217450000000  0.4415540000000 1.0
C      1  0.4378640000000  0.5208700000000  0.4900290000000 1.0
C      1  0.4613660000000  0.5254690000000  0.5489030000000 1.0
C      1  0.5224840000000  0.5198100000000  0.5532530000000 1.0
C      1  0.4553600000000  0.4752880000000  0.5921070000000 1.0
C      1  0.5569460000000  0.4738400000000  0.5839310000000 1.0
C      1  0.6017500000000  0.4744120000000  0.4923140000000 1.0
C      1  0.5437880000000  0.4740620000000  0.4083450000000 1.0
C      1  0.4422360000000  0.4740310000000  0.4158270000000 1.0
C      1  0.3985580000000  0.4744860000000  0.5081030000000 1.0
C      1  0.4555200000000  0.5264720000000  0.5910210000000 1.0
C      1  0.5557970000000  0.5264470000000  0.5819390000000 1.0
C      1  0.5995960000000  0.5260080000000  0.4918450000000 1.0
C      1  0.5434670000000  0.5260150000000  0.4090670000000 1.0
C      1  0.4428290000000  0.5257800000000  0.4167750000000 1.0
C      1  0.3989750000000  0.5257680000000  0.5074740000000 1.0
C      1  0.5818730000000  0.4716750000000  0.4444510000000 1.0
C      1  0.4922950000000  0.4721150000000  0.4002710000000 1.0
C      1  0.4099360000000  0.4714260000000  0.4568390000000 1.0
C      1  0.4171570000000  0.4720940000000  0.5567450000000 1.0
C      1  0.5073400000000  0.4730670000000  0.5996940000000 1.0
C      1  0.5899290000000  0.4719530000000  0.5435910000000 1.0
C      1  0.5826380000000  0.5281930000000  0.4433320000000 1.0
C      1  0.4922360000000  0.5281980000000  0.3997970000000 1.0
C      1  0.4091390000000  0.5278230000000  0.4562140000000 1.0
C      1  0.4168690000000  0.5290090000000  0.5561670000000 1.0
C      1  0.5071620000000  0.5282060000000  0.5994110000000 1.0
C      1  0.5898380000000  0.5291890000000  0.5433470000000 1.0
C      1  0.5677900000000  0.4854980000000  0.4207840000000 1.0
C      1  0.4646160000000  0.4857490000000  0.4007600000000 1.0
C      1  0.3965150000000  0.4854970000000  0.4809410000000 1.0
C      1  0.4310090000000  0.4861770000000  0.5795460000000 1.0
C      1  0.5350200000000  0.4859760000000  0.5992290000000 1.0
C      1  0.6039030000000  0.4855120000000  0.5200530000000 1.0
C      1  0.5681740000000  0.5144010000000  0.4207250000000 1.0
C      1  0.4650660000000  0.5145900000000  0.4007930000000 1.0
C      1  0.3964400000000  0.5143370000000  0.4802800000000 1.0
C      1  0.4310350000000  0.5152930000000  0.5792320000000 1.0
C      1  0.5341890000000  0.5149580000000  0.5985580000000 1.0
C      1  0.6040310000000  0.5153700000000  0.5190470000000 1.0
C      1  0.4670240000000  0.5915960000000  0.4288800000000 1.0
C      1  0.4226320000000  0.5910880000000  0.4918690000000 1.0
C      1  0.4547630000000  0.5925720000000  0.5620340000000 1.0
C      1  0.5318290000000  0.5914850000000  0.5712010000000 1.0
C      1  0.5790620000000  0.5929500000000  0.5059540000000 1.0
C      1  0.5466840000000  0.5909830000000  0.4393550000000 1.0
C      1  0.4673250000000  0.4073360000000  0.4266370000000 1.0
C      1  0.4228400000000  0.4095180000000  0.4864340000000 1.0
C      1  0.4570840000000  0.4095430000000  0.5622490000000 1.0
C      1  0.5268720000000  0.4083630000000  0.5700320000000 1.0
C      1  0.5778920000000  0.4096850000000  0.5042130000000 1.0
C      1  0.5448280000000  0.4075940000000  0.4374910000000 1.0
C      1  0.5285670000000  0.6019710000000  0.4570530000000 1.0
C      1  0.4777040000000  0.6019950000000  0.4525420000000 1.0
C      1  0.4482380000000  0.6020230000000  0.4943180000000 1.0
C      1  0.4704300000000  0.6024240000000  0.5411260000000 1.0
C      1  0.5218480000000  0.6027860000000  0.5476260000000 1.0
C      1  0.5529520000000  0.6021630000000  0.5057800000000 1.0
C      1  0.5287410000000  0.3969250000000  0.4577250000000 1.0
C      1  0.4775500000000  0.3982160000000  0.4511590000000 1.0
C      1  0.4475890000000  0.3989570000000  0.4945500000000 1.0
C      1  0.4689500000000  0.3980300000000  0.5405660000000 1.0
C      1  0.5250070000000  0.3953960000000  0.5460880000000 1.0
C      1  0.5529510000000  0.3972750000000  0.5040200000000 1.0
C      1  0.4902130000000  0.4960000000000  0.4325140000000 1.0
C      1  0.4465610000000  0.5024180000000  0.5396830000000 1.0
C      1  0.4365500000000  0.4964240000000  0.4741100000000 1.0
C      1  0.5665790000000  0.5021510000000  0.5237320000000 1.0
C      1  0.5534090000000  0.4961360000000  0.4599960000000 1.0
C      1  0.5102280000000  0.4958880000000  0.5664660000000 1.0
C      1  0.5007870000000  0.4134580000000  0.5067840000000 1.0
C      1  0.5131420000000  0.5800300000000  0.5001800000000 1.0
END
