TITL C-2441157-2117-139 0.096708911227158 125000 -24831.3878178367 0 0 183 (C1) n - 1
REM
REM in /home/bkarasulu/work/CARBON/AIRSS/Generating-Clusters/ReaxFF-fromJPCA2015/Units_Real/with-SteepDescent/Higher-Symm
REM
REM
REM
REM
REM
REM ./C.cell (1df0a924f5614ab8850e4351716899ee)
REM
REM compiler GCC version 9.2.1 20190827 (Red Hat 9.2.1-1)
REM options -cpp -mtune=generic -march=x86-64 -g -O0 -fpre-include=/usr/include/finclude/math-vector-fortran.h
REM seed 783644081 -2111947647 1545348121 -325333554 -509939896 926056534 1573230970 -560222319 -843828390 -380216597 -1657165359 1511507644 263426899 1183052033 -2116912500 843900889 515652116 -2035417947 -1270962664 1452689743 -739789387 -169715367 -305226247 -314464376 -577368579 1313627509 1578484910 295642918 -1173879710 465734745 1474116192 -861063365 -546017216
REM
CELL 1.54180   50.00000   50.00000   50.00000   90.00000   90.00000   90.00000
LATT -1
SFAC C  
C      1  0.4199980000000  0.5578790000000  0.5426840000000 1.0
C      1  0.5795280000000  0.4440380000000  0.4575280000000 1.0
C      1  0.4294990000000  0.5817080000000  0.5286190000000 1.0
C      1  0.5681930000000  0.4217010000000  0.4734290000000 1.0
C      1  0.5349970000000  0.4214390000000  0.5681230000000 1.0
C      1  0.4648350000000  0.5788750000000  0.4344370000000 1.0
C      1  0.4101230000000  0.4800760000000  0.5556880000000 1.0
C      1  0.5889310000000  0.5207890000000  0.4458360000000 1.0
C      1  0.4965060000000  0.4816040000000  0.4229010000000 1.0
C      1  0.5030640000000  0.5165540000000  0.5808000000000 1.0
C      1  0.4658300000000  0.5197430000000  0.4719720000000 1.0
C      1  0.5416720000000  0.4784600000000  0.5317020000000 1.0
C      1  0.5068060000000  0.5259170000000  0.5336710000000 1.0
C      1  0.4901150000000  0.4727060000000  0.4681590000000 1.0
C      1  0.5275950000000  0.6026480000000  0.4754290000000 1.0
C      1  0.4737840000000  0.3959430000000  0.5282510000000 1.0
C      1  0.4972870000000  0.5385780000000  0.5577340000000 1.0
C      1  0.5012600000000  0.4622530000000  0.4447280000000 1.0
C      1  0.5309740000000  0.5329700000000  0.3931770000000 1.0
C      1  0.4706680000000  0.4726300000000  0.5994060000000 1.0
C      1  0.5646540000000  0.4945430000000  0.4102830000000 1.0
C      1  0.4340100000000  0.5065400000000  0.5919130000000 1.0
C      1  0.5338090000000  0.4500950000000  0.5959500000000 1.0
C      1  0.4859650000000  0.5503350000000  0.4120700000000 1.0
C      1  0.5449740000000  0.4231890000000  0.5403010000000 1.0
C      1  0.4566580000000  0.5701970000000  0.4609710000000 1.0
C      1  0.5717600000000  0.5811450000000  0.4823800000000 1.0
C      1  0.4364830000000  0.4297660000000  0.5089090000000 1.0
C      1  0.5627080000000  0.5432080000000  0.5084880000000 1.0
C      1  0.4349950000000  0.4434290000000  0.4851350000000 1.0
C      1  0.4415300000000  0.5338200000000  0.4134730000000 1.0
C      1  0.5589300000000  0.4657430000000  0.5920320000000 1.0
C      1  0.6071110000000  0.5446530000000  0.5118680000000 1.0
C      1  0.3937470000000  0.4579230000000  0.4870190000000 1.0
C      1  0.4743000000000  0.5527040000000  0.5178310000000 1.0
C      1  0.5327240000000  0.4555730000000  0.4783810000000 1.0
C      1  0.4633490000000  0.6014680000000  0.5019790000000 1.0
C      1  0.5301650000000  0.3990040000000  0.4950400000000 1.0
C      1  0.5757420000000  0.4930650000000  0.5625060000000 1.0
C      1  0.4255570000000  0.5061360000000  0.4390300000000 1.0
C      1  0.5192060000000  0.5294980000000  0.6027760000000 1.0
C      1  0.4813930000000  0.4705660000000  0.3964670000000 1.0
C      1  0.4035570000000  0.4462210000000  0.4596070000000 1.0
C      1  0.5930490000000  0.5590690000000  0.5362250000000 1.0
C      1  0.5130140000000  0.4123350000000  0.4516680000000 1.0
C      1  0.4830840000000  0.5903360000000  0.5480090000000 1.0
C      1  0.5522300000000  0.5437170000000  0.4310990000000 1.0
C      1  0.4473620000000  0.4606830000000  0.5618710000000 1.0
C      1  0.6135230000000  0.4943870000000  0.5309040000000 1.0
C      1  0.3864340000000  0.5061810000000  0.4700050000000 1.0
C      1  0.4988270000000  0.3997620000000  0.5427130000000 1.0
C      1  0.5001390000000  0.6034040000000  0.4609870000000 1.0
C      1  0.4260430000000  0.4266160000000  0.4626630000000 1.0
C      1  0.5686110000000  0.5685390000000  0.5230150000000 1.0
C      1  0.5115860000000  0.5881810000000  0.5589920000000 1.0
C      1  0.4857710000000  0.4207590000000  0.4435030000000 1.0
C      1  0.6169620000000  0.5168300000000  0.5112510000000 1.0
C      1  0.3832900000000  0.4852130000000  0.4905000000000 1.0
C      1  0.4940590000000  0.5640950000000  0.4813390000000 1.0
C      1  0.5020300000000  0.4319450000000  0.5151830000000 1.0
C      1  0.6039980000000  0.5033870000000  0.4880880000000 1.0
C      1  0.3935000000000  0.4992490000000  0.5138210000000 1.0
C      1  0.5426670000000  0.5221780000000  0.5479170000000 1.0
C      1  0.4532470000000  0.4738660000000  0.4496050000000 1.0
C      1  0.4279860000000  0.5686160000000  0.4712030000000 1.0
C      1  0.5730290000000  0.4293750000000  0.5304440000000 1.0
C      1  0.5484430000000  0.5213580000000  0.5200180000000 1.0
C      1  0.4469380000000  0.4683770000000  0.4764420000000 1.0
C      1  0.5945570000000  0.4678890000000  0.4670590000000 1.0
C      1  0.4045140000000  0.5343070000000  0.5342850000000 1.0
C      1  0.5871900000000  0.5047820000000  0.5387100000000 1.0
C      1  0.4120110000000  0.4951970000000  0.4614400000000 1.0
C      1  0.4351280000000  0.3998420000000  0.5040940000000 1.0
C      1  0.5626200000000  0.6073280000000  0.4769100000000 1.0
C      1  0.5057730000000  0.4166950000000  0.5655440000000 1.0
C      1  0.4915640000000  0.5900180000000  0.4368670000000 1.0
C      1  0.4159580000000  0.5218440000000  0.5760550000000 1.0
C      1  0.5817210000000  0.4777330000000  0.4263920000000 1.0
C      1  0.5958710000000  0.4914730000000  0.4481530000000 1.0
C      1  0.4029960000000  0.5091250000000  0.5534210000000 1.0
C      1  0.4596870000000  0.5574810000000  0.4158290000000 1.0
C      1  0.5466290000000  0.4443260000000  0.5761520000000 1.0
C      1  0.5867150000000  0.4522590000000  0.5417290000000 1.0
C      1  0.4130780000000  0.5468220000000  0.4599360000000 1.0
C      1  0.4205180000000  0.5339410000000  0.4335820000000 1.0
C      1  0.5795710000000  0.4656840000000  0.5672770000000 1.0
C      1  0.4757390000000  0.5054560000000  0.4243130000000 1.0
C      1  0.5213040000000  0.4914740000000  0.5779540000000 1.0
C      1  0.5423850000000  0.4088370000000  0.4713780000000 1.0
C      1  0.4567620000000  0.5951940000000  0.5283480000000 1.0
C      1  0.5980310000000  0.5506240000000  0.4857380000000 1.0
C      1  0.4009300000000  0.4500260000000  0.5143530000000 1.0
C      1  0.4540430000000  0.5024030000000  0.4451240000000 1.0
C      1  0.5450900000000  0.4946830000000  0.5556510000000 1.0
C      1  0.4477000000000  0.4723570000000  0.5266110000000 1.0
C      1  0.5350070000000  0.5454580000000  0.4726700000000 1.0
C      1  0.5581240000000  0.4994370000000  0.4646720000000 1.0
C      1  0.4512640000000  0.5190780000000  0.5464240000000 1.0
C      1  0.5389490000000  0.5813770000000  0.4566080000000 1.0
C      1  0.4602040000000  0.4174200000000  0.5447460000000 1.0
C      1  0.5312560000000  0.5538380000000  0.4140730000000 1.0
C      1  0.4671910000000  0.4498930000000  0.5812550000000 1.0
C      1  0.3936790000000  0.5278130000000  0.5080930000000 1.0
C      1  0.6049180000000  0.4739050000000  0.4939030000000 1.0
C      1  0.4715660000000  0.4839380000000  0.5168330000000 1.0
C      1  0.5220480000000  0.5248510000000  0.4811400000000 1.0
C      1  0.4941620000000  0.4277590000000  0.4879480000000 1.0
C      1  0.4999560000000  0.5677240000000  0.5160800000000 1.0
C      1  0.5475220000000  0.5241390000000  0.5961030000000 1.0
C      1  0.4539140000000  0.4774370000000  0.4030420000000 1.0
C      1  0.5218180000000  0.5691670000000  0.5393210000000 1.0
C      1  0.4720980000000  0.4250090000000  0.4697330000000 1.0
C      1  0.5349200000000  0.5031350000000  0.4464370000000 1.0
C      1  0.4697070000000  0.5013380000000  0.5572630000000 1.0
C      1  0.4587530000000  0.5571940000000  0.5772780000000 1.0
C      1  0.5418760000000  0.4430510000000  0.4242290000000 1.0
C      1  0.5470820000000  0.4811920000000  0.4819610000000 1.0
C      1  0.4428520000000  0.5150650000000  0.5197550000000 1.0
C      1  0.4878910000000  0.5012490000000  0.4662520000000 1.0
C      1  0.5121940000000  0.4935560000000  0.5319960000000 1.0
C      1  0.5423830000000  0.5840210000000  0.5250960000000 1.0
C      1  0.4558040000000  0.4022370000000  0.4810190000000 1.0
C      1  0.5549850000000  0.5567830000000  0.4862240000000 1.0
C      1  0.4575510000000  0.4469280000000  0.5179230000000 1.0
C      1  0.4889960000000  0.5241790000000  0.4074190000000 1.0
C      1  0.5103000000000  0.4635530000000  0.5882110000000 1.0
C      1  0.5688850000000  0.5197620000000  0.4259300000000 1.0
C      1  0.4286010000000  0.4811180000000  0.5768940000000 1.0
C      1  0.5037080000000  0.4000600000000  0.4815730000000 1.0
C      1  0.4978980000000  0.5975790000000  0.5179560000000 1.0
C      1  0.5059070000000  0.5659820000000  0.4245500000000 1.0
C      1  0.4936280000000  0.4429530000000  0.5711800000000 1.0
C      1  0.4495020000000  0.5555110000000  0.5041740000000 1.0
C      1  0.5448640000000  0.4412230000000  0.5012170000000 1.0
C      1  0.4359930000000  0.4351920000000  0.5511110000000 1.0
C      1  0.5626830000000  0.5654020000000  0.4468470000000 1.0
C      1  0.3951280000000  0.5326890000000  0.4784520000000 1.0
C      1  0.6046050000000  0.4676530000000  0.5227050000000 1.0
C      1  0.4758290000000  0.5026980000000  0.5862410000000 1.0
C      1  0.5247030000000  0.4930790000000  0.4214930000000 1.0
C      1  0.4524780000000  0.5066380000000  0.4049540000000 1.0
C      1  0.5439390000000  0.4957600000000  0.5961600000000 1.0
C      1  0.5350720000000  0.4504460000000  0.5268750000000 1.0
C      1  0.4732790000000  0.5480810000000  0.4696010000000 1.0
C      1  0.5862030000000  0.5477950000000  0.4603210000000 1.0
C      1  0.4126260000000  0.4519480000000  0.5410190000000 1.0
C      1  0.4860380000000  0.4843940000000  0.5411870000000 1.0
C      1  0.5110180000000  0.5140680000000  0.4579820000000 1.0
C      1  0.5016380000000  0.5531430000000  0.6002570000000 1.0
C      1  0.4972410000000  0.4467180000000  0.4009650000000 1.0
C      1  0.4800270000000  0.4370410000000  0.5341370000000 1.0
C      1  0.5164740000000  0.5630720000000  0.4601650000000 1.0
C      1  0.5274940000000  0.4536300000000  0.4021610000000 1.0
C      1  0.4713750000000  0.5461900000000  0.5996320000000 1.0
C      1  0.4509420000000  0.4563750000000  0.4258370000000 1.0
C      1  0.5563470000000  0.5375980000000  0.5694390000000 1.0
C      1  0.5324420000000  0.5039670000000  0.4968250000000 1.0
C      1  0.4663820000000  0.5098650000000  0.5051880000000 1.0
C      1  0.5079570000000  0.5157140000000  0.3851500000000 1.0
C      1  0.4939890000000  0.4720850000000  0.6154070000000 1.0
C      1  0.5218460000000  0.4092830000000  0.5228640000000 1.0
C      1  0.4771340000000  0.5935470000000  0.4774530000000 1.0
C      1  0.5249330000000  0.5992200000000  0.5067800000000 1.0
C      1  0.4759820000000  0.3921210000000  0.4989530000000 1.0
C      1  0.5781100000000  0.5499890000000  0.5579260000000 1.0
C      1  0.4237650000000  0.4434090000000  0.4389660000000 1.0
C      1  0.5073160000000  0.4670200000000  0.4894310000000 1.0
C      1  0.4858530000000  0.5280070000000  0.5145910000000 1.0
C      1  0.4252190000000  0.4927500000000  0.5120420000000 1.0
C      1  0.5746880000000  0.5105290000000  0.4886710000000 1.0
C      1  0.4587010000000  0.5202670000000  0.6001380000000 1.0
C      1  0.5399700000000  0.4806860000000  0.4009190000000 1.0
C      1  0.5718900000000  0.4315610000000  0.5014620000000 1.0
C      1  0.4251790000000  0.5683710000000  0.5008450000000 1.0
C      1  0.4298330000000  0.4900090000000  0.4830960000000 1.0
C      1  0.5671190000000  0.5003000000000  0.5163600000000 1.0
C      1  0.5222470000000  0.4414490000000  0.4478170000000 1.0
C      1  0.4793010000000  0.5622000000000  0.5578760000000 1.0
C      1  0.5689730000000  0.4514760000000  0.4319190000000 1.0
C      1  0.4367810000000  0.5423850000000  0.5631760000000 1.0
C      1  0.5136680000000  0.5695230000000  0.5800700000000 1.0
C      1  0.4779470000000  0.4368180000000  0.4205270000000 1.0
C      1  0.5107050000000  0.4892390000000  0.5044740000000 1.0
END
