TITL C-2441168-9922-582 0.0695829319694758 125000 -24384.0757087232 0 0 172 (C1) n - 1
REM
REM in /home/bkarasulu/work/CARBON/AIRSS/Generating-Clusters/ReaxFF-fromJPCA2015/Units_Real/with-SteepDescent/Higher-Symm
REM
REM
REM
REM
REM
REM ./C.cell (1df0a924f5614ab8850e4351716899ee)
REM
REM compiler GCC version 9.2.1 20190827 (Red Hat 9.2.1-1)
REM options -cpp -mtune=generic -march=x86-64 -g -O0 -fpre-include=/usr/include/finclude/math-vector-fortran.h
REM seed -1245937145 1541895610 -611735322 1463383869 1965379600 872343713 1126328714 559418925 258246890 -1543642170 -454045455 -591788568 -203281754 1646192512 1276765122 -1382877670 1782198308 1771429760 -2055111088 1864581056 678100977 709984926 1263282673 -1756246230 -355285918 621225083 792241498 -222247112 2030583830 -1194772164 896599717 126575541 1569354567
REM
CELL 1.54180   50.00000   50.00000   50.00000   90.00000   90.00000   90.00000
LATT -1
SFAC C  
C      1  0.4834670000000  0.4384670000000  0.5224110000000 1.0
C      1  0.4409790000000  0.4731640000000  0.5206810000000 1.0
C      1  0.4423720000000  0.5292740000000  0.5205890000000 1.0
C      1  0.4866720000000  0.5626340000000  0.5202390000000 1.0
C      1  0.5393000000000  0.5426230000000  0.5146520000000 1.0
C      1  0.5547780000000  0.4950250000000  0.5216760000000 1.0
C      1  0.5293860000000  0.4506480000000  0.5302090000000 1.0
C      1  0.4893980000000  0.4203550000000  0.4326760000000 1.0
C      1  0.4376010000000  0.4597090000000  0.4319350000000 1.0
C      1  0.4204760000000  0.5445370000000  0.4372960000000 1.0
C      1  0.4902790000000  0.5844210000000  0.4382540000000 1.0
C      1  0.5395920000000  0.5745410000000  0.4326970000000 1.0
C      1  0.5790900000000  0.5105370000000  0.4281620000000 1.0
C      1  0.5561390000000  0.4403210000000  0.4307050000000 1.0
C      1  0.4862070000000  0.5956760000000  0.5573520000000 1.0
C      1  0.5688840000000  0.5654730000000  0.5563180000000 1.0
C      1  0.5931120000000  0.4887550000000  0.5533790000000 1.0
C      1  0.5507050000000  0.4185600000000  0.5551810000000 1.0
C      1  0.4686420000000  0.4084190000000  0.5547080000000 1.0
C      1  0.4088710000000  0.4639510000000  0.5540670000000 1.0
C      1  0.4166020000000  0.5508590000000  0.5557520000000 1.0
C      1  0.5352130000000  0.5741430000000  0.5068630000000 1.0
C      1  0.5912600000000  0.5312510000000  0.5007390000000 1.0
C      1  0.5817060000000  0.4484060000000  0.5020040000000 1.0
C      1  0.5096550000000  0.3974520000000  0.5028070000000 1.0
C      1  0.4352850000000  0.4458470000000  0.5051000000000 1.0
C      1  0.4178090000000  0.5167900000000  0.5075050000000 1.0
C      1  0.4628730000000  0.5748000000000  0.5053800000000 1.0
C      1  0.5091090000000  0.5259400000000  0.3974220000000 1.0
C      1  0.5306690000000  0.5081060000000  0.4034940000000 1.0
C      1  0.5278600000000  0.4799770000000  0.4012350000000 1.0
C      1  0.5038900000000  0.4638430000000  0.4012150000000 1.0
C      1  0.4757610000000  0.4711190000000  0.4004790000000 1.0
C      1  0.4654140000000  0.4986670000000  0.4022950000000 1.0
C      1  0.4796890000000  0.5228910000000  0.3960700000000 1.0
C      1  0.5334340000000  0.5867790000000  0.4582470000000 1.0
C      1  0.5910500000000  0.5256300000000  0.4507630000000 1.0
C      1  0.5732320000000  0.4462200000000  0.4535470000000 1.0
C      1  0.5026810000000  0.4194110000000  0.4598300000000 1.0
C      1  0.4448920000000  0.4473240000000  0.4580040000000 1.0
C      1  0.4109520000000  0.5187200000000  0.4551720000000 1.0
C      1  0.4651020000000  0.5736250000000  0.4522170000000 1.0
C      1  0.4682670000000  0.5165060000000  0.5213940000000 1.0
C      1  0.4896610000000  0.5343620000000  0.5104210000000 1.0
C      1  0.5169480000000  0.5268510000000  0.5082920000000 1.0
C      1  0.5259500000000  0.5019360000000  0.5222830000000 1.0
C      1  0.5132800000000  0.4807960000000  0.5038000000000 1.0
C      1  0.4873280000000  0.4680830000000  0.5180210000000 1.0
C      1  0.4652550000000  0.4871890000000  0.5110320000000 1.0
C      1  0.5858440000000  0.5284060000000  0.5453610000000 1.0
C      1  0.5803580000000  0.4506430000000  0.5471650000000 1.0
C      1  0.5128610000000  0.4040500000000  0.5488570000000 1.0
C      1  0.4342570000000  0.4321960000000  0.5482620000000 1.0
C      1  0.4028190000000  0.5114260000000  0.5525990000000 1.0
C      1  0.4455520000000  0.5805390000000  0.5482800000000 1.0
C      1  0.5341540000000  0.5876160000000  0.5537060000000 1.0
C      1  0.4687200000000  0.3936280000000  0.5296700000000 1.0
C      1  0.3972860000000  0.4559760000000  0.5280750000000 1.0
C      1  0.4027730000000  0.5541410000000  0.5293830000000 1.0
C      1  0.4812760000000  0.6108180000000  0.5324200000000 1.0
C      1  0.5741070000000  0.5743950000000  0.5289090000000 1.0
C      1  0.6051420000000  0.4892610000000  0.5263180000000 1.0
C      1  0.5566840000000  0.4125680000000  0.5277940000000 1.0
C      1  0.5514510000000  0.4479130000000  0.5522010000000 1.0
C      1  0.4921410000000  0.4252840000000  0.5501380000000 1.0
C      1  0.4387940000000  0.4602210000000  0.5530370000000 1.0
C      1  0.4299020000000  0.5231180000000  0.5547640000000 1.0
C      1  0.4745060000000  0.5682830000000  0.5520780000000 1.0
C      1  0.5400120000000  0.5613490000000  0.5628760000000 1.0
C      1  0.5705070000000  0.5042770000000  0.5439750000000 1.0
C      1  0.5850870000000  0.5620380000000  0.5041100000000 1.0
C      1  0.5989230000000  0.4724110000000  0.5027080000000 1.0
C      1  0.5370510000000  0.4110840000000  0.5031710000000 1.0
C      1  0.4562390000000  0.4018150000000  0.5040890000000 1.0
C      1  0.3957370000000  0.4732230000000  0.5037730000000 1.0
C      1  0.4157890000000  0.5662260000000  0.5056870000000 1.0
C      1  0.4992550000000  0.6078120000000  0.5091210000000 1.0
C      1  0.5527100000000  0.4684450000000  0.4200820000000 1.0
C      1  0.5076840000000  0.4399240000000  0.4210200000000 1.0
C      1  0.4574790000000  0.4518640000000  0.4134920000000 1.0
C      1  0.4465640000000  0.5032510000000  0.4244000000000 1.0
C      1  0.4665710000000  0.5456170000000  0.4097080000000 1.0
C      1  0.5153490000000  0.5443220000000  0.4197870000000 1.0
C      1  0.5508210000000  0.5209930000000  0.4262660000000 1.0
C      1  0.4745210000000  0.4714530000000  0.5922670000000 1.0
C      1  0.4626720000000  0.5001990000000  0.5891970000000 1.0
C      1  0.4780460000000  0.5297900000000  0.5903480000000 1.0
C      1  0.5065370000000  0.5363740000000  0.5925390000000 1.0
C      1  0.5328050000000  0.5159970000000  0.5951830000000 1.0
C      1  0.5324530000000  0.4829490000000  0.5942960000000 1.0
C      1  0.5046550000000  0.4640420000000  0.5921570000000 1.0
C      1  0.5108040000000  0.4620620000000  0.4465150000000 1.0
C      1  0.4726150000000  0.4614240000000  0.4707890000000 1.0
C      1  0.4574610000000  0.5194400000000  0.4456100000000 1.0
C      1  0.4740850000000  0.5432940000000  0.4399530000000 1.0
C      1  0.5030720000000  0.5376020000000  0.4448690000000 1.0
C      1  0.5424680000000  0.5045990000000  0.4526280000000 1.0
C      1  0.5360620000000  0.4777450000000  0.4449370000000 1.0
C      1  0.4190050000000  0.4885040000000  0.5103570000000 1.0
C      1  0.4419970000000  0.5552060000000  0.5086720000000 1.0
C      1  0.5073290000000  0.5803810000000  0.5110730000000 1.0
C      1  0.5600530000000  0.5293100000000  0.4973260000000 1.0
C      1  0.5579230000000  0.4820240000000  0.4959490000000 1.0
C      1  0.5244690000000  0.4415460000000  0.5030240000000 1.0
C      1  0.4608390000000  0.4300200000000  0.5077950000000 1.0
C      1  0.5120160000000  0.5727260000000  0.4227600000000 1.0
C      1  0.5568370000000  0.5510820000000  0.4328990000000 1.0
C      1  0.5792590000000  0.4821650000000  0.4280790000000 1.0
C      1  0.5324460000000  0.4259060000000  0.4282250000000 1.0
C      1  0.4626950000000  0.4255710000000  0.4268530000000 1.0
C      1  0.4266630000000  0.4845630000000  0.4321650000000 1.0
C      1  0.4401480000000  0.5477380000000  0.4177470000000 1.0
C      1  0.5528670000000  0.5071650000000  0.4797110000000 1.0
C      1  0.5348120000000  0.4649210000000  0.4904380000000 1.0
C      1  0.4992020000000  0.4504740000000  0.4714290000000 1.0
C      1  0.4645330000000  0.4866900000000  0.4817900000000 1.0
C      1  0.4625220000000  0.5137490000000  0.4722300000000 1.0
C      1  0.4816420000000  0.5332490000000  0.4824590000000 1.0
C      1  0.5074460000000  0.5388890000000  0.4725260000000 1.0
C      1  0.4117890000000  0.5302520000000  0.4793650000000 1.0
C      1  0.4700310000000  0.5852580000000  0.4782780000000 1.0
C      1  0.5481290000000  0.5797690000000  0.4807320000000 1.0
C      1  0.5992720000000  0.5140190000000  0.4754470000000 1.0
C      1  0.5701360000000  0.4345190000000  0.4785690000000 1.0
C      1  0.4927920000000  0.4017500000000  0.4804150000000 1.0
C      1  0.4249390000000  0.4512290000000  0.4782170000000 1.0
C      1  0.5257970000000  0.4965060000000  0.5529230000000 1.0
C      1  0.5155920000000  0.4688130000000  0.5478270000000 1.0
C      1  0.4877630000000  0.4705010000000  0.5469150000000 1.0
C      1  0.4791550000000  0.4954070000000  0.5608310000000 1.0
C      1  0.4786360000000  0.5197160000000  0.5466540000000 1.0
C      1  0.5030270000000  0.5317930000000  0.5480710000000 1.0
C      1  0.5292680000000  0.5369200000000  0.5454160000000 1.0
C      1  0.5324530000000  0.4153880000000  0.4543390000000 1.0
C      1  0.4537940000000  0.4181100000000  0.4534130000000 1.0
C      1  0.4094520000000  0.4902530000000  0.4537300000000 1.0
C      1  0.4319350000000  0.5658000000000  0.4530050000000 1.0
C      1  0.5063750000000  0.5969750000000  0.4581330000000 1.0
C      1  0.5773480000000  0.5519040000000  0.4525630000000 1.0
C      1  0.5887460000000  0.4704530000000  0.4525010000000 1.0
C      1  0.4048590000000  0.4704210000000  0.4757820000000 1.0
C      1  0.4156110000000  0.5592260000000  0.4765210000000 1.0
C      1  0.4903920000000  0.6042890000000  0.4812590000000 1.0
C      1  0.5739470000000  0.5680020000000  0.4779740000000 1.0
C      1  0.5991810000000  0.4853180000000  0.4764120000000 1.0
C      1  0.5495920000000  0.4153210000000  0.4771700000000 1.0
C      1  0.4646620000000  0.4024140000000  0.4758900000000 1.0
C      1  0.4512820000000  0.4255060000000  0.5701700000000 1.0
C      1  0.4112040000000  0.4888420000000  0.5683120000000 1.0
C      1  0.4380810000000  0.5639600000000  0.5711970000000 1.0
C      1  0.5109530000000  0.5875330000000  0.5704730000000 1.0
C      1  0.5765070000000  0.5412610000000  0.5698600000000 1.0
C      1  0.5809380000000  0.4682010000000  0.5700280000000 1.0
C      1  0.5259860000000  0.4168280000000  0.5709230000000 1.0
C      1  0.5534370000000  0.4695570000000  0.5804600000000 1.0
C      1  0.5085080000000  0.4389920000000  0.5788260000000 1.0
C      1  0.4569240000000  0.4536870000000  0.5784140000000 1.0
C      1  0.4353740000000  0.5035220000000  0.5768260000000 1.0
C      1  0.4649030000000  0.5513590000000  0.5765550000000 1.0
C      1  0.5166170000000  0.5619790000000  0.5845410000000 1.0
C      1  0.5548670000000  0.5277320000000  0.5839040000000 1.0
C      1  0.4155410000000  0.4337390000000  0.5264490000000 1.0
C      1  0.3964560000000  0.5260860000000  0.5282650000000 1.0
C      1  0.4562190000000  0.5974660000000  0.5276760000000 1.0
C      1  0.5492270000000  0.5892580000000  0.5294740000000 1.0
C      1  0.6040820000000  0.5183580000000  0.5257490000000 1.0
C      1  0.5780730000000  0.4315160000000  0.5259640000000 1.0
C      1  0.4978510000000  0.3910430000000  0.5279640000000 1.0
C      1  0.5053240000000  0.4990050000000  0.5725740000000 1.0
C      1  0.4991270000000  0.4993910000000  0.4598170000000 1.0
C      1  0.5065510000000  0.5004300000000  0.4825480000000 1.0
C      1  0.4919350000000  0.4908770000000  0.4362090000000 1.0
END
