TITL C-2441159-1093-980 0.00210884696233063 125000 -4045.79430095039 0 0 30 (C1) n - 1
REM
REM in /home/bkarasulu/work/CARBON/AIRSS/Generating-Clusters/ReaxFF-fromJPCA2015/Units_Real/with-SteepDescent/Higher-Symm
REM
REM
REM
REM
REM
REM ./C.cell (1df0a924f5614ab8850e4351716899ee)
REM
REM compiler GCC version 9.2.1 20190827 (Red Hat 9.2.1-1)
REM options -cpp -mtune=generic -march=x86-64 -g -O0 -fpre-include=/usr/include/finclude/math-vector-fortran.h
REM seed 1766899541 1810347928 1744898990 -829582271 -1776288365 -1663428610 1108424751 -527596360 -584991330 -880494299 907044995 512376482 598461913 584584465 -176096664 -823545973 1230567904 1104166352 1139850875 -1848957639 -884180573 455871780 1648545712 -1162499438 621769029 -1948626719 2055240172 -815096809 -477372188 -14746454 -937307707 -1535588271 -362601355
REM
CELL 1.54180   50.00000   50.00000   50.00000   90.00000   90.00000   90.00000
LATT -1
SFAC C  
C      1  0.4858930000000  0.4554710000000  0.4625830000000 1.0
C      1  0.4592850000000  0.5283900000000  0.5049010000000 1.0
C      1  0.5684870000000  0.4978790000000  0.4868800000000 1.0
C      1  0.5166330000000  0.5052770000000  0.5007820000000 1.0
C      1  0.4472990000000  0.5022460000000  0.5172560000000 1.0
C      1  0.5131340000000  0.4587420000000  0.4581110000000 1.0
C      1  0.4673620000000  0.4778200000000  0.4662820000000 1.0
C      1  0.5448430000000  0.4951370000000  0.5004940000000 1.0
C      1  0.5060390000000  0.5091190000000  0.5599370000000 1.0
C      1  0.4883090000000  0.5502170000000  0.4745650000000 1.0
C      1  0.5463350000000  0.4973350000000  0.5518620000000 1.0
C      1  0.5049600000000  0.4445650000000  0.4816650000000 1.0
C      1  0.5060970000000  0.4517380000000  0.5090670000000 1.0
C      1  0.5093470000000  0.4773790000000  0.5207470000000 1.0
C      1  0.4943130000000  0.5557320000000  0.5038150000000 1.0
C      1  0.4470220000000  0.4731850000000  0.4875860000000 1.0
C      1  0.5257110000000  0.4835900000000  0.4585230000000 1.0
C      1  0.4712980000000  0.5489890000000  0.5188280000000 1.0
C      1  0.5381380000000  0.5508800000000  0.5499040000000 1.0
C      1  0.5200270000000  0.4847280000000  0.5508740000000 1.0
C      1  0.5165820000000  0.5350320000000  0.5011050000000 1.0
C      1  0.5087700000000  0.5061500000000  0.4669400000000 1.0
C      1  0.4683010000000  0.5286590000000  0.4760410000000 1.0
C      1  0.5310160000000  0.5261910000000  0.5488470000000 1.0
C      1  0.5508160000000  0.4815290000000  0.4727670000000 1.0
C      1  0.4848250000000  0.4632970000000  0.5226960000000 1.0
C      1  0.5142110000000  0.5364010000000  0.4720170000000 1.0
C      1  0.4268340000000  0.4951710000000  0.4964570000000 1.0
C      1  0.4596480000000  0.4748340000000  0.5142950000000 1.0
C      1  0.4784650000000  0.5043170000000  0.4641720000000 1.0
END
