TITL C-2441168-9922-839 0.075627419826124 125000 -10218.3699809781 0 0 88 (C1) n - 1
REM
REM in /home/bkarasulu/work/CARBON/AIRSS/Generating-Clusters/ReaxFF-fromJPCA2015/Units_Real/with-SteepDescent/Higher-Symm
REM
REM
REM
REM
REM
REM ./C.cell (1df0a924f5614ab8850e4351716899ee)
REM
REM compiler GCC version 9.2.1 20190827 (Red Hat 9.2.1-1)
REM options -cpp -mtune=generic -march=x86-64 -g -O0 -fpre-include=/usr/include/finclude/math-vector-fortran.h
REM seed -1993475087 1802829534 1482008902 1234300989 1039516900 982443842 357484626 534757192 1345286201 1832160553 -1676198629 -1336114392 1882897533 214899379 817255692 -1545873984 1910561826 1149600386 -1787932568 -2136777518 -1931447200 -2065086385 -1975456449 -1807399278 -294976839 -1938403365 838179093 -583748568 344850400 -885020217 -774320692 1017084833 960535352
REM
CELL 1.54180   50.00000   50.00000   50.00000   90.00000   90.00000   90.00000
LATT -1
SFAC C  
C      1  0.4865870000000  0.4815950000000  0.4742870000000 1.0
C      1  0.4680830000000  0.4762610000000  0.4964090000000 1.0
C      1  0.4968680000000  0.4800600000000  0.5272070000000 1.0
C      1  0.5220420000000  0.4785700000000  0.5120810000000 1.0
C      1  0.5309310000000  0.4768450000000  0.4840670000000 1.0
C      1  0.4953770000000  0.5234100000000  0.5326530000000 1.0
C      1  0.4676150000000  0.5191880000000  0.5013770000000 1.0
C      1  0.4902270000000  0.5199930000000  0.4635040000000 1.0
C      1  0.5277060000000  0.5214940000000  0.4822050000000 1.0
C      1  0.5202330000000  0.5213830000000  0.5196190000000 1.0
C      1  0.5369800000000  0.4903680000000  0.4563430000000 1.0
C      1  0.4692140000000  0.4896750000000  0.4513730000000 1.0
C      1  0.4460210000000  0.4881950000000  0.5149540000000 1.0
C      1  0.4970770000000  0.4915610000000  0.5561360000000 1.0
C      1  0.5522090000000  0.4901100000000  0.5196950000000 1.0
C      1  0.5365330000000  0.5096310000000  0.5429630000000 1.0
C      1  0.4654770000000  0.5135500000000  0.5473260000000 1.0
C      1  0.4441730000000  0.5122780000000  0.4837400000000 1.0
C      1  0.4993070000000  0.5106800000000  0.4389320000000 1.0
C      1  0.5566090000000  0.5114080000000  0.4815210000000 1.0
C      1  0.4618290000000  0.4484200000000  0.4518740000000 1.0
C      1  0.4410500000000  0.4476820000000  0.5202480000000 1.0
C      1  0.5031660000000  0.4505910000000  0.5626380000000 1.0
C      1  0.5601790000000  0.4489920000000  0.5142340000000 1.0
C      1  0.5353440000000  0.4501580000000  0.4478700000000 1.0
C      1  0.4666230000000  0.5549070000000  0.5546900000000 1.0
C      1  0.4369410000000  0.5569260000000  0.4856870000000 1.0
C      1  0.5046060000000  0.5528880000000  0.4391260000000 1.0
C      1  0.5595740000000  0.5551140000000  0.4779360000000 1.0
C      1  0.5343810000000  0.5493370000000  0.5513110000000 1.0
C      1  0.4845690000000  0.4294770000000  0.4569800000000 1.0
C      1  0.4539040000000  0.4290220000000  0.5019220000000 1.0
C      1  0.4912630000000  0.4327010000000  0.5436400000000 1.0
C      1  0.5388000000000  0.4301370000000  0.5248610000000 1.0
C      1  0.5346800000000  0.4306000000000  0.4691600000000 1.0
C      1  0.4834840000000  0.5721120000000  0.5409020000000 1.0
C      1  0.4576650000000  0.5722510000000  0.4964850000000 1.0
C      1  0.4871280000000  0.5708730000000  0.4555500000000 1.0
C      1  0.5362500000000  0.5713100000000  0.4778210000000 1.0
C      1  0.5349580000000  0.5681350000000  0.5300260000000 1.0
C      1  0.4264830000000  0.4597020000000  0.4964230000000 1.0
C      1  0.4757500000000  0.4610380000000  0.5689960000000 1.0
C      1  0.5538930000000  0.4607630000000  0.5460250000000 1.0
C      1  0.5614520000000  0.4598970000000  0.4589040000000 1.0
C      1  0.4830270000000  0.4601030000000  0.4303990000000 1.0
C      1  0.4252010000000  0.5399160000000  0.5052040000000 1.0
C      1  0.4764370000000  0.5406160000000  0.4299260000000 1.0
C      1  0.5576750000000  0.5389170000000  0.4530110000000 1.0
C      1  0.5616090000000  0.5395100000000  0.5422680000000 1.0
C      1  0.4830110000000  0.5400810000000  0.5720780000000 1.0
C      1  0.5283400000000  0.4663390000000  0.5587790000000 1.0
C      1  0.5578680000000  0.4682850000000  0.4870870000000 1.0
C      1  0.5085000000000  0.4669330000000  0.4432380000000 1.0
C      1  0.4459160000000  0.4704700000000  0.4757940000000 1.0
C      1  0.4606610000000  0.4678220000000  0.5457530000000 1.0
C      1  0.5293720000000  0.5316140000000  0.4550970000000 1.0
C      1  0.5617150000000  0.5347400000000  0.5132590000000 1.0
C      1  0.5089070000000  0.5330560000000  0.5575270000000 1.0
C      1  0.4515580000000  0.5331920000000  0.5210710000000 1.0
C      1  0.4643460000000  0.5314120000000  0.4556100000000 1.0
C      1  0.4678780000000  0.4370260000000  0.4783060000000 1.0
C      1  0.4696030000000  0.4397460000000  0.5240380000000 1.0
C      1  0.5117850000000  0.4323190000000  0.5250420000000 1.0
C      1  0.5413480000000  0.4335220000000  0.4977840000000 1.0
C      1  0.5072940000000  0.4348760000000  0.4715470000000 1.0
C      1  0.4674020000000  0.5604700000000  0.5205610000000 1.0
C      1  0.4682670000000  0.5579660000000  0.4738120000000 1.0
C      1  0.5115430000000  0.5646740000000  0.4661070000000 1.0
C      1  0.5408920000000  0.5559640000000  0.5028760000000 1.0
C      1  0.5071990000000  0.5690800000000  0.5256040000000 1.0
C      1  0.4166400000000  0.5138090000000  0.4952170000000 1.0
C      1  0.4684970000000  0.5145400000000  0.5764300000000 1.0
C      1  0.5642690000000  0.5128780000000  0.5538400000000 1.0
C      1  0.5719430000000  0.5132310000000  0.4554100000000 1.0
C      1  0.4803150000000  0.5140610000000  0.4170010000000 1.0
C      1  0.4179530000000  0.4864420000000  0.5059650000000 1.0
C      1  0.4718830000000  0.4862620000000  0.4226780000000 1.0
C      1  0.5647740000000  0.4869430000000  0.4463150000000 1.0
C      1  0.5684190000000  0.4859450000000  0.5435740000000 1.0
C      1  0.4802870000000  0.4883030000000  0.5801730000000 1.0
C      1  0.5682600000000  0.5080770000000  0.5059520000000 1.0
C      1  0.4481410000000  0.4921840000000  0.5422900000000 1.0
C      1  0.4441580000000  0.4964340000000  0.4608740000000 1.0
C      1  0.5236740000000  0.4952930000000  0.5639930000000 1.0
C      1  0.5191950000000  0.4921440000000  0.4353030000000 1.0
C      1  0.5022030000000  0.5811940000000  0.5031390000000 1.0
C      1  0.5011570000000  0.4244890000000  0.4988900000000 1.0
C      1  0.4958350000000  0.5084760000000  0.4899910000000 1.0
END
