TITL C-2441156-4686-1014 0.000327411769750638 125000 -3400.0920079397 0 0 24 (C4h) n - 1
REM
REM in /home/bkarasulu/work/CARBON/AIRSS/Generating-Clusters/ReaxFF-fromJPCA2015/Units_Real/with-SteepDescent/Higher-Symm
REM
REM
REM
REM
REM
REM ./C.cell (1df0a924f5614ab8850e4351716899ee)
REM
REM compiler GCC version 9.2.1 20190827 (Red Hat 9.2.1-1)
REM options -cpp -mtune=generic -march=x86-64 -g -O0 -fpre-include=/usr/include/finclude/math-vector-fortran.h
REM seed -521351016 675452948 -2013075888 1466571486 136477490 527528540 -1472353693 -2036299368 -1682240399 1442579006 1388280595 -408795032 -404793491 2065002915 -219317825 1875796988 -600660670 476629544 -1536262552 619377701 504654775 -1483862419 277139306 46669662 338295264 1068726776 -1369628126 -920785985 1370379835 498454402 1112254529 1714166028 -2070624481
REM
CELL 1.54180   50.00000   50.00000   50.00000   90.00000   90.00000   90.00000
LATT -1
SFAC C  
C      1  0.4715040000000  0.5104750000000  0.5516590000000 1.0
C      1  0.4715040000000  0.4483390000000  0.5104750000000 1.0
C      1  0.4715040000000  0.4895250000000  0.4483410000000 1.0
C      1  0.4715040000000  0.5516610000000  0.4895250000000 1.0
C      1  0.5284960000000  0.5104750000000  0.5516600000000 1.0
C      1  0.5284960000000  0.4483390000000  0.5104750000000 1.0
C      1  0.5284960000000  0.4895250000000  0.4483400000000 1.0
C      1  0.5284960000000  0.5516610000000  0.4895250000000 1.0
C      1  0.5143760000000  0.5156240000000  0.4499690000000 1.0
C      1  0.5143760000000  0.5500310000000  0.5156240000000 1.0
C      1  0.5143760000000  0.4843760000000  0.5500310000000 1.0
C      1  0.5143760000000  0.4499690000000  0.4843760000000 1.0
C      1  0.4856240000000  0.5156240000000  0.4499690000000 1.0
C      1  0.4856240000000  0.5500310000000  0.5156240000000 1.0
C      1  0.4856240000000  0.4843760000000  0.5500310000000 1.0
C      1  0.4856240000000  0.4499690000000  0.4843760000000 1.0
C      1  0.4715000000000  0.4634740000000  0.4619830000000 1.0
C      1  0.4715000000000  0.5380180000000  0.4634730000000 1.0
C      1  0.4715000000000  0.5365260000000  0.5380170000000 1.0
C      1  0.4715000000000  0.4619820000000  0.5365270000000 1.0
C      1  0.5285000000000  0.4634740000000  0.4619830000000 1.0
C      1  0.5285000000000  0.5380180000000  0.4634730000000 1.0
C      1  0.5285000000000  0.5365260000000  0.5380170000000 1.0
C      1  0.5285000000000  0.4619820000000  0.5365270000000 1.0
END
