TITL C-2441167-4473-888 0.114541574111286 125000 -17412.6013178627 0 0 133 (C1) n - 1
REM
REM in /home/bkarasulu/work/CARBON/AIRSS/Generating-Clusters/ReaxFF-fromJPCA2015/Units_Real/with-SteepDescent/Higher-Symm
REM
REM
REM
REM
REM
REM ./C.cell (1df0a924f5614ab8850e4351716899ee)
REM
REM compiler GCC version 9.2.1 20190827 (Red Hat 9.2.1-1)
REM options -cpp -mtune=generic -march=x86-64 -g -O0 -fpre-include=/usr/include/finclude/math-vector-fortran.h
REM seed -1592072591 -666617022 -974564145 -503779954 -1796409845 -1380103430 -1404856692 -1366523329 -120887301 1164659417 1337959821 -1292442139 -1688077145 1298680459 1659506325 -2007822735 -1735183544 -2059036314 453655507 1064884699 1291968867 -552000947 881956363 629736995 -1474804886 252364658 1247400018 1258052003 832923635 -155091704 571852672 -571019429 -1546295709
REM
CELL 1.54180   50.00000   50.00000   50.00000   90.00000   90.00000   90.00000
LATT -1
SFAC C  
C      1  0.5334070000000  0.5536860000000  0.4823900000000 1.0
C      1  0.4678280000000  0.4469070000000  0.4840560000000 1.0
C      1  0.4596140000000  0.5562520000000  0.5278720000000 1.0
C      1  0.5320430000000  0.4468810000000  0.5188850000000 1.0
C      1  0.5530820000000  0.5323090000000  0.4826350000000 1.0
C      1  0.4469820000000  0.4666790000000  0.4822570000000 1.0
C      1  0.5538360000000  0.4672250000000  0.5186540000000 1.0
C      1  0.4460740000000  0.5326150000000  0.5195410000000 1.0
C      1  0.4722730000000  0.4341510000000  0.5363970000000 1.0
C      1  0.5284650000000  0.5684100000000  0.5383780000000 1.0
C      1  0.5294390000000  0.4306760000000  0.4618120000000 1.0
C      1  0.4698220000000  0.5716790000000  0.4599790000000 1.0
C      1  0.4327430000000  0.4705570000000  0.5381410000000 1.0
C      1  0.5650220000000  0.5281700000000  0.5366490000000 1.0
C      1  0.4324770000000  0.5304090000000  0.4627990000000 1.0
C      1  0.5682230000000  0.4700710000000  0.4620230000000 1.0
C      1  0.4181240000000  0.5411060000000  0.5252980000000 1.0
C      1  0.5812590000000  0.4590700000000  0.5253120000000 1.0
C      1  0.5801430000000  0.5402980000000  0.4752630000000 1.0
C      1  0.4196700000000  0.4588940000000  0.4753520000000 1.0
C      1  0.5406670000000  0.4194330000000  0.5253360000000 1.0
C      1  0.4566110000000  0.5842200000000  0.5271110000000 1.0
C      1  0.5409990000000  0.5814470000000  0.4754510000000 1.0
C      1  0.4597990000000  0.4206230000000  0.4764650000000 1.0
C      1  0.5549460000000  0.4247620000000  0.4778310000000 1.0
C      1  0.4474700000000  0.5733280000000  0.4785290000000 1.0
C      1  0.4460260000000  0.4258290000000  0.5229850000000 1.0
C      1  0.5540850000000  0.5745190000000  0.5227700000000 1.0
C      1  0.4257810000000  0.5542220000000  0.4779560000000 1.0
C      1  0.5752050000000  0.4450120000000  0.4777040000000 1.0
C      1  0.4257640000000  0.4458670000000  0.5229300000000 1.0
C      1  0.5737290000000  0.5537890000000  0.5225430000000 1.0
C      1  0.5204520000000  0.4061400000000  0.5428360000000 1.0
C      1  0.4800700000000  0.5944130000000  0.5432280000000 1.0
C      1  0.4792980000000  0.4077830000000  0.4584840000000 1.0
C      1  0.5201400000000  0.5932090000000  0.4579620000000 1.0
C      1  0.4072470000000  0.5204590000000  0.5436040000000 1.0
C      1  0.5922930000000  0.4796990000000  0.5438580000000 1.0
C      1  0.4082910000000  0.4797420000000  0.4571950000000 1.0
C      1  0.5926010000000  0.5202710000000  0.4568050000000 1.0
C      1  0.5402000000000  0.4789960000000  0.5420020000000 1.0
C      1  0.4620420000000  0.5187980000000  0.5423240000000 1.0
C      1  0.4595890000000  0.4799110000000  0.4595570000000 1.0
C      1  0.5413000000000  0.5200740000000  0.4593800000000 1.0
C      1  0.4793360000000  0.5413150000000  0.5418470000000 1.0
C      1  0.5194820000000  0.4598590000000  0.5418100000000 1.0
C      1  0.4796600000000  0.4591650000000  0.4595090000000 1.0
C      1  0.5217880000000  0.5411400000000  0.4580210000000 1.0
C      1  0.4673070000000  0.5158240000000  0.5953180000000 1.0
C      1  0.5324510000000  0.4843470000000  0.5950480000000 1.0
C      1  0.5326200000000  0.5156290000000  0.4063260000000 1.0
C      1  0.4680690000000  0.4846730000000  0.4063560000000 1.0
C      1  0.5113350000000  0.4646590000000  0.5913610000000 1.0
C      1  0.4889220000000  0.5354650000000  0.5921010000000 1.0
C      1  0.5119090000000  0.5351770000000  0.4091030000000 1.0
C      1  0.4887110000000  0.4652460000000  0.4095460000000 1.0
C      1  0.4600600000000  0.5897570000000  0.4990020000000 1.0
C      1  0.5405130000000  0.4099140000000  0.4983700000000 1.0
C      1  0.5406540000000  0.5906650000000  0.5024790000000 1.0
C      1  0.4590450000000  0.4099480000000  0.5026730000000 1.0
C      1  0.5907900000000  0.4589700000000  0.4983110000000 1.0
C      1  0.4095370000000  0.5410190000000  0.4981240000000 1.0
C      1  0.5900800000000  0.5407500000000  0.5021330000000 1.0
C      1  0.4100160000000  0.4590920000000  0.5022970000000 1.0
C      1  0.4887640000000  0.5319020000000  0.4276130000000 1.0
C      1  0.5121550000000  0.4677330000000  0.4278220000000 1.0
C      1  0.5118170000000  0.5309790000000  0.5716150000000 1.0
C      1  0.4879030000000  0.4674610000000  0.5731270000000 1.0
C      1  0.5330640000000  0.4852610000000  0.4306650000000 1.0
C      1  0.4672260000000  0.5150970000000  0.4307530000000 1.0
C      1  0.5332940000000  0.5152880000000  0.5700020000000 1.0
C      1  0.4669200000000  0.4853210000000  0.5704850000000 1.0
C      1  0.5224830000000  0.5550180000000  0.4275700000000 1.0
C      1  0.4782920000000  0.4459010000000  0.4287580000000 1.0
C      1  0.4782890000000  0.5547730000000  0.5736680000000 1.0
C      1  0.5215990000000  0.4461150000000  0.5708940000000 1.0
C      1  0.5526880000000  0.5198030000000  0.4278070000000 1.0
C      1  0.4481720000000  0.4807370000000  0.4279910000000 1.0
C      1  0.5522320000000  0.4802800000000  0.5734470000000 1.0
C      1  0.4483540000000  0.5201690000000  0.5719790000000 1.0
C      1  0.4846820000000  0.4206430000000  0.4345890000000 1.0
C      1  0.5149400000000  0.5796780000000  0.4346040000000 1.0
C      1  0.5149930000000  0.4202770000000  0.5660180000000 1.0
C      1  0.4846260000000  0.5794560000000  0.5658080000000 1.0
C      1  0.4227840000000  0.4852260000000  0.4341040000000 1.0
C      1  0.5780870000000  0.5151140000000  0.4336700000000 1.0
C      1  0.4228630000000  0.5158000000000  0.5661090000000 1.0
C      1  0.5775320000000  0.4848210000000  0.5668830000000 1.0
C      1  0.4555820000000  0.5239110000000  0.4872770000000 1.0
C      1  0.5449420000000  0.4765770000000  0.4857020000000 1.0
C      1  0.5404950000000  0.5207310000000  0.5152890000000 1.0
C      1  0.4569050000000  0.4769180000000  0.5150080000000 1.0
C      1  0.5238850000000  0.4552040000000  0.4856790000000 1.0
C      1  0.4816750000000  0.5382970000000  0.4899310000000 1.0
C      1  0.5222050000000  0.5443380000000  0.5136280000000 1.0
C      1  0.4776030000000  0.4563020000000  0.5137420000000 1.0
C      1  0.5320560000000  0.5534670000000  0.5635950000000 1.0
C      1  0.4679720000000  0.4466560000000  0.5636160000000 1.0
C      1  0.4679090000000  0.5543020000000  0.4377350000000 1.0
C      1  0.5325350000000  0.4460320000000  0.4366780000000 1.0
C      1  0.5514180000000  0.5329420000000  0.5618680000000 1.0
C      1  0.4477990000000  0.4661860000000  0.5617530000000 1.0
C      1  0.5515940000000  0.4665240000000  0.4382000000000 1.0
C      1  0.4485240000000  0.5338290000000  0.4391270000000 1.0
C      1  0.5954470000000  0.5119000000000  0.5083640000000 1.0
C      1  0.4037940000000  0.4876500000000  0.5088050000000 1.0
C      1  0.4038790000000  0.5121580000000  0.4920390000000 1.0
C      1  0.5966580000000  0.4876160000000  0.4914840000000 1.0
C      1  0.5121300000000  0.5964460000000  0.5085700000000 1.0
C      1  0.4877190000000  0.4032750000000  0.5085970000000 1.0
C      1  0.5118580000000  0.4048800000000  0.4922220000000 1.0
C      1  0.4881080000000  0.5948620000000  0.4929640000000 1.0
C      1  0.5016350000000  0.4833770000000  0.5272290000000 1.0
C      1  0.4945170000000  0.5370510000000  0.5157720000000 1.0
C      1  0.5017590000000  0.4700580000000  0.4746870000000 1.0
C      1  0.4991220000000  0.5278300000000  0.4696790000000 1.0
C      1  0.4754670000000  0.4961800000000  0.5271290000000 1.0
C      1  0.5256580000000  0.4990060000000  0.5269570000000 1.0
C      1  0.4701080000000  0.5008280000000  0.4771080000000 1.0
C      1  0.5299650000000  0.4991600000000  0.4754070000000 1.0
C      1  0.4914580000000  0.5902110000000  0.4659560000000 1.0
C      1  0.5081990000000  0.4090740000000  0.4649520000000 1.0
C      1  0.5085050000000  0.5915850000000  0.5359420000000 1.0
C      1  0.4914990000000  0.4081690000000  0.5361500000000 1.0
C      1  0.5914580000000  0.4915780000000  0.4638530000000 1.0
C      1  0.4096790000000  0.5083550000000  0.4646780000000 1.0
C      1  0.5893710000000  0.5079840000000  0.5357630000000 1.0
C      1  0.4096190000000  0.4918230000000  0.5361750000000 1.0
C      1  0.4777990000000  0.4891790000000  0.5966540000000 1.0
C      1  0.5221540000000  0.4892910000000  0.4060070000000 1.0
C      1  0.4782630000000  0.5112920000000  0.4058580000000 1.0
C      1  0.5226500000000  0.5114520000000  0.5945350000000 1.0
C      1  0.5011610000000  0.4995720000000  0.4815780000000 1.0
END
