TITL C-2441168-9922-143 0.0138713087625087 125000 -8724.58668822977 0 0 65 (C1) n - 1
REM
REM in /home/bkarasulu/work/CARBON/AIRSS/Generating-Clusters/ReaxFF-fromJPCA2015/Units_Real/with-SteepDescent/Higher-Symm
REM
REM
REM
REM
REM
REM ./C.cell (1df0a924f5614ab8850e4351716899ee)
REM
REM compiler GCC version 9.2.1 20190827 (Red Hat 9.2.1-1)
REM options -cpp -mtune=generic -march=x86-64 -g -O0 -fpre-include=/usr/include/finclude/math-vector-fortran.h
REM seed -1480244929 1694333364 485436799 -523478464 -733095260 797277015 -104621099 -22919777 -1445781855 775290251 -1760754103 -948554076 1454202768 -1972380513 -981287894 1211445535 -209036103 -44354042 -1239631695 -1897776342 -1044609483 -893105341 -1587640039 -351190474 -213022618 1543359108 956694724 2034474707 1518158879 -662072105 8315997 -161856513 -1188229213
REM
CELL 1.54180   50.00000   50.00000   50.00000   90.00000   90.00000   90.00000
LATT -1
SFAC C  
C      1  0.4644300000000  0.5420020000000  0.4593590000000 1.0
C      1  0.5381250000000  0.4486770000000  0.4515820000000 1.0
C      1  0.4718200000000  0.4591180000000  0.4520450000000 1.0
C      1  0.5315710000000  0.5393060000000  0.4542790000000 1.0
C      1  0.4480690000000  0.4682860000000  0.5367090000000 1.0
C      1  0.5516240000000  0.5296710000000  0.5392780000000 1.0
C      1  0.4461990000000  0.5324150000000  0.5358320000000 1.0
C      1  0.5552510000000  0.4708470000000  0.5395410000000 1.0
C      1  0.5410320000000  0.4860150000000  0.4777790000000 1.0
C      1  0.4395190000000  0.5122650000000  0.4831380000000 1.0
C      1  0.5574670000000  0.5098820000000  0.4815140000000 1.0
C      1  0.4544220000000  0.4875410000000  0.4811520000000 1.0
C      1  0.4733140000000  0.5343580000000  0.5486390000000 1.0
C      1  0.5277030000000  0.4691720000000  0.5488090000000 1.0
C      1  0.4742560000000  0.4699710000000  0.5512110000000 1.0
C      1  0.5236710000000  0.5333330000000  0.5518180000000 1.0
C      1  0.5154850000000  0.4814280000000  0.4392770000000 1.0
C      1  0.4845960000000  0.5056250000000  0.4287100000000 1.0
C      1  0.5133300000000  0.5112860000000  0.4317400000000 1.0
C      1  0.4864440000000  0.4764040000000  0.4334860000000 1.0
C      1  0.5134700000000  0.4858820000000  0.4685200000000 1.0
C      1  0.4825320000000  0.5204280000000  0.4554590000000 1.0
C      1  0.5107690000000  0.5229360000000  0.4559220000000 1.0
C      1  0.4837310000000  0.4960930000000  0.4801300000000 1.0
C      1  0.4879640000000  0.5553220000000  0.5346730000000 1.0
C      1  0.5140200000000  0.4498190000000  0.5326140000000 1.0
C      1  0.4858230000000  0.4519430000000  0.5322880000000 1.0
C      1  0.5164330000000  0.5593160000000  0.5414120000000 1.0
C      1  0.4272880000000  0.5112700000000  0.5279760000000 1.0
C      1  0.5729590000000  0.4854180000000  0.5215850000000 1.0
C      1  0.4278850000000  0.4828690000000  0.5238490000000 1.0
C      1  0.5739470000000  0.5148440000000  0.5266010000000 1.0
C      1  0.5242620000000  0.4416440000000  0.4785630000000 1.0
C      1  0.4756480000000  0.5530390000000  0.4832960000000 1.0
C      1  0.5284990000000  0.5527160000000  0.4807070000000 1.0
C      1  0.4785510000000  0.4462390000000  0.4784750000000 1.0
C      1  0.4611870000000  0.4242820000000  0.5100030000000 1.0
C      1  0.5331860000000  0.5705510000000  0.5183640000000 1.0
C      1  0.4649250000000  0.5786210000000  0.5135270000000 1.0
C      1  0.5398940000000  0.4255370000000  0.5132150000000 1.0
C      1  0.5164320000000  0.5757210000000  0.4936580000000 1.0
C      1  0.4860460000000  0.4209540000000  0.4912710000000 1.0
C      1  0.5172170000000  0.4178320000000  0.4945630000000 1.0
C      1  0.4863410000000  0.5782520000000  0.4935330000000 1.0
C      1  0.5159530000000  0.4584810000000  0.5028980000000 1.0
C      1  0.4882170000000  0.5376790000000  0.5061330000000 1.0
C      1  0.5182160000000  0.5354570000000  0.5018280000000 1.0
C      1  0.4865050000000  0.4603030000000  0.5037280000000 1.0
C      1  0.5552920000000  0.4729970000000  0.4545780000000 1.0
C      1  0.4401350000000  0.5257230000000  0.4569220000000 1.0
C      1  0.5569810000000  0.5223080000000  0.4548990000000 1.0
C      1  0.4480860000000  0.4764460000000  0.4541520000000 1.0
C      1  0.4483290000000  0.5584400000000  0.5246580000000 1.0
C      1  0.5538460000000  0.4483090000000  0.5234940000000 1.0
C      1  0.4467900000000  0.4470120000000  0.5203130000000 1.0
C      1  0.5519110000000  0.5493900000000  0.5221670000000 1.0
C      1  0.5007560000000  0.4862600000000  0.5521890000000 1.0
C      1  0.4980560000000  0.5197740000000  0.5564490000000 1.0
C      1  0.5612780000000  0.4982850000000  0.4383620000000 1.0
C      1  0.4395050000000  0.5014210000000  0.4395820000000 1.0
C      1  0.5767580000000  0.5053310000000  0.5011430000000 1.0
C      1  0.4223540000000  0.5013230000000  0.5019920000000 1.0
C      1  0.4891650000000  0.5068960000000  0.5069250000000 1.0
C      1  0.5191070000000  0.5066170000000  0.5106510000000 1.0
C      1  0.4933380000000  0.4925250000000  0.5797760000000 1.0
END
