TITL C-2441161-5029-1328 0.154510321209703 125000 -19981.1932013411 0 0 166 (C1) n - 1
REM
REM in /home/bkarasulu/work/CARBON/AIRSS/Generating-Clusters/ReaxFF-fromJPCA2015/Units_Real/with-SteepDescent/Higher-Symm
REM
REM
REM
REM
REM
REM ./C.cell (1df0a924f5614ab8850e4351716899ee)
REM
REM compiler GCC version 9.2.1 20190827 (Red Hat 9.2.1-1)
REM options -cpp -mtune=generic -march=x86-64 -g -O0 -fpre-include=/usr/include/finclude/math-vector-fortran.h
REM seed -1895752981 -123300868 -277046279 147698171 -992906039 -509583993 374047784 797452332 -672909261 2036984784 239351739 -764479535 1102719037 1261658138 -1639232897 -69630209 1193136883 -1369676218 -1023276140 439320845 1763699689 1477651355 1561117786 1976269487 1806233811 548398499 -986887747 787641043 1739760417 -1774133729 -1435965808 1136869035 -436255824
REM
CELL 1.54180   50.00000   50.00000   50.00000   90.00000   90.00000   90.00000
LATT -1
SFAC C  
C      1  0.4379960000000  0.5226380000000  0.5658850000000 1.0
C      1  0.5658760000000  0.4365420000000  0.5216690000000 1.0
C      1  0.5224960000000  0.5664080000000  0.4342440000000 1.0
C      1  0.5590430000000  0.5238070000000  0.4353890000000 1.0
C      1  0.4416610000000  0.4772450000000  0.4345340000000 1.0
C      1  0.5622460000000  0.4771460000000  0.5641400000000 1.0
C      1  0.4394590000000  0.4402590000000  0.4783020000000 1.0
C      1  0.5641330000000  0.5583780000000  0.4792030000000 1.0
C      1  0.4340610000000  0.5637000000000  0.5234220000000 1.0
C      1  0.4745330000000  0.5697530000000  0.5646140000000 1.0
C      1  0.5225350000000  0.4350570000000  0.5616230000000 1.0
C      1  0.4768740000000  0.4360940000000  0.4387710000000 1.0
C      1  0.4691240000000  0.5990060000000  0.5277530000000 1.0
C      1  0.5275500000000  0.4676830000000  0.5980940000000 1.0
C      1  0.5982480000000  0.5253530000000  0.4689040000000 1.0
C      1  0.5272450000000  0.5955800000000  0.4724360000000 1.0
C      1  0.4692100000000  0.4020390000000  0.4725230000000 1.0
C      1  0.5296080000000  0.4022680000000  0.5288640000000 1.0
C      1  0.4753360000000  0.4669970000000  0.4012680000000 1.0
C      1  0.5269070000000  0.5275220000000  0.4015730000000 1.0
C      1  0.4724700000000  0.5302840000000  0.5969460000000 1.0
C      1  0.4016760000000  0.5265380000000  0.5320070000000 1.0
C      1  0.5965630000000  0.4736630000000  0.5284940000000 1.0
C      1  0.4044800000000  0.4719370000000  0.4719010000000 1.0
C      1  0.5491030000000  0.4311330000000  0.5687330000000 1.0
C      1  0.5673960000000  0.5492780000000  0.4314450000000 1.0
C      1  0.4301700000000  0.5697230000000  0.5508350000000 1.0
C      1  0.4508560000000  0.4298410000000  0.4309750000000 1.0
C      1  0.5504160000000  0.5692040000000  0.4312550000000 1.0
C      1  0.4486050000000  0.5704360000000  0.5701930000000 1.0
C      1  0.4311430000000  0.5494770000000  0.5703120000000 1.0
C      1  0.5690330000000  0.4506340000000  0.5687800000000 1.0
C      1  0.4315590000000  0.4504550000000  0.4310650000000 1.0
C      1  0.5697230000000  0.5684720000000  0.4516660000000 1.0
C      1  0.4319860000000  0.4310870000000  0.4516930000000 1.0
C      1  0.5695250000000  0.4302710000000  0.5494060000000 1.0
C      1  0.5846860000000  0.4473750000000  0.4807770000000 1.0
C      1  0.4808760000000  0.5846860000000  0.4483450000000 1.0
C      1  0.4519060000000  0.4801050000000  0.5865890000000 1.0
C      1  0.4159430000000  0.4530060000000  0.5213540000000 1.0
C      1  0.5812730000000  0.5490640000000  0.5208580000000 1.0
C      1  0.4178860000000  0.5494650000000  0.4833850000000 1.0
C      1  0.5144670000000  0.5759060000000  0.5488400000000 1.0
C      1  0.4808170000000  0.4160260000000  0.5475470000000 1.0
C      1  0.5194380000000  0.4172440000000  0.4529630000000 1.0
C      1  0.5491360000000  0.4795890000000  0.4158730000000 1.0
C      1  0.4573590000000  0.5153600000000  0.4190840000000 1.0
C      1  0.5496380000000  0.5154730000000  0.5860350000000 1.0
C      1  0.4143960000000  0.5116600000000  0.5541590000000 1.0
C      1  0.5523970000000  0.4126450000000  0.5128660000000 1.0
C      1  0.5127430000000  0.5516490000000  0.4110740000000 1.0
C      1  0.5846600000000  0.5149720000000  0.4454650000000 1.0
C      1  0.4163140000000  0.4854670000000  0.4481380000000 1.0
C      1  0.5863430000000  0.4879450000000  0.5514310000000 1.0
C      1  0.4472230000000  0.4132800000000  0.4877490000000 1.0
C      1  0.5521380000000  0.5849310000000  0.4848940000000 1.0
C      1  0.4473310000000  0.5860720000000  0.5117740000000 1.0
C      1  0.4858640000000  0.5548400000000  0.5850950000000 1.0
C      1  0.5128330000000  0.4456430000000  0.5854860000000 1.0
C      1  0.4886750000000  0.4437960000000  0.4148050000000 1.0
C      1  0.5430270000000  0.5937750000000  0.5127420000000 1.0
C      1  0.5129180000000  0.5448440000000  0.5892630000000 1.0
C      1  0.5937600000000  0.5138250000000  0.5393370000000 1.0
C      1  0.4525940000000  0.5859300000000  0.4837220000000 1.0
C      1  0.5403090000000  0.4058570000000  0.4869030000000 1.0
C      1  0.4592320000000  0.4061300000000  0.5130740000000 1.0
C      1  0.4865530000000  0.5388370000000  0.4048440000000 1.0
C      1  0.5172250000000  0.4533020000000  0.4125660000000 1.0
C      1  0.4871790000000  0.4581970000000  0.5921650000000 1.0
C      1  0.4066520000000  0.5108300000000  0.4576160000000 1.0
C      1  0.5898370000000  0.4870430000000  0.4521630000000 1.0
C      1  0.4062950000000  0.4858830000000  0.5426380000000 1.0
C      1  0.4627730000000  0.5641910000000  0.4372200000000 1.0
C      1  0.4438250000000  0.4571690000000  0.5687180000000 1.0
C      1  0.5632790000000  0.4450180000000  0.4532660000000 1.0
C      1  0.5443330000000  0.5605880000000  0.5647140000000 1.0
C      1  0.4576970000000  0.4324740000000  0.5567110000000 1.0
C      1  0.5390260000000  0.4356430000000  0.4427550000000 1.0
C      1  0.5659900000000  0.4662790000000  0.4364380000000 1.0
C      1  0.4373190000000  0.5551350000000  0.4471580000000 1.0
C      1  0.5588280000000  0.5367680000000  0.5677500000000 1.0
C      1  0.4333050000000  0.4438900000000  0.5445200000000 1.0
C      1  0.5579610000000  0.5679650000000  0.5407240000000 1.0
C      1  0.4318430000000  0.5712630000000  0.4703810000000 1.0
C      1  0.5023990000000  0.4776580000000  0.6088070000000 1.0
C      1  0.6049620000000  0.4984250000000  0.4760320000000 1.0
C      1  0.4796630000000  0.6093110000000  0.5038030000000 1.0
C      1  0.5020990000000  0.4753520000000  0.3944650000000 1.0
C      1  0.5006830000000  0.5155850000000  0.3964500000000 1.0
C      1  0.4990070000000  0.5237980000000  0.6069280000000 1.0
C      1  0.3903660000000  0.5016420000000  0.5220800000000 1.0
C      1  0.6038680000000  0.4989600000000  0.5161140000000 1.0
C      1  0.3970150000000  0.4983570000000  0.4820270000000 1.0
C      1  0.5182300000000  0.6035670000000  0.4982040000000 1.0
C      1  0.4800020000000  0.3914960000000  0.4974790000000 1.0
C      1  0.5193610000000  0.3920450000000  0.5035870000000 1.0
C      1  0.4271360000000  0.5310180000000  0.4625080000000 1.0
C      1  0.4819570000000  0.4261250000000  0.5194820000000 1.0
C      1  0.5254410000000  0.4749550000000  0.4265940000000 1.0
C      1  0.5680800000000  0.5285590000000  0.5370960000000 1.0
C      1  0.4236770000000  0.4773240000000  0.5239620000000 1.0
C      1  0.5743050000000  0.4746890000000  0.4809230000000 1.0
C      1  0.5183240000000  0.4249640000000  0.4817670000000 1.0
C      1  0.4791860000000  0.5748650000000  0.4758240000000 1.0
C      1  0.5354560000000  0.5772230000000  0.5300430000000 1.0
C      1  0.4786690000000  0.4808190000000  0.5732590000000 1.0
C      1  0.5225990000000  0.5202610000000  0.5753960000000 1.0
C      1  0.4711840000000  0.5402360000000  0.4250320000000 1.0
C      1  0.5140760000000  0.5566780000000  0.4792720000000 1.0
C      1  0.4752590000000  0.5182030000000  0.5557450000000 1.0
C      1  0.5558250000000  0.4782950000000  0.5149810000000 1.0
C      1  0.4891680000000  0.5594050000000  0.5154430000000 1.0
C      1  0.5173060000000  0.4435910000000  0.5227730000000 1.0
C      1  0.4814070000000  0.4449460000000  0.4769780000000 1.0
C      1  0.5212690000000  0.5162660000000  0.4422740000000 1.0
C      1  0.4813270000000  0.4852060000000  0.4401150000000 1.0
C      1  0.5246730000000  0.4800950000000  0.5563480000000 1.0
C      1  0.4451890000000  0.4782630000000  0.4812700000000 1.0
C      1  0.5608840000000  0.5180770000000  0.4872150000000 1.0
C      1  0.4402860000000  0.5156270000000  0.5118200000000 1.0
C      1  0.4636720000000  0.4932730000000  0.5502440000000 1.0
C      1  0.5496120000000  0.4626540000000  0.4928400000000 1.0
C      1  0.4903810000000  0.5485950000000  0.4644860000000 1.0
C      1  0.5296690000000  0.4911220000000  0.4547600000000 1.0
C      1  0.4656920000000  0.5077010000000  0.4458320000000 1.0
C      1  0.5321900000000  0.5071470000000  0.5510090000000 1.0
C      1  0.4507150000000  0.4679530000000  0.5064540000000 1.0
C      1  0.5476950000000  0.5287970000000  0.5115180000000 1.0
C      1  0.4536950000000  0.5295010000000  0.4909050000000 1.0
C      1  0.5040050000000  0.5516820000000  0.5363710000000 1.0
C      1  0.4890180000000  0.4539440000000  0.5305880000000 1.0
C      1  0.5063760000000  0.4530300000000  0.4676580000000 1.0
C      1  0.5105100000000  0.4126390000000  0.5491220000000 1.0
C      1  0.5478810000000  0.5104010000000  0.4128290000000 1.0
C      1  0.4130660000000  0.5466300000000  0.5127250000000 1.0
C      1  0.4889320000000  0.4164260000000  0.4542400000000 1.0
C      1  0.5103530000000  0.5864580000000  0.4504010000000 1.0
C      1  0.4872810000000  0.5888800000000  0.5486070000000 1.0
C      1  0.4524110000000  0.5106520000000  0.5872080000000 1.0
C      1  0.5491460000000  0.4867130000000  0.5877540000000 1.0
C      1  0.4542630000000  0.4872130000000  0.4094780000000 1.0
C      1  0.5885030000000  0.5477480000000  0.4924980000000 1.0
C      1  0.4158410000000  0.4522080000000  0.4912750000000 1.0
C      1  0.5860920000000  0.4512660000000  0.5096570000000 1.0
C      1  0.4997510000000  0.4806020000000  0.4630990000000 1.0
C      1  0.4585800000000  0.5029230000000  0.4743390000000 1.0
C      1  0.4774370000000  0.4620120000000  0.4997980000000 1.0
C      1  0.5036860000000  0.4786450000000  0.5371580000000 1.0
C      1  0.4990170000000  0.5229860000000  0.5410120000000 1.0
C      1  0.5015910000000  0.5229490000000  0.4620870000000 1.0
C      1  0.5368820000000  0.5025990000000  0.5227430000000 1.0
C      1  0.4618050000000  0.4980440000000  0.5225090000000 1.0
C      1  0.5379700000000  0.5028990000000  0.4787620000000 1.0
C      1  0.5219560000000  0.4642300000000  0.4984840000000 1.0
C      1  0.4784810000000  0.5363930000000  0.5033600000000 1.0
C      1  0.5229990000000  0.5388030000000  0.5009870000000 1.0
C      1  0.4995910000000  0.4949400000000  0.4170180000000 1.0
C      1  0.5003300000000  0.4117680000000  0.5000680000000 1.0
C      1  0.4999800000000  0.5000220000000  0.5903110000000 1.0
C      1  0.4954040000000  0.5854140000000  0.4986530000000 1.0
C      1  0.4159570000000  0.4991910000000  0.5040970000000 1.0
C      1  0.5837320000000  0.4973520000000  0.4954050000000 1.0
C      1  0.4862370000000  0.5117500000000  0.5151280000000 1.0
C      1  0.5177290000000  0.4856200000000  0.5148300000000 1.0
C      1  0.5164200000000  0.5181030000000  0.4839890000000 1.0
C      1  0.4845270000000  0.4903110000000  0.4877790000000 1.0
END
