TITL C-2441157-2117-486 0.0119049994563312 125000 -11929.3607520622 0 0 81 (C1) n - 1
REM
REM in /home/bkarasulu/work/CARBON/AIRSS/Generating-Clusters/ReaxFF-fromJPCA2015/Units_Real/with-SteepDescent/Higher-Symm
REM
REM
REM
REM
REM
REM ./C.cell (1df0a924f5614ab8850e4351716899ee)
REM
REM compiler GCC version 9.2.1 20190827 (Red Hat 9.2.1-1)
REM options -cpp -mtune=generic -march=x86-64 -g -O0 -fpre-include=/usr/include/finclude/math-vector-fortran.h
REM seed -751718395 -229759730 -1577757050 365929501 -613143424 1059065344 1630253655 -1572736176 -822559246 -544523544 2049816689 2040091042 374156111 742546877 1069924376 1146967670 -2138193486 337782442 -1183243859 59471579 -471386453 -1940499671 1273796122 -623763754 -1412227169 -501686363 1203930625 -1847015305 -466178962 -999247422 719332542 31576830 -1306281112
REM
CELL 1.54180   50.00000   50.00000   50.00000   90.00000   90.00000   90.00000
LATT -1
SFAC C  
C      1  0.5260490000000  0.4880060000000  0.5769320000000 1.0
C      1  0.4506790000000  0.4839000000000  0.5767440000000 1.0
C      1  0.4183590000000  0.4845580000000  0.5075390000000 1.0
C      1  0.4391740000000  0.4866940000000  0.4377340000000 1.0
C      1  0.5060950000000  0.4939880000000  0.4310150000000 1.0
C      1  0.5696180000000  0.4848740000000  0.4548480000000 1.0
C      1  0.5799390000000  0.4817980000000  0.5291470000000 1.0
C      1  0.4648560000000  0.5374060000000  0.4316540000000 1.0
C      1  0.5362490000000  0.5321240000000  0.4212780000000 1.0
C      1  0.5694040000000  0.5345760000000  0.4821200000000 1.0
C      1  0.5668440000000  0.5300590000000  0.5466450000000 1.0
C      1  0.4995940000000  0.5364890000000  0.5680080000000 1.0
C      1  0.4328260000000  0.5272440000000  0.5555180000000 1.0
C      1  0.4270430000000  0.5352900000000  0.4868940000000 1.0
C      1  0.4833260000000  0.4832360000000  0.4277100000000 1.0
C      1  0.5461220000000  0.4758160000000  0.4453470000000 1.0
C      1  0.5772970000000  0.4755140000000  0.5033880000000 1.0
C      1  0.5413870000000  0.4757580000000  0.5582100000000 1.0
C      1  0.4764280000000  0.4770820000000  0.5777500000000 1.0
C      1  0.4289850000000  0.4779630000000  0.5312630000000 1.0
C      1  0.4321690000000  0.4767780000000  0.4626740000000 1.0
C      1  0.4144700000000  0.5147390000000  0.5064130000000 1.0
C      1  0.4421710000000  0.5172720000000  0.4393790000000 1.0
C      1  0.5115410000000  0.5168510000000  0.4118530000000 1.0
C      1  0.5717180000000  0.5155670000000  0.4573920000000 1.0
C      1  0.5845250000000  0.5117800000000  0.5313030000000 1.0
C      1  0.5236810000000  0.5186030000000  0.5763360000000 1.0
C      1  0.4500470000000  0.5141240000000  0.5769630000000 1.0
C      1  0.4915340000000  0.4915260000000  0.5285720000000 1.0
C      1  0.4728800000000  0.5177320000000  0.5245050000000 1.0
C      1  0.4839910000000  0.5053200000000  0.4796680000000 1.0
C      1  0.5074440000000  0.5057650000000  0.4611320000000 1.0
C      1  0.5259290000000  0.5100370000000  0.4800280000000 1.0
C      1  0.5368310000000  0.5141190000000  0.5059230000000 1.0
C      1  0.5177240000000  0.5015970000000  0.5209310000000 1.0
C      1  0.4833550000000  0.5664210000000  0.5257250000000 1.0
C      1  0.4543000000000  0.5616060000000  0.5231030000000 1.0
C      1  0.4675410000000  0.5645610000000  0.4774470000000 1.0
C      1  0.5056860000000  0.5643260000000  0.4487740000000 1.0
C      1  0.5318000000000  0.5649210000000  0.4611350000000 1.0
C      1  0.5420560000000  0.5656930000000  0.5093810000000 1.0
C      1  0.5284130000000  0.5609890000000  0.5338540000000 1.0
C      1  0.4732290000000  0.4269370000000  0.5261720000000 1.0
C      1  0.4709560000000  0.4265020000000  0.4968190000000 1.0
C      1  0.4939180000000  0.4132600000000  0.4838970000000 1.0
C      1  0.5099280000000  0.4246350000000  0.4613520000000 1.0
C      1  0.5347160000000  0.4227320000000  0.4779390000000 1.0
C      1  0.5249640000000  0.4233170000000  0.5235720000000 1.0
C      1  0.5004110000000  0.4270590000000  0.5389970000000 1.0
C      1  0.4622730000000  0.4676470000000  0.4349960000000 1.0
C      1  0.5213900000000  0.4678140000000  0.4357770000000 1.0
C      1  0.5700840000000  0.4650150000000  0.4796260000000 1.0
C      1  0.5569060000000  0.4636610000000  0.5393030000000 1.0
C      1  0.5019040000000  0.4683710000000  0.5737940000000 1.0
C      1  0.4441920000000  0.4669630000000  0.5515680000000 1.0
C      1  0.4325300000000  0.4650100000000  0.4863310000000 1.0
C      1  0.4345700000000  0.5262500000000  0.4625540000000 1.0
C      1  0.4873150000000  0.5283410000000  0.4182090000000 1.0
C      1  0.5552980000000  0.5201130000000  0.4373310000000 1.0
C      1  0.5791080000000  0.5239670000000  0.5064490000000 1.0
C      1  0.5467810000000  0.5221380000000  0.5637670000000 1.0
C      1  0.4753080000000  0.5252360000000  0.5736620000000 1.0
C      1  0.4175570000000  0.5172780000000  0.5337200000000 1.0
C      1  0.5470200000000  0.5416160000000  0.5240520000000 1.0
C      1  0.5025150000000  0.5565080000000  0.5453730000000 1.0
C      1  0.4550580000000  0.5362130000000  0.5380420000000 1.0
C      1  0.4451350000000  0.5578610000000  0.4949240000000 1.0
C      1  0.4777200000000  0.5562820000000  0.4512420000000 1.0
C      1  0.5285240000000  0.5573600000000  0.4344740000000 1.0
C      1  0.5481400000000  0.5555840000000  0.4831790000000 1.0
C      1  0.4750830000000  0.4577170000000  0.4605870000000 1.0
C      1  0.5028920000000  0.4518180000000  0.4541440000000 1.0
C      1  0.5495120000000  0.4453630000000  0.4904410000000 1.0
C      1  0.5442720000000  0.4446020000000  0.5186920000000 1.0
C      1  0.4960610000000  0.4555100000000  0.5467130000000 1.0
C      1  0.4677800000000  0.4530430000000  0.5386370000000 1.0
C      1  0.4584700000000  0.4497140000000  0.4835900000000 1.0
C      1  0.4856130000000  0.4859640000000  0.5009310000000 1.0
C      1  0.5193630000000  0.4083760000000  0.4985510000000 1.0
C      1  0.4880530000000  0.5577560000000  0.4978380000000 1.0
C      1  0.4840710000000  0.5279670000000  0.5000620000000 1.0
END
