TITL C-2441164-471-448 0.00727853781478558 125000 -10042.7782959048 0 0 71 (C2) n - 1
REM
REM in /home/bkarasulu/work/CARBON/AIRSS/Generating-Clusters/ReaxFF-fromJPCA2015/Units_Real/with-SteepDescent/Higher-Symm
REM
REM
REM
REM
REM
REM ./C.cell (1df0a924f5614ab8850e4351716899ee)
REM
REM compiler GCC version 9.2.1 20190827 (Red Hat 9.2.1-1)
REM options -cpp -mtune=generic -march=x86-64 -g -O0 -fpre-include=/usr/include/finclude/math-vector-fortran.h
REM seed -1798116139 -1162781385 -1842540874 -259563155 -511705936 -1397648981 1683823812 43564077 1687144993 1261275526 371796251 -1522882439 36403881 1714350522 -289311752 2043889056 1857712962 194642892 -1293393258 -309502990 323575697 299166769 -517124714 -1760967577 -1964579595 1563617661 1403199028 -408287034 -1312494238 -419047334 -699630299 303862177 978604768
REM
CELL 1.54180   50.00000   50.00000   50.00000   90.00000   90.00000   90.00000
LATT -1
SFAC C  
C      1  0.4856160000000  0.5187830000000  0.4794400000000 1.0
C      1  0.5143420000000  0.4787330000000  0.4802540000000 1.0
C      1  0.4855770000000  0.4795230000000  0.5202280000000 1.0
C      1  0.5142050000000  0.5194140000000  0.5194980000000 1.0
C      1  0.4968920000000  0.4434800000000  0.5559130000000 1.0
C      1  0.5031500000000  0.5556300000000  0.5554960000000 1.0
C      1  0.4969590000000  0.5550480000000  0.4435770000000 1.0
C      1  0.5031120000000  0.4431010000000  0.4439960000000 1.0
C      1  0.4786480000000  0.5409930000000  0.5580030000000 1.0
C      1  0.5213280000000  0.5575440000000  0.4584140000000 1.0
C      1  0.4785900000000  0.4577490000000  0.4416430000000 1.0
C      1  0.5215050000000  0.4410090000000  0.5414320000000 1.0
C      1  0.4515120000000  0.5445080000000  0.5480970000000 1.0
C      1  0.5485660000000  0.5479210000000  0.4548990000000 1.0
C      1  0.4513280000000  0.4541160000000  0.4512390000000 1.0
C      1  0.5487300000000  0.4507830000000  0.5448740000000 1.0
C      1  0.4539320000000  0.4467690000000  0.5327240000000 1.0
C      1  0.5462160000000  0.5324610000000  0.5518190000000 1.0
C      1  0.4540510000000  0.5516670000000  0.4666040000000 1.0
C      1  0.5459900000000  0.4664140000000  0.4471640000000 1.0
C      1  0.5574680000000  0.4573360000000  0.5165040000000 1.0
C      1  0.4428160000000  0.5160810000000  0.5415500000000 1.0
C      1  0.5572590000000  0.5412190000000  0.4832450000000 1.0
C      1  0.4425900000000  0.4824570000000  0.4579350000000 1.0
C      1  0.4800440000000  0.5734860000000  0.4863550000000 1.0
C      1  0.5198370000000  0.4860140000000  0.4255700000000 1.0
C      1  0.4800450000000  0.4250330000000  0.5130880000000 1.0
C      1  0.5199040000000  0.5127490000000  0.5733320000000 1.0
C      1  0.4746700000000  0.4326900000000  0.5388830000000 1.0
C      1  0.5254990000000  0.5385720000000  0.5660020000000 1.0
C      1  0.4747090000000  0.5658440000000  0.4605460000000 1.0
C      1  0.5252330000000  0.4601870000000  0.4331190000000 1.0
C      1  0.4783300000000  0.4245210000000  0.4851380000000 1.0
C      1  0.5216210000000  0.4848490000000  0.5739830000000 1.0
C      1  0.4782750000000  0.5742140000000  0.5142810000000 1.0
C      1  0.5219530000000  0.5139280000000  0.4252810000000 1.0
C      1  0.4964400000000  0.5276780000000  0.4331590000000 1.0
C      1  0.5037540000000  0.4325260000000  0.4712900000000 1.0
C      1  0.4961620000000  0.4707880000000  0.5664030000000 1.0
C      1  0.5036530000000  0.5660500000000  0.5281500000000 1.0
C      1  0.4497370000000  0.4611070000000  0.4951250000000 1.0
C      1  0.5498230000000  0.4947410000000  0.5374820000000 1.0
C      1  0.4505060000000  0.5373100000000  0.5042780000000 1.0
C      1  0.5499750000000  0.5038410000000  0.4620240000000 1.0
C      1  0.4296580000000  0.4939460000000  0.5264520000000 1.0
C      1  0.5706610000000  0.5259930000000  0.5051120000000 1.0
C      1  0.4295080000000  0.5047460000000  0.4728920000000 1.0
C      1  0.5704860000000  0.4724100000000  0.4942420000000 1.0
C      1  0.5474030000000  0.4769680000000  0.4697060000000 1.0
C      1  0.4524620000000  0.4691270000000  0.5218590000000 1.0
C      1  0.5475930000000  0.5215390000000  0.5295540000000 1.0
C      1  0.4525280000000  0.5293290000000  0.4774510000000 1.0
C      1  0.5159240000000  0.4513490000000  0.4893790000000 1.0
C      1  0.4837720000000  0.4887030000000  0.5475910000000 1.0
C      1  0.5155810000000  0.5468130000000  0.5103610000000 1.0
C      1  0.4842790000000  0.5096410000000  0.4520640000000 1.0
C      1  0.5132040000000  0.4603060000000  0.5186660000000 1.0
C      1  0.4868320000000  0.5179890000000  0.5388080000000 1.0
C      1  0.5130890000000  0.5379650000000  0.4810300000000 1.0
C      1  0.4867540000000  0.4803510000000  0.4611790000000 1.0
C      1  0.4540870000000  0.5594760000000  0.5231200000000 1.0
C      1  0.5460260000000  0.5228560000000  0.4401300000000 1.0
C      1  0.4541190000000  0.4391800000000  0.4762120000000 1.0
C      1  0.5459440000000  0.4758880000000  0.5595520000000 1.0
C      1  0.5373670000000  0.5202220000000  0.4829280000000 1.0
C      1  0.4624380000000  0.4821750000000  0.4789790000000 1.0
C      1  0.5373690000000  0.4781330000000  0.5166290000000 1.0
C      1  0.4628490000000  0.5162430000000  0.5206750000000 1.0
C      1  0.4266320000000  0.4994070000000  0.4997030000000 1.0
C      1  0.5735130000000  0.4992030000000  0.4996260000000 1.0
C      1  0.4999150000000  0.4991080000000  0.4999260000000 1.0
END
