TITL C-2441166-8118-914 0.147570743061104 125000 -17893.7114229942 0 0 150 (C1) n - 1
REM
REM in /home/bkarasulu/work/CARBON/AIRSS/Generating-Clusters/ReaxFF-fromJPCA2015/Units_Real/with-SteepDescent/Higher-Symm
REM
REM
REM
REM
REM
REM ./C.cell (1df0a924f5614ab8850e4351716899ee)
REM
REM compiler GCC version 9.2.1 20190827 (Red Hat 9.2.1-1)
REM options -cpp -mtune=generic -march=x86-64 -g -O0 -fpre-include=/usr/include/finclude/math-vector-fortran.h
REM seed -1161692731 1880679210 -1221887654 1891329162 -728310876 140137555 -109428743 1586043187 -523606567 619949549 -738261174 -2001145381 -638810306 1662272254 840052813 -1982854351 -1177031677 -1819890069 -252946746 -198062317 1578735987 1153222813 576761247 -1417836259 -610091477 -1971141656 -1995224811 1913292852 1057978403 542365116 108774485 1763987979 -1173444938
REM
CELL 1.54180   50.00000   50.00000   50.00000   90.00000   90.00000   90.00000
LATT -1
SFAC C  
C      1  0.4466030000000  0.4157100000000  0.4859620000000 1.0
C      1  0.5519970000000  0.4158940000000  0.5143730000000 1.0
C      1  0.4481950000000  0.5876720000000  0.4851650000000 1.0
C      1  0.5550490000000  0.5813740000000  0.5139210000000 1.0
C      1  0.4474790000000  0.4159190000000  0.5144960000000 1.0
C      1  0.5528980000000  0.4149790000000  0.4856070000000 1.0
C      1  0.4476870000000  0.5866260000000  0.5136510000000 1.0
C      1  0.5551720000000  0.5804400000000  0.4865250000000 1.0
C      1  0.5923310000000  0.4858740000000  0.5403150000000 1.0
C      1  0.4079760000000  0.4836850000000  0.4581930000000 1.0
C      1  0.5921540000000  0.5152940000000  0.5410900000000 1.0
C      1  0.4071230000000  0.5134860000000  0.4594060000000 1.0
C      1  0.5919290000000  0.4858760000000  0.4593320000000 1.0
C      1  0.4074060000000  0.4836820000000  0.5411660000000 1.0
C      1  0.5923500000000  0.5152940000000  0.4588820000000 1.0
C      1  0.4061500000000  0.5134870000000  0.5404470000000 1.0
C      1  0.5594140000000  0.5414120000000  0.5709500000000 1.0
C      1  0.4395050000000  0.5427900000000  0.4328850000000 1.0
C      1  0.5612130000000  0.4576890000000  0.5717600000000 1.0
C      1  0.4403930000000  0.4580970000000  0.4282240000000 1.0
C      1  0.5604920000000  0.5419580000000  0.4286870000000 1.0
C      1  0.4386750000000  0.5416640000000  0.5736140000000 1.0
C      1  0.5598940000000  0.4583090000000  0.4293400000000 1.0
C      1  0.4400380000000  0.4572200000000  0.5714250000000 1.0
C      1  0.4257310000000  0.5682960000000  0.4818550000000 1.0
C      1  0.5766490000000  0.5643130000000  0.5252080000000 1.0
C      1  0.4228490000000  0.4344650000000  0.4856140000000 1.0
C      1  0.5759720000000  0.4339410000000  0.5140850000000 1.0
C      1  0.4282940000000  0.5644720000000  0.5117850000000 1.0
C      1  0.5764280000000  0.5630030000000  0.4749040000000 1.0
C      1  0.4226320000000  0.4335660000000  0.5147750000000 1.0
C      1  0.5760550000000  0.4335970000000  0.4852780000000 1.0
C      1  0.4686280000000  0.5526200000000  0.5810460000000 1.0
C      1  0.5325400000000  0.5510760000000  0.4195510000000 1.0
C      1  0.4687690000000  0.4479020000000  0.5785750000000 1.0
C      1  0.5311890000000  0.4463340000000  0.4201350000000 1.0
C      1  0.4677820000000  0.5506620000000  0.4224240000000 1.0
C      1  0.5309240000000  0.5510250000000  0.5790470000000 1.0
C      1  0.4690290000000  0.4468460000000  0.4206880000000 1.0
C      1  0.5324530000000  0.4475480000000  0.5807530000000 1.0
C      1  0.5229660000000  0.5284710000000  0.5614650000000 1.0
C      1  0.4764090000000  0.5280850000000  0.4393120000000 1.0
C      1  0.5253140000000  0.4700450000000  0.5634890000000 1.0
C      1  0.4801340000000  0.4694280000000  0.4355080000000 1.0
C      1  0.5243160000000  0.5284600000000  0.4356640000000 1.0
C      1  0.4748180000000  0.5294860000000  0.5639140000000 1.0
C      1  0.5212150000000  0.4689540000000  0.4360070000000 1.0
C      1  0.4763090000000  0.4716380000000  0.5601470000000 1.0
C      1  0.5142130000000  0.5780470000000  0.4609460000000 1.0
C      1  0.4869010000000  0.5771340000000  0.5380670000000 1.0
C      1  0.5142180000000  0.4223790000000  0.4609550000000 1.0
C      1  0.4860180000000  0.4227170000000  0.5388490000000 1.0
C      1  0.5144790000000  0.5779080000000  0.5384510000000 1.0
C      1  0.4869820000000  0.5778730000000  0.4609950000000 1.0
C      1  0.5145800000000  0.4230900000000  0.5388650000000 1.0
C      1  0.4862460000000  0.4224440000000  0.4609590000000 1.0
C      1  0.5271210000000  0.5889930000000  0.5145850000000 1.0
C      1  0.4763840000000  0.5899670000000  0.4846690000000 1.0
C      1  0.5235960000000  0.4094050000000  0.5145020000000 1.0
C      1  0.4752700000000  0.4091200000000  0.4849460000000 1.0
C      1  0.5274810000000  0.5881210000000  0.4849070000000 1.0
C      1  0.4762010000000  0.5894300000000  0.5140820000000 1.0
C      1  0.5241430000000  0.4086940000000  0.4849230000000 1.0
C      1  0.4759410000000  0.4096440000000  0.5144970000000 1.0
C      1  0.4362380000000  0.5175480000000  0.4855740000000 1.0
C      1  0.5623530000000  0.5186010000000  0.5146120000000 1.0
C      1  0.4381130000000  0.4800390000000  0.4856630000000 1.0
C      1  0.5619420000000  0.4810350000000  0.5143050000000 1.0
C      1  0.4367360000000  0.5166730000000  0.5139360000000 1.0
C      1  0.5617380000000  0.5173660000000  0.4859480000000 1.0
C      1  0.4373510000000  0.4805690000000  0.5146290000000 1.0
C      1  0.5626060000000  0.4808760000000  0.4858270000000 1.0
C      1  0.4485110000000  0.5436560000000  0.5221380000000 1.0
C      1  0.5453660000000  0.5377680000000  0.4743420000000 1.0
C      1  0.4526050000000  0.4581880000000  0.5246320000000 1.0
C      1  0.5471430000000  0.4596140000000  0.4751420000000 1.0
C      1  0.4508560000000  0.5383590000000  0.4747260000000 1.0
C      1  0.5470080000000  0.5388500000000  0.5253520000000 1.0
C      1  0.4534010000000  0.4579790000000  0.4752420000000 1.0
C      1  0.5471010000000  0.4595310000000  0.5248540000000 1.0
C      1  0.5216640000000  0.4607330000000  0.5135370000000 1.0
C      1  0.4795000000000  0.4583950000000  0.4803690000000 1.0
C      1  0.5217180000000  0.5363820000000  0.5217160000000 1.0
C      1  0.4762100000000  0.5345360000000  0.4830210000000 1.0
C      1  0.5215890000000  0.4644000000000  0.4846950000000 1.0
C      1  0.4794870000000  0.4616420000000  0.5196460000000 1.0
C      1  0.5191210000000  0.5398310000000  0.4825870000000 1.0
C      1  0.4797230000000  0.5387870000000  0.5109140000000 1.0
C      1  0.5578230000000  0.5556600000000  0.4540720000000 1.0
C      1  0.4420110000000  0.5532830000000  0.5488590000000 1.0
C      1  0.5568620000000  0.4442640000000  0.4530090000000 1.0
C      1  0.4416840000000  0.4435740000000  0.5468900000000 1.0
C      1  0.5587360000000  0.5563830000000  0.5460950000000 1.0
C      1  0.4389920000000  0.5583240000000  0.4575740000000 1.0
C      1  0.5567900000000  0.4448790000000  0.5472660000000 1.0
C      1  0.4426560000000  0.4446760000000  0.4522020000000 1.0
C      1  0.4122240000000  0.4653150000000  0.5179300000000 1.0
C      1  0.5885930000000  0.4663030000000  0.4840830000000 1.0
C      1  0.4094850000000  0.5278310000000  0.5142640000000 1.0
C      1  0.5869190000000  0.5354340000000  0.4825010000000 1.0
C      1  0.4127180000000  0.4649880000000  0.4820000000000 1.0
C      1  0.5881010000000  0.4666410000000  0.5151840000000 1.0
C      1  0.4095910000000  0.5307590000000  0.4844530000000 1.0
C      1  0.5863200000000  0.5361430000000  0.5177140000000 1.0
C      1  0.5727200000000  0.5160530000000  0.4373910000000 1.0
C      1  0.4269660000000  0.5144560000000  0.5615870000000 1.0
C      1  0.5722490000000  0.4845470000000  0.4382120000000 1.0
C      1  0.4276400000000  0.4849930000000  0.5624100000000 1.0
C      1  0.5723600000000  0.5155550000000  0.5624450000000 1.0
C      1  0.4279830000000  0.5154210000000  0.4387770000000 1.0
C      1  0.5727040000000  0.4842920000000  0.5616170000000 1.0
C      1  0.4281680000000  0.4849080000000  0.4373090000000 1.0
C      1  0.5148360000000  0.5201650000000  0.6016150000000 1.0
C      1  0.4861850000000  0.5203960000000  0.3999110000000 1.0
C      1  0.5138100000000  0.4783740000000  0.6012230000000 1.0
C      1  0.4864190000000  0.4789410000000  0.3976960000000 1.0
C      1  0.5138660000000  0.5213010000000  0.3985710000000 1.0
C      1  0.4876040000000  0.5200860000000  0.6016490000000 1.0
C      1  0.5140560000000  0.4778410000000  0.3980860000000 1.0
C      1  0.4865300000000  0.4790890000000  0.6014940000000 1.0
C      1  0.5122730000000  0.5156650000000  0.4733660000000 1.0
C      1  0.4828980000000  0.5155360000000  0.5276640000000 1.0
C      1  0.5220760000000  0.4904970000000  0.4737790000000 1.0
C      1  0.4772790000000  0.4892090000000  0.5235680000000 1.0
C      1  0.5221460000000  0.5088560000000  0.5229360000000 1.0
C      1  0.4749290000000  0.5076680000000  0.4796020000000 1.0
C      1  0.5156710000000  0.4837440000000  0.5283440000000 1.0
C      1  0.4834580000000  0.4842390000000  0.4734030000000 1.0
C      1  0.5147620000000  0.4237970000000  0.4312580000000 1.0
C      1  0.4855030000000  0.4251470000000  0.5690540000000 1.0
C      1  0.5151330000000  0.5722570000000  0.4315810000000 1.0
C      1  0.4856520000000  0.5735810000000  0.5678170000000 1.0
C      1  0.5150090000000  0.4258900000000  0.5688610000000 1.0
C      1  0.4852020000000  0.4239810000000  0.4311160000000 1.0
C      1  0.5150810000000  0.5739470000000  0.5682370000000 1.0
C      1  0.4857440000000  0.5727390000000  0.4316390000000 1.0
C      1  0.5331050000000  0.5118120000000  0.5815860000000 1.0
C      1  0.4670580000000  0.5111850000000  0.4184850000000 1.0
C      1  0.5335930000000  0.4866510000000  0.5827080000000 1.0
C      1  0.4676350000000  0.4858710000000  0.4180020000000 1.0
C      1  0.5339990000000  0.5116580000000  0.4167340000000 1.0
C      1  0.4660310000000  0.5134460000000  0.5846050000000 1.0
C      1  0.5335000000000  0.4855710000000  0.4177130000000 1.0
C      1  0.4670250000000  0.4874660000000  0.5828940000000 1.0
C      1  0.4975740000000  0.5232170000000  0.5507330000000 1.0
C      1  0.5019720000000  0.5258130000000  0.4501300000000 1.0
C      1  0.5029340000000  0.4735550000000  0.5507960000000 1.0
C      1  0.5012240000000  0.4830450000000  0.4493220000000 1.0
C      1  0.4958390000000  0.4470450000000  0.5005100000000 1.0
C      1  0.5047120000000  0.5510840000000  0.5042170000000 1.0
END
