TITL C-2441161-5029-1196 0.0275268484652243 125000 -13997.3628895914 0 0 99 (C1) n - 1
REM
REM in /home/bkarasulu/work/CARBON/AIRSS/Generating-Clusters/ReaxFF-fromJPCA2015/Units_Real/with-SteepDescent/Higher-Symm
REM
REM
REM
REM
REM
REM ./C.cell (1df0a924f5614ab8850e4351716899ee)
REM
REM compiler GCC version 9.2.1 20190827 (Red Hat 9.2.1-1)
REM options -cpp -mtune=generic -march=x86-64 -g -O0 -fpre-include=/usr/include/finclude/math-vector-fortran.h
REM seed 2063820535 -877199635 -1473570134 -986580110 -984595647 -967512051 -1588137961 -37588054 1806819400 -1578100737 1218053525 -277976281 359385323 776679566 1120048582 -2087025983 1844927456 -1378815475 -495790523 1063995244 -1071778366 2074762878 -2145961681 2079681705 221367304 600506385 -108012188 -1871381661 -838332139 548626577 -779349551 -340164543 -1283947595
REM
CELL 1.54180   50.00000   50.00000   50.00000   90.00000   90.00000   90.00000
LATT -1
SFAC C  
C      1  0.5758110000000  0.4752720000000  0.5268340000000 1.0
C      1  0.4849060000000  0.4750000000000  0.4206150000000 1.0
C      1  0.4414660000000  0.4740270000000  0.5517820000000 1.0
C      1  0.4262580000000  0.4744210000000  0.5253730000000 1.0
C      1  0.5144690000000  0.4746790000000  0.4201380000000 1.0
C      1  0.5613340000000  0.4748700000000  0.5524170000000 1.0
C      1  0.5562030000000  0.5536280000000  0.4504680000000 1.0
C      1  0.4291450000000  0.5536060000000  0.4758620000000 1.0
C      1  0.5140480000000  0.5539350000000  0.5739810000000 1.0
C      1  0.4436070000000  0.5529750000000  0.4505880000000 1.0
C      1  0.5716010000000  0.5542030000000  0.4754230000000 1.0
C      1  0.4849200000000  0.5534160000000  0.5734360000000 1.0
C      1  0.4252110000000  0.4553530000000  0.5048420000000 1.0
C      1  0.5432780000000  0.4544830000000  0.5651720000000 1.0
C      1  0.5348230000000  0.4546310000000  0.4302630000000 1.0
C      1  0.5747240000000  0.4556090000000  0.5038640000000 1.0
C      1  0.4578300000000  0.4546780000000  0.5634970000000 1.0
C      1  0.4648020000000  0.4547040000000  0.4301700000000 1.0
C      1  0.4371540000000  0.5275460000000  0.5533310000000 1.0
C      1  0.5774230000000  0.5268880000000  0.5288740000000 1.0
C      1  0.4850020000000  0.5265960000000  0.4203020000000 1.0
C      1  0.5617350000000  0.5262610000000  0.5517310000000 1.0
C      1  0.4217770000000  0.5278820000000  0.5287120000000 1.0
C      1  0.5140740000000  0.5264880000000  0.4202880000000 1.0
C      1  0.5254110000000  0.4955080000000  0.4612190000000 1.0
C      1  0.4531310000000  0.5005940000000  0.4995090000000 1.0
C      1  0.5201370000000  0.4974020000000  0.5437110000000 1.0
C      1  0.4718730000000  0.4987340000000  0.4603100000000 1.0
C      1  0.5478430000000  0.5003760000000  0.4986830000000 1.0
C      1  0.4760630000000  0.5002410000000  0.5393010000000 1.0
C      1  0.4857420000000  0.5543160000000  0.4288040000000 1.0
C      1  0.4451390000000  0.5554280000000  0.5479310000000 1.0
C      1  0.5703460000000  0.5552890000000  0.5238230000000 1.0
C      1  0.5136030000000  0.5548680000000  0.4286150000000 1.0
C      1  0.5549030000000  0.5548600000000  0.5490210000000 1.0
C      1  0.4308360000000  0.5557270000000  0.5240500000000 1.0
C      1  0.5713480000000  0.5019910000000  0.5160830000000 1.0
C      1  0.4775990000000  0.5009000000000  0.4323020000000 1.0
C      1  0.4510770000000  0.5017930000000  0.5520480000000 1.0
C      1  0.4292530000000  0.5021860000000  0.5162600000000 1.0
C      1  0.5223630000000  0.5005750000000  0.4310090000000 1.0
C      1  0.5474620000000  0.5008680000000  0.5535700000000 1.0
C      1  0.4250070000000  0.5242000000000  0.4741760000000 1.0
C      1  0.5144800000000  0.5240790000000  0.5773160000000 1.0
C      1  0.5587710000000  0.5237780000000  0.4495700000000 1.0
C      1  0.5746030000000  0.5242070000000  0.4739160000000 1.0
C      1  0.4855020000000  0.5233980000000  0.5768870000000 1.0
C      1  0.4397840000000  0.5234820000000  0.4494530000000 1.0
C      1  0.4128890000000  0.4980290000000  0.4678570000000 1.0
C      1  0.5152180000000  0.4969380000000  0.5913590000000 1.0
C      1  0.5711190000000  0.4973780000000  0.4410140000000 1.0
C      1  0.5874620000000  0.4974670000000  0.4674690000000 1.0
C      1  0.4850530000000  0.4969070000000  0.5902150000000 1.0
C      1  0.4276730000000  0.4965820000000  0.4416470000000 1.0
C      1  0.4437420000000  0.4352420000000  0.4987440000000 1.0
C      1  0.5264100000000  0.4361600000000  0.5500020000000 1.0
C      1  0.5298020000000  0.4362280000000  0.4522050000000 1.0
C      1  0.5552760000000  0.4346550000000  0.4981000000000 1.0
C      1  0.4718030000000  0.4355400000000  0.5494110000000 1.0
C      1  0.4702670000000  0.4362640000000  0.4520890000000 1.0
C      1  0.4676360000000  0.4189530000000  0.5000460000000 1.0
C      1  0.5168680000000  0.4186470000000  0.5284700000000 1.0
C      1  0.5161260000000  0.4181030000000  0.4705290000000 1.0
C      1  0.5316300000000  0.4182350000000  0.5006050000000 1.0
C      1  0.4826130000000  0.4176780000000  0.5283720000000 1.0
C      1  0.4837580000000  0.4180450000000  0.4704310000000 1.0
C      1  0.4238310000000  0.4755050000000  0.4836940000000 1.0
C      1  0.5308330000000  0.4747720000000  0.5816240000000 1.0
C      1  0.5555190000000  0.4741600000000  0.4351060000000 1.0
C      1  0.5845700000000  0.4746520000000  0.4845540000000 1.0
C      1  0.4769860000000  0.4737190000000  0.5735960000000 1.0
C      1  0.4446670000000  0.4746160000000  0.4352460000000 1.0
C      1  0.4711490000000  0.5627030000000  0.4507690000000 1.0
C      1  0.4717100000000  0.5643100000000  0.5497680000000 1.0
C      1  0.5578140000000  0.5639550000000  0.4992350000000 1.0
C      1  0.5287490000000  0.5639060000000  0.4509770000000 1.0
C      1  0.5276400000000  0.5648900000000  0.5503410000000 1.0
C      1  0.4429200000000  0.5638650000000  0.4995100000000 1.0
C      1  0.5300290000000  0.4479960000000  0.5000820000000 1.0
C      1  0.4849020000000  0.4496260000000  0.4730930000000 1.0
C      1  0.4847180000000  0.4486780000000  0.5266980000000 1.0
C      1  0.4699050000000  0.4484630000000  0.4996550000000 1.0
C      1  0.5151320000000  0.4496820000000  0.4733790000000 1.0
C      1  0.5149750000000  0.4490310000000  0.5270780000000 1.0
C      1  0.5142340000000  0.5656050000000  0.4752930000000 1.0
C      1  0.4712340000000  0.5666800000000  0.4998560000000 1.0
C      1  0.5140680000000  0.5672660000000  0.5250320000000 1.0
C      1  0.4858010000000  0.5620140000000  0.4753890000000 1.0
C      1  0.5283870000000  0.5627230000000  0.5000970000000 1.0
C      1  0.4856300000000  0.5676490000000  0.5248580000000 1.0
C      1  0.5279000000000  0.5222600000000  0.5006970000000 1.0
C      1  0.4853510000000  0.5211020000000  0.4739590000000 1.0
C      1  0.4867910000000  0.5174560000000  0.5223180000000 1.0
C      1  0.4731940000000  0.5202270000000  0.4996550000000 1.0
C      1  0.5135390000000  0.5168660000000  0.4770060000000 1.0
C      1  0.5134900000000  0.5167470000000  0.5237880000000 1.0
C      1  0.5470300000000  0.4842900000000  0.4753930000000 1.0
C      1  0.4953980000000  0.4834950000000  0.5518560000000 1.0
C      1  0.4526780000000  0.4830320000000  0.4763010000000 1.0
END
