TITL C-2441169-1362-939 0.0244102343317141 125000 -4480.88005712565 0 0 39 (C1) n - 1
REM
REM in /home/bkarasulu/work/CARBON/AIRSS/Generating-Clusters/ReaxFF-fromJPCA2015/Units_Real/with-SteepDescent/Higher-Symm
REM
REM
REM
REM
REM
REM ./C.cell (1df0a924f5614ab8850e4351716899ee)
REM
REM compiler GCC version 9.2.1 20190827 (Red Hat 9.2.1-1)
REM options -cpp -mtune=generic -march=x86-64 -g -O0 -fpre-include=/usr/include/finclude/math-vector-fortran.h
REM seed -1334996748 1267778439 -1513958658 931546012 2006128604 48943074 1761646548 745343046 -1237439787 1897397664 -170052691 593886263 1777048100 -1778621172 860407787 -1437269957 -313122778 -247054042 764670322 -2026641846 937010215 -515099470 -1851627936 -987173518 -1950037779 -1396747182 -141037063 -1546425976 1037821320 261621266 -570984009 392148448 -557085063
REM
CELL 1.54180   50.00000   50.00000   50.00000   90.00000   90.00000   90.00000
LATT -1
SFAC C  
C      1  0.4748100000000  0.4872210000000  0.4567470000000 1.0
C      1  0.5217840000000  0.4862360000000  0.5425190000000 1.0
C      1  0.4743790000000  0.5159570000000  0.5428950000000 1.0
C      1  0.5210220000000  0.5185050000000  0.4563580000000 1.0
C      1  0.5609960000000  0.5326190000000  0.4626300000000 1.0
C      1  0.4393260000000  0.5336480000000  0.5357080000000 1.0
C      1  0.5587630000000  0.4733260000000  0.5365540000000 1.0
C      1  0.4391650000000  0.4702900000000  0.4637120000000 1.0
C      1  0.5138610000000  0.5076940000000  0.5600540000000 1.0
C      1  0.4873090000000  0.5055300000000  0.4385400000000 1.0
C      1  0.5146490000000  0.4959630000000  0.4403150000000 1.0
C      1  0.4867490000000  0.4971570000000  0.5609660000000 1.0
C      1  0.5459560000000  0.4829220000000  0.5576480000000 1.0
C      1  0.4530270000000  0.4842190000000  0.4420720000000 1.0
C      1  0.5446150000000  0.5215700000000  0.4435780000000 1.0
C      1  0.4533260000000  0.5200150000000  0.5573640000000 1.0
C      1  0.4566420000000  0.4792610000000  0.5224060000000 1.0
C      1  0.5449030000000  0.4779810000000  0.4764460000000 1.0
C      1  0.4574410000000  0.5293940000000  0.4774930000000 1.0
C      1  0.5436430000000  0.5309280000000  0.5203870000000 1.0
C      1  0.5389980000000  0.5219810000000  0.4841780000000 1.0
C      1  0.4606800000000  0.5215760000000  0.5166140000000 1.0
C      1  0.5387910000000  0.4800600000000  0.5175880000000 1.0
C      1  0.4617840000000  0.4805380000000  0.4822740000000 1.0
C      1  0.5169150000000  0.5201420000000  0.5194410000000 1.0
C      1  0.4844630000000  0.5208350000000  0.4806350000000 1.0
C      1  0.5160400000000  0.4837850000000  0.4804570000000 1.0
C      1  0.4844300000000  0.4844850000000  0.5196610000000 1.0
C      1  0.4893790000000  0.4713410000000  0.5454040000000 1.0
C      1  0.5105280000000  0.4688250000000  0.4558720000000 1.0
C      1  0.4922480000000  0.5307590000000  0.4542260000000 1.0
C      1  0.5105610000000  0.5328980000000  0.5447500000000 1.0
C      1  0.5339770000000  0.4514130000000  0.4632920000000 1.0
C      1  0.4639860000000  0.4529500000000  0.5336170000000 1.0
C      1  0.5340820000000  0.5528760000000  0.5375570000000 1.0
C      1  0.4634170000000  0.5538450000000  0.4669640000000 1.0
C      1  0.4497830000000  0.4980650000000  0.5019950000000 1.0
C      1  0.5509680000000  0.4982390000000  0.4969820000000 1.0
C      1  0.5007390000000  0.5010130000000  0.5000290000000 1.0
END
