TITL C-2441168-9922-1466 0.118889330027506 125000 -16465.6280304471 0 0 134 (C1) n - 1
REM
REM in /home/bkarasulu/work/CARBON/AIRSS/Generating-Clusters/ReaxFF-fromJPCA2015/Units_Real/with-SteepDescent/Higher-Symm
REM
REM
REM
REM
REM
REM ./C.cell (1df0a924f5614ab8850e4351716899ee)
REM
REM compiler GCC version 9.2.1 20190827 (Red Hat 9.2.1-1)
REM options -cpp -mtune=generic -march=x86-64 -g -O0 -fpre-include=/usr/include/finclude/math-vector-fortran.h
REM seed 2057523093 -575974537 1202610749 892668961 -1345333991 -1879040010 -1350542474 -397013939 1109492828 -739500115 1819042131 -1294457007 -360071154 562184293 2142016122 -610549835 -153036816 893686331 -332985593 -149326343 -264589732 1388775259 1524943057 -1764622561 1839054893 1976121730 -1141283109 -1546996087 -1947264202 -1726374988 -1547883833 1867155449 -1641305221
REM
CELL 1.54180   50.00000   50.00000   50.00000   90.00000   90.00000   90.00000
LATT -1
SFAC C  
C      1  0.5798280000000  0.5036570000000  0.5475270000000 1.0
C      1  0.4202040000000  0.5029970000000  0.4522930000000 1.0
C      1  0.5801190000000  0.4938510000000  0.4502650000000 1.0
C      1  0.4197700000000  0.4931200000000  0.5473020000000 1.0
C      1  0.5676230000000  0.4447110000000  0.4618470000000 1.0
C      1  0.4331390000000  0.4459870000000  0.5374110000000 1.0
C      1  0.5658840000000  0.5530000000000  0.5376400000000 1.0
C      1  0.4335530000000  0.5530420000000  0.4615700000000 1.0
C      1  0.5148970000000  0.5691040000000  0.5495150000000 1.0
C      1  0.4850580000000  0.5703620000000  0.4512150000000 1.0
C      1  0.5162270000000  0.4283430000000  0.4498800000000 1.0
C      1  0.4847680000000  0.4300290000000  0.5491970000000 1.0
C      1  0.5000880000000  0.4152260000000  0.4701880000000 1.0
C      1  0.4999400000000  0.4159870000000  0.5285210000000 1.0
C      1  0.4978010000000  0.5827540000000  0.5292290000000 1.0
C      1  0.5018640000000  0.5832620000000  0.4711370000000 1.0
C      1  0.5007270000000  0.4449400000000  0.4297160000000 1.0
C      1  0.4994430000000  0.4467960000000  0.5685740000000 1.0
C      1  0.5015770000000  0.5520390000000  0.5691420000000 1.0
C      1  0.4994350000000  0.5477590000000  0.4353030000000 1.0
C      1  0.5426160000000  0.4305340000000  0.4892850000000 1.0
C      1  0.4598900000000  0.4328600000000  0.5098280000000 1.0
C      1  0.5417830000000  0.5673960000000  0.5095140000000 1.0
C      1  0.4591830000000  0.5661170000000  0.4902550000000 1.0
C      1  0.4582180000000  0.5427210000000  0.4267920000000 1.0
C      1  0.5407780000000  0.5411940000000  0.5719160000000 1.0
C      1  0.4573230000000  0.4572870000000  0.5703200000000 1.0
C      1  0.5416410000000  0.4557560000000  0.4281760000000 1.0
C      1  0.5221670000000  0.4541990000000  0.5241390000000 1.0
C      1  0.4761370000000  0.4538700000000  0.4769180000000 1.0
C      1  0.5186040000000  0.5371170000000  0.4778660000000 1.0
C      1  0.4835880000000  0.5376060000000  0.5242280000000 1.0
C      1  0.5015860000000  0.4771650000000  0.4535260000000 1.0
C      1  0.4928750000000  0.4852490000000  0.5457670000000 1.0
C      1  0.5045160000000  0.5113340000000  0.5471080000000 1.0
C      1  0.4909600000000  0.5255410000000  0.4525580000000 1.0
C      1  0.5305700000000  0.4869420000000  0.4943380000000 1.0
C      1  0.4729410000000  0.4951880000000  0.5043250000000 1.0
C      1  0.5303160000000  0.5110120000000  0.5084190000000 1.0
C      1  0.4775830000000  0.5171630000000  0.4894910000000 1.0
C      1  0.4711920000000  0.5502640000000  0.5703880000000 1.0
C      1  0.5323030000000  0.5505360000000  0.4305130000000 1.0
C      1  0.4720270000000  0.4503530000000  0.4325270000000 1.0
C      1  0.5302390000000  0.4481600000000  0.5689170000000 1.0
C      1  0.5507540000000  0.4130640000000  0.5114260000000 1.0
C      1  0.4537330000000  0.4127800000000  0.4890230000000 1.0
C      1  0.5494690000000  0.5881650000000  0.4896350000000 1.0
C      1  0.4521720000000  0.5873060000000  0.5100380000000 1.0
C      1  0.4561330000000  0.4747670000000  0.4725050000000 1.0
C      1  0.5455490000000  0.4718830000000  0.5293850000000 1.0
C      1  0.4568440000000  0.5255840000000  0.5313820000000 1.0
C      1  0.5439910000000  0.5260880000000  0.4720940000000 1.0
C      1  0.5542800000000  0.5239070000000  0.4992830000000 1.0
C      1  0.4385100000000  0.5197180000000  0.5081940000000 1.0
C      1  0.5543380000000  0.4734960000000  0.5012770000000 1.0
C      1  0.4445340000000  0.4903450000000  0.5017930000000 1.0
C      1  0.5314270000000  0.5826210000000  0.4663700000000 1.0
C      1  0.4689410000000  0.5837470000000  0.5339270000000 1.0
C      1  0.5291610000000  0.4225280000000  0.5332170000000 1.0
C      1  0.4721610000000  0.4253740000000  0.4671230000000 1.0
C      1  0.5190300000000  0.4437890000000  0.4973640000000 1.0
C      1  0.4794290000000  0.4527110000000  0.5047080000000 1.0
C      1  0.5188520000000  0.5543370000000  0.4999580000000 1.0
C      1  0.4757070000000  0.5435280000000  0.4973750000000 1.0
C      1  0.5614890000000  0.5240800000000  0.5384600000000 1.0
C      1  0.4368510000000  0.5245090000000  0.4608930000000 1.0
C      1  0.5636990000000  0.4726830000000  0.4586960000000 1.0
C      1  0.4382950000000  0.4752210000000  0.5320350000000 1.0
C      1  0.4476490000000  0.4375600000000  0.4435710000000 1.0
C      1  0.5497210000000  0.4338350000000  0.5521920000000 1.0
C      1  0.4537830000000  0.5654740000000  0.5518140000000 1.0
C      1  0.5473900000000  0.5633080000000  0.4518460000000 1.0
C      1  0.4772270000000  0.5032280000000  0.4175560000000 1.0
C      1  0.5240750000000  0.5032040000000  0.5837280000000 1.0
C      1  0.4774980000000  0.4955320000000  0.5826340000000 1.0
C      1  0.5218760000000  0.4945630000000  0.4183210000000 1.0
C      1  0.4345810000000  0.4563490000000  0.4650530000000 1.0
C      1  0.5675290000000  0.4546530000000  0.5390630000000 1.0
C      1  0.4364460000000  0.5424250000000  0.5451480000000 1.0
C      1  0.5669670000000  0.5401850000000  0.4593610000000 1.0
C      1  0.4028310000000  0.4964100000000  0.5248990000000 1.0
C      1  0.5951280000000  0.4978450000000  0.4741490000000 1.0
C      1  0.3983090000000  0.5010620000000  0.4737320000000 1.0
C      1  0.5996600000000  0.5029890000000  0.5246550000000 1.0
C      1  0.4628100000000  0.5205350000000  0.4493170000000 1.0
C      1  0.5369390000000  0.5202960000000  0.5512810000000 1.0
C      1  0.4617440000000  0.4793830000000  0.5502260000000 1.0
C      1  0.5380130000000  0.4762930000000  0.4495130000000 1.0
C      1  0.4504090000000  0.5354240000000  0.5840230000000 1.0
C      1  0.5489200000000  0.5337970000000  0.4146250000000 1.0
C      1  0.4463270000000  0.4606600000000  0.4247450000000 1.0
C      1  0.5530060000000  0.4635240000000  0.5783720000000 1.0
C      1  0.5386650000000  0.4953770000000  0.5600630000000 1.0
C      1  0.4621690000000  0.4934880000000  0.4419030000000 1.0
C      1  0.5381850000000  0.5035820000000  0.4403350000000 1.0
C      1  0.4594690000000  0.5042390000000  0.5608030000000 1.0
C      1  0.5435200000000  0.5635820000000  0.5537650000000 1.0
C      1  0.4566570000000  0.5642510000000  0.4459910000000 1.0
C      1  0.5449970000000  0.4333300000000  0.4459190000000 1.0
C      1  0.4551220000000  0.4346460000000  0.5530520000000 1.0
C      1  0.5064670000000  0.5203120000000  0.5211370000000 1.0
C      1  0.4993210000000  0.5164210000000  0.4756550000000 1.0
C      1  0.5066840000000  0.4867060000000  0.4790350000000 1.0
C      1  0.4914180000000  0.4760400000000  0.5178910000000 1.0
C      1  0.4316210000000  0.4414890000000  0.5089510000000 1.0
C      1  0.5646030000000  0.4472370000000  0.4900830000000 1.0
C      1  0.4324240000000  0.5529900000000  0.4911380000000 1.0
C      1  0.5647800000000  0.5525750000000  0.5091720000000 1.0
C      1  0.4816160000000  0.4647010000000  0.5830150000000 1.0
C      1  0.5180380000000  0.4651240000000  0.4155830000000 1.0
C      1  0.4811250000000  0.5325850000000  0.4134170000000 1.0
C      1  0.5169790000000  0.5331360000000  0.5856250000000 1.0
C      1  0.4115410000000  0.4615160000000  0.4808740000000 1.0
C      1  0.5885100000000  0.4611430000000  0.5202710000000 1.0
C      1  0.4101110000000  0.5249670000000  0.5177640000000 1.0
C      1  0.5916770000000  0.5261600000000  0.4777430000000 1.0
C      1  0.5988520000000  0.4823590000000  0.5036740000000 1.0
C      1  0.3991550000000  0.4810470000000  0.4968330000000 1.0
C      1  0.5987860000000  0.5239600000000  0.5047220000000 1.0
C      1  0.3966600000000  0.5217510000000  0.4929200000000 1.0
C      1  0.4320040000000  0.5173880000000  0.5631860000000 1.0
C      1  0.5651670000000  0.5175980000000  0.4382030000000 1.0
C      1  0.4347540000000  0.4863670000000  0.4331580000000 1.0
C      1  0.5670510000000  0.4866620000000  0.5679520000000 1.0
C      1  0.4903800000000  0.5089520000000  0.6048390000000 1.0
C      1  0.5103250000000  0.5101120000000  0.3939550000000 1.0
C      1  0.4860490000000  0.4910100000000  0.3920380000000 1.0
C      1  0.5130640000000  0.4931590000000  0.6077130000000 1.0
C      1  0.4246620000000  0.4170000000000  0.4908040000000 1.0
C      1  0.5776150000000  0.4232170000000  0.5118570000000 1.0
C      1  0.4238810000000  0.5778430000000  0.5081970000000 1.0
C      1  0.5761260000000  0.5776300000000  0.4902560000000 1.0
C      1  0.5033740000000  0.4201170000000  0.4993560000000 1.0
C      1  0.5012290000000  0.5769320000000  0.5005820000000 1.0
END
