TITL C-2441156-4686-16 0.021637985491661 125000 -9257.04701962705 0 0 68 (C1) n - 1
REM
REM in /home/bkarasulu/work/CARBON/AIRSS/Generating-Clusters/ReaxFF-fromJPCA2015/Units_Real/with-SteepDescent/Higher-Symm
REM
REM
REM
REM
REM
REM ./C.cell (1df0a924f5614ab8850e4351716899ee)
REM
REM compiler GCC version 9.2.1 20190827 (Red Hat 9.2.1-1)
REM options -cpp -mtune=generic -march=x86-64 -g -O0 -fpre-include=/usr/include/finclude/math-vector-fortran.h
REM seed -870460199 451532606 -1842085845 1754048081 564365056 1879017628 995315644 1624122362 -369411799 1250435750 -889025403 1779117158 150634992 1714309454 -1976255056 -1595032942 -1701246947 1506283535 1793131409 -386282092 -1863190328 -1281107006 1741772401 -1832715474 1545525965 -2068676070 2131517810 414304354 272542622 1320776885 -1478713608 1897029871 -1538907337
REM
CELL 1.54180   50.00000   50.00000   50.00000   90.00000   90.00000   90.00000
LATT -1
SFAC C  
C      1  0.4539020000000  0.4638090000000  0.4932960000000 1.0
C      1  0.4534350000000  0.4889770000000  0.4619120000000 1.0
C      1  0.4531270000000  0.5224610000000  0.4678230000000 1.0
C      1  0.4525790000000  0.5390400000000  0.5051920000000 1.0
C      1  0.4486410000000  0.5117280000000  0.5421590000000 1.0
C      1  0.4525550000000  0.4678220000000  0.5236180000000 1.0
C      1  0.5493390000000  0.4644870000000  0.4892330000000 1.0
C      1  0.5484660000000  0.4853950000000  0.4646170000000 1.0
C      1  0.5490240000000  0.5252550000000  0.4687480000000 1.0
C      1  0.5505450000000  0.5385010000000  0.5046370000000 1.0
C      1  0.5536170000000  0.5092680000000  0.5420350000000 1.0
C      1  0.5504210000000  0.4702430000000  0.5247900000000 1.0
C      1  0.4790730000000  0.5275990000000  0.5006210000000 1.0
C      1  0.4871640000000  0.5113880000000  0.5229730000000 1.0
C      1  0.4769170000000  0.4843370000000  0.5224480000000 1.0
C      1  0.4817660000000  0.4723540000000  0.4967620000000 1.0
C      1  0.4806870000000  0.4869960000000  0.4730200000000 1.0
C      1  0.4807100000000  0.5158860000000  0.4752030000000 1.0
C      1  0.5230990000000  0.5277750000000  0.4998020000000 1.0
C      1  0.5153310000000  0.5122310000000  0.5226960000000 1.0
C      1  0.5257890000000  0.4852920000000  0.5223630000000 1.0
C      1  0.5219290000000  0.4719240000000  0.4968710000000 1.0
C      1  0.5202310000000  0.4870450000000  0.4735130000000 1.0
C      1  0.5225270000000  0.5151550000000  0.4747850000000 1.0
C      1  0.4866140000000  0.5289120000000  0.5658520000000 1.0
C      1  0.4867010000000  0.4568680000000  0.5575100000000 1.0
C      1  0.4843330000000  0.4274530000000  0.4907970000000 1.0
C      1  0.4861220000000  0.4684830000000  0.4329350000000 1.0
C      1  0.4713130000000  0.5416530000000  0.4368110000000 1.0
C      1  0.4850280000000  0.5722450000000  0.5062740000000 1.0
C      1  0.5161820000000  0.5287430000000  0.5658290000000 1.0
C      1  0.5163370000000  0.4569510000000  0.5578040000000 1.0
C      1  0.5180670000000  0.4274040000000  0.4910210000000 1.0
C      1  0.5168830000000  0.4687920000000  0.4327760000000 1.0
C      1  0.5314490000000  0.5419850000000  0.4364590000000 1.0
C      1  0.5177680000000  0.5721660000000  0.5063100000000 1.0
C      1  0.4638970000000  0.4415730000000  0.4759570000000 1.0
C      1  0.4655850000000  0.4886280000000  0.4356280000000 1.0
C      1  0.4594990000000  0.5504500000000  0.4603720000000 1.0
C      1  0.4657530000000  0.5588270000000  0.5235920000000 1.0
C      1  0.4659480000000  0.5077780000000  0.5650370000000 1.0
C      1  0.4666280000000  0.4465890000000  0.5387110000000 1.0
C      1  0.5382520000000  0.4402630000000  0.4746680000000 1.0
C      1  0.5377230000000  0.4881900000000  0.4375400000000 1.0
C      1  0.5431570000000  0.5523950000000  0.4598320000000 1.0
C      1  0.5370250000000  0.5583560000000  0.5232610000000 1.0
C      1  0.5365840000000  0.5074290000000  0.5656830000000 1.0
C      1  0.5369310000000  0.4482060000000  0.5383310000000 1.0
C      1  0.4736310000000  0.5163320000000  0.4237270000000 1.0
C      1  0.4758250000000  0.5713140000000  0.4782600000000 1.0
C      1  0.4769160000000  0.5530980000000  0.5511340000000 1.0
C      1  0.4770510000000  0.4803130000000  0.5727300000000 1.0
C      1  0.4753350000000  0.4252120000000  0.5190410000000 1.0
C      1  0.4764010000000  0.4449760000000  0.4483080000000 1.0
C      1  0.5293860000000  0.5158620000000  0.4249950000000 1.0
C      1  0.5266370000000  0.5722640000000  0.4781770000000 1.0
C      1  0.5260820000000  0.5527380000000  0.5508460000000 1.0
C      1  0.5253340000000  0.4802280000000  0.5734420000000 1.0
C      1  0.5271670000000  0.4260440000000  0.5191910000000 1.0
C      1  0.5266680000000  0.4445240000000  0.4469660000000 1.0
C      1  0.5012110000000  0.5730910000000  0.4682330000000 1.0
C      1  0.5015280000000  0.5649760000000  0.5441660000000 1.0
C      1  0.5012300000000  0.4246100000000  0.5295850000000 1.0
C      1  0.5017250000000  0.4337270000000  0.4538630000000 1.0
C      1  0.5010700000000  0.4926260000000  0.5811080000000 1.0
C      1  0.5015780000000  0.5192110000000  0.4205260000000 1.0
C      1  0.5653780000000  0.5134230000000  0.5156380000000 1.0
C      1  0.4363580000000  0.5146650000000  0.5157700000000 1.0
END
