TITL C-2441162-9305-1318 0.0593117309777775 125000 -14613.5015988897 0 0 109 (C1) n - 1
REM
REM in /home/bkarasulu/work/CARBON/AIRSS/Generating-Clusters/ReaxFF-fromJPCA2015/Units_Real/with-SteepDescent/Higher-Symm
REM
REM
REM
REM
REM
REM ./C.cell (1df0a924f5614ab8850e4351716899ee)
REM
REM compiler GCC version 9.2.1 20190827 (Red Hat 9.2.1-1)
REM options -cpp -mtune=generic -march=x86-64 -g -O0 -fpre-include=/usr/include/finclude/math-vector-fortran.h
REM seed -1160321548 -2120727383 374896573 1050831342 -440455225 -1598724083 -1428180969 -1987962420 -1265284859 1900334611 -1902607276 -1563691728 -1759940515 -817131812 -1750654820 -1141675610 613818379 -1163498572 -978681430 697332412 -17197673 -1511005923 1125685473 704583100 1579782828 -1875150653 1005971113 428262447 926560327 -1903387709 543918399 342941950 -1543482125
REM
CELL 1.54180   50.00000   50.00000   50.00000   90.00000   90.00000   90.00000
LATT -1
SFAC C  
C      1  0.4975840000000  0.4894080000000  0.4621710000000 1.0
C      1  0.4821330000000  0.4959170000000  0.5457170000000 1.0
C      1  0.4843290000000  0.5134030000000  0.4669400000000 1.0
C      1  0.5095190000000  0.5166780000000  0.5347740000000 1.0
C      1  0.5212650000000  0.5075070000000  0.4556250000000 1.0
C      1  0.5097130000000  0.4918960000000  0.5511300000000 1.0
C      1  0.5150680000000  0.3986340000000  0.4906930000000 1.0
C      1  0.4188260000000  0.4501730000000  0.4967840000000 1.0
C      1  0.4115780000000  0.5303670000000  0.4878950000000 1.0
C      1  0.4976670000000  0.5917020000000  0.4982760000000 1.0
C      1  0.5734920000000  0.5496100000000  0.4964530000000 1.0
C      1  0.5933720000000  0.4661710000000  0.5151830000000 1.0
C      1  0.4318640000000  0.4606200000000  0.4736340000000 1.0
C      1  0.4447910000000  0.5348600000000  0.5302390000000 1.0
C      1  0.5024230000000  0.5730740000000  0.4753190000000 1.0
C      1  0.5637280000000  0.5323050000000  0.5221260000000 1.0
C      1  0.5557570000000  0.4643400000000  0.4684650000000 1.0
C      1  0.4974880000000  0.4348970000000  0.5302700000000 1.0
C      1  0.5180720000000  0.5653660000000  0.5596680000000 1.0
C      1  0.5696000000000  0.5182440000000  0.4356720000000 1.0
C      1  0.5475680000000  0.4484020000000  0.5636910000000 1.0
C      1  0.4797480000000  0.4357470000000  0.4384310000000 1.0
C      1  0.4324350000000  0.4826460000000  0.5628120000000 1.0
C      1  0.4545990000000  0.5479320000000  0.4351640000000 1.0
C      1  0.4296460000000  0.4787080000000  0.4502120000000 1.0
C      1  0.4468130000000  0.5467420000000  0.5553260000000 1.0
C      1  0.5143820000000  0.5700190000000  0.4483970000000 1.0
C      1  0.5713880000000  0.5190440000000  0.5483220000000 1.0
C      1  0.5522660000000  0.4533560000000  0.4424090000000 1.0
C      1  0.4867010000000  0.4314160000000  0.5565800000000 1.0
C      1  0.5656450000000  0.4642840000000  0.5477650000000 1.0
C      1  0.5051520000000  0.4290220000000  0.4476860000000 1.0
C      1  0.4393600000000  0.4567250000000  0.5500160000000 1.0
C      1  0.4347780000000  0.5336590000000  0.4485890000000 1.0
C      1  0.4922850000000  0.5750640000000  0.5494180000000 1.0
C      1  0.5614790000000  0.5439500000000  0.4472760000000 1.0
C      1  0.4588310000000  0.5668330000000  0.4974250000000 1.0
C      1  0.5348310000000  0.5691340000000  0.5080110000000 1.0
C      1  0.5728660000000  0.4980490000000  0.5010990000000 1.0
C      1  0.5430440000000  0.4414330000000  0.5037790000000 1.0
C      1  0.4609650000000  0.4338390000000  0.5004580000000 1.0
C      1  0.4297740000000  0.4947750000000  0.5001150000000 1.0
C      1  0.5353240000000  0.5740020000000  0.5383860000000 1.0
C      1  0.5777440000000  0.5093100000000  0.4617630000000 1.0
C      1  0.5389000000000  0.4347440000000  0.5433670000000 1.0
C      1  0.4666740000000  0.4316520000000  0.4605510000000 1.0
C      1  0.4187200000000  0.4908410000000  0.5392970000000 1.0
C      1  0.4582780000000  0.5658950000000  0.4562550000000 1.0
C      1  0.4743720000000  0.5863980000000  0.5144350000000 1.0
C      1  0.5623410000000  0.5751790000000  0.4919150000000 1.0
C      1  0.5892610000000  0.4921870000000  0.5237250000000 1.0
C      1  0.5366400000000  0.4159710000000  0.4868800000000 1.0
C      1  0.4360010000000  0.4357960000000  0.5149380000000 1.0
C      1  0.4087640000000  0.5019320000000  0.4781630000000 1.0
C      1  0.5222520000000  0.4877710000000  0.5769060000000 1.0
C      1  0.4943300000000  0.4812270000000  0.4189420000000 1.0
C      1  0.4767650000000  0.4934100000000  0.5748100000000 1.0
C      1  0.4806670000000  0.5075810000000  0.4178460000000 1.0
C      1  0.5013260000000  0.5220120000000  0.5807850000000 1.0
C      1  0.5223370000000  0.5119820000000  0.4249730000000 1.0
C      1  0.5485570000000  0.4996390000000  0.5761510000000 1.0
C      1  0.5203320000000  0.4669390000000  0.4197760000000 1.0
C      1  0.4778570000000  0.4644790000000  0.5793860000000 1.0
C      1  0.4527520000000  0.4980460000000  0.4219970000000 1.0
C      1  0.4770350000000  0.5375900000000  0.5809920000000 1.0
C      1  0.5240790000000  0.5410980000000  0.4207600000000 1.0
C      1  0.4392270000000  0.5365590000000  0.4780570000000 1.0
C      1  0.4978950000000  0.5744440000000  0.5216990000000 1.0
C      1  0.5612680000000  0.5324690000000  0.4738760000000 1.0
C      1  0.5698250000000  0.4522950000000  0.5215340000000 1.0
C      1  0.5090070000000  0.4219690000000  0.4769960000000 1.0
C      1  0.4226860000000  0.4589570000000  0.5254190000000 1.0
C      1  0.5234430000000  0.5382360000000  0.5716770000000 1.0
C      1  0.5498590000000  0.5024930000000  0.4205720000000 1.0
C      1  0.5258850000000  0.4590410000000  0.5795020000000 1.0
C      1  0.4746090000000  0.4603240000000  0.4248410000000 1.0
C      1  0.4498540000000  0.5004420000000  0.5774880000000 1.0
C      1  0.4783830000000  0.5361420000000  0.4245910000000 1.0
C      1  0.5243430000000  0.4301970000000  0.5228730000000 1.0
C      1  0.4559700000000  0.4459570000000  0.4763390000000 1.0
C      1  0.4277400000000  0.5126010000000  0.5234590000000 1.0
C      1  0.4737950000000  0.5670410000000  0.4738420000000 1.0
C      1  0.5424770000000  0.5497840000000  0.5271220000000 1.0
C      1  0.5746230000000  0.4840430000000  0.4750560000000 1.0
C      1  0.5294210000000  0.5268650000000  0.4759270000000 1.0
C      1  0.5242130000000  0.5014670000000  0.5139080000000 1.0
C      1  0.5072730000000  0.4680350000000  0.4799650000000 1.0
C      1  0.4771760000000  0.4802320000000  0.5158650000000 1.0
C      1  0.4622200000000  0.5142280000000  0.4813010000000 1.0
C      1  0.4952160000000  0.5359740000000  0.5146750000000 1.0
C      1  0.5497840000000  0.5102080000000  0.5097040000000 1.0
C      1  0.5344630000000  0.4619560000000  0.4859000000000 1.0
C      1  0.4795320000000  0.4507240000000  0.5148730000000 1.0
C      1  0.4576800000000  0.4908350000000  0.4968960000000 1.0
C      1  0.4671800000000  0.5418080000000  0.5128480000000 1.0
C      1  0.5146540000000  0.5458190000000  0.4924990000000 1.0
C      1  0.5514290000000  0.5269310000000  0.5687520000000 1.0
C      1  0.5489230000000  0.4736540000000  0.4206180000000 1.0
C      1  0.5004880000000  0.4456440000000  0.5788710000000 1.0
C      1  0.4475250000000  0.4702880000000  0.4276960000000 1.0
C      1  0.4485190000000  0.5289250000000  0.5774330000000 1.0
C      1  0.4997500000000  0.5555610000000  0.4269010000000 1.0
C      1  0.5662920000000  0.4919520000000  0.5554880000000 1.0
C      1  0.5251030000000  0.4446080000000  0.4366520000000 1.0
C      1  0.4641430000000  0.4481830000000  0.5604940000000 1.0
C      1  0.4346430000000  0.5063260000000  0.4421250000000 1.0
C      1  0.4712810000000  0.5595030000000  0.5615560000000 1.0
C      1  0.5383430000000  0.5565900000000  0.4396030000000 1.0
C      1  0.5049780000000  0.4828150000000  0.5043060000000 1.0
END
