TITL C-2441162-9305-1134 0.00807273542932166 125000 -5051.21862683828 0 0 39 (C1) n - 1
REM
REM in /home/bkarasulu/work/CARBON/AIRSS/Generating-Clusters/ReaxFF-fromJPCA2015/Units_Real/with-SteepDescent/Higher-Symm
REM
REM
REM
REM
REM
REM ./C.cell (1df0a924f5614ab8850e4351716899ee)
REM
REM compiler GCC version 9.2.1 20190827 (Red Hat 9.2.1-1)
REM options -cpp -mtune=generic -march=x86-64 -g -O0 -fpre-include=/usr/include/finclude/math-vector-fortran.h
REM seed 10794843 -939620556 -619013385 1500546585 -642140976 -1287903519 276051218 180686280 -1475295304 -643651171 234929783 -1448314561 1359673639 -848366545 -1086009235 593447817 1141629828 701965043 -287496434 -1727596911 944652316 1595240663 388519891 740035473 -735594826 111589758 -2079791046 1287175092 1065964077 -1718501905 -1382634930 1105183927 1616933880
REM
CELL 1.54180   50.00000   50.00000   50.00000   90.00000   90.00000   90.00000
LATT -1
SFAC C  
C      1  0.5046810000000  0.5733950000000  0.4843640000000 1.0
C      1  0.4682520000000  0.5206430000000  0.5333440000000 1.0
C      1  0.4834420000000  0.5415040000000  0.4980190000000 1.0
C      1  0.4686050000000  0.4963810000000  0.5493190000000 1.0
C      1  0.4849030000000  0.5027290000000  0.4643270000000 1.0
C      1  0.4671780000000  0.5277940000000  0.4644740000000 1.0
C      1  0.4986070000000  0.4555610000000  0.4567960000000 1.0
C      1  0.5443270000000  0.4791560000000  0.5343740000000 1.0
C      1  0.5593360000000  0.4865470000000  0.5099840000000 1.0
C      1  0.5584520000000  0.5046450000000  0.5329660000000 1.0
C      1  0.5603420000000  0.5277260000000  0.5143880000000 1.0
C      1  0.4646200000000  0.4701330000000  0.5397170000000 1.0
C      1  0.4924190000000  0.4916610000000  0.4929800000000 1.0
C      1  0.5090040000000  0.5216800000000  0.4637230000000 1.0
C      1  0.5349900000000  0.5111650000000  0.4715700000000 1.0
C      1  0.5181230000000  0.4680250000000  0.5425150000000 1.0
C      1  0.4776440000000  0.4744760000000  0.4584940000000 1.0
C      1  0.4407770000000  0.4979520000000  0.4897910000000 1.0
C      1  0.5371140000000  0.4762920000000  0.4421250000000 1.0
C      1  0.5192090000000  0.5298570000000  0.5228350000000 1.0
C      1  0.4927850000000  0.5170600000000  0.5118160000000 1.0
C      1  0.4912480000000  0.5434240000000  0.4715650000000 1.0
C      1  0.5345230000000  0.4818860000000  0.4719340000000 1.0
C      1  0.4992270000000  0.5481820000000  0.5616400000000 1.0
C      1  0.5094110000000  0.4475620000000  0.5250130000000 1.0
C      1  0.5575050000000  0.5101880000000  0.4914720000000 1.0
C      1  0.4570670000000  0.4490110000000  0.4913330000000 1.0
C      1  0.5139980000000  0.4726660000000  0.4923940000000 1.0
C      1  0.5121710000000  0.4399450000000  0.4985360000000 1.0
C      1  0.4520730000000  0.4593890000000  0.5170000000000 1.0
C      1  0.5205630000000  0.4522740000000  0.4360520000000 1.0
C      1  0.4909290000000  0.4792310000000  0.5434480000000 1.0
C      1  0.5380230000000  0.5444940000000  0.5066560000000 1.0
C      1  0.5104150000000  0.5506840000000  0.5400240000000 1.0
C      1  0.4488930000000  0.5355740000000  0.5174520000000 1.0
C      1  0.4467610000000  0.5239310000000  0.4864950000000 1.0
C      1  0.4367580000000  0.4711510000000  0.4943180000000 1.0
C      1  0.4749940000000  0.4484980000000  0.4699970000000 1.0
C      1  0.5206320000000  0.5675300000000  0.5067470000000 1.0
END
