TITL C-2441165-58-422 0.00751461193704155 125000 -10061.8501530635 0 0 70 (C1) n - 1
REM
REM in /home/bkarasulu/work/CARBON/AIRSS/Generating-Clusters/ReaxFF-fromJPCA2015/Units_Real/with-SteepDescent/Higher-Symm
REM
REM
REM
REM
REM
REM ./C.cell (1df0a924f5614ab8850e4351716899ee)
REM
REM compiler GCC version 9.2.1 20190827 (Red Hat 9.2.1-1)
REM options -cpp -mtune=generic -march=x86-64 -g -O0 -fpre-include=/usr/include/finclude/math-vector-fortran.h
REM seed 437445470 384349997 -1555690596 990947025 -1039373238 -235674375 394061112 488360864 -729224312 243341486 1295557114 2050688224 67184761 -1285184050 1628370254 -1081359814 -424976139 -457492657 -889358687 -1317043164 1340456103 -2098987195 -1986460895 1937366712 1380256661 -924448282 1603001440 524231092 -2020941356 -1494101804 1151069364 -676166566 -359177732
REM
CELL 1.54180   50.00000   50.00000   50.00000   90.00000   90.00000   90.00000
LATT -1
SFAC C  
C      1  0.4954080000000  0.4740400000000  0.4300250000000 1.0
C      1  0.4950450000000  0.5196790000000  0.4275960000000 1.0
C      1  0.4959600000000  0.5597380000000  0.4532740000000 1.0
C      1  0.4978580000000  0.5772900000000  0.4965340000000 1.0
C      1  0.4957930000000  0.5624410000000  0.5411010000000 1.0
C      1  0.4953480000000  0.5268630000000  0.5700750000000 1.0
C      1  0.4956620000000  0.4797310000000  0.5722410000000 1.0
C      1  0.4957360000000  0.4406060000000  0.5476100000000 1.0
C      1  0.4982830000000  0.4222840000000  0.5025030000000 1.0
C      1  0.4954690000000  0.4373430000000  0.4595520000000 1.0
C      1  0.4397350000000  0.5205350000000  0.5580310000000 1.0
C      1  0.4470140000000  0.4956290000000  0.5477410000000 1.0
C      1  0.4430480000000  0.4486890000000  0.5295020000000 1.0
C      1  0.4372160000000  0.4467290000000  0.5000580000000 1.0
C      1  0.4473710000000  0.4587200000000  0.4755950000000 1.0
C      1  0.4397550000000  0.4794220000000  0.4416210000000 1.0
C      1  0.4460960000000  0.5065350000000  0.4504140000000 1.0
C      1  0.4449390000000  0.5522690000000  0.4715210000000 1.0
C      1  0.4381940000000  0.5523600000000  0.4994610000000 1.0
C      1  0.4484220000000  0.5414610000000  0.5244660000000 1.0
C      1  0.5460050000000  0.4799120000000  0.5654450000000 1.0
C      1  0.5459920000000  0.4460900000000  0.5410100000000 1.0
C      1  0.5471030000000  0.4322110000000  0.5012340000000 1.0
C      1  0.5459960000000  0.4446810000000  0.4616460000000 1.0
C      1  0.5456710000000  0.4780420000000  0.4357860000000 1.0
C      1  0.5455580000000  0.5195250000000  0.4350300000000 1.0
C      1  0.5460910000000  0.5541780000000  0.4592020000000 1.0
C      1  0.5465960000000  0.5670420000000  0.4984790000000 1.0
C      1  0.5463430000000  0.5554750000000  0.5390090000000 1.0
C      1  0.5456340000000  0.5220960000000  0.5638080000000 1.0
C      1  0.4534860000000  0.4962780000000  0.4248400000000 1.0
C      1  0.4542310000000  0.5338740000000  0.4513220000000 1.0
C      1  0.4584780000000  0.5710950000000  0.4688010000000 1.0
C      1  0.4533500000000  0.5684610000000  0.5184010000000 1.0
C      1  0.4517380000000  0.5451040000000  0.5517620000000 1.0
C      1  0.4534250000000  0.5016210000000  0.5749700000000 1.0
C      1  0.4533510000000  0.4684780000000  0.5500600000000 1.0
C      1  0.4607220000000  0.4276190000000  0.5280220000000 1.0
C      1  0.4529300000000  0.4318440000000  0.4816590000000 1.0
C      1  0.4524600000000  0.4554310000000  0.4485680000000 1.0
C      1  0.5611710000000  0.5382960000000  0.5512020000000 1.0
C      1  0.5604180000000  0.5010130000000  0.5641680000000 1.0
C      1  0.5611250000000  0.4632000000000  0.5529090000000 1.0
C      1  0.5610900000000  0.4400810000000  0.5209410000000 1.0
C      1  0.5617020000000  0.4393890000000  0.4813790000000 1.0
C      1  0.5604250000000  0.4616880000000  0.4488440000000 1.0
C      1  0.5608610000000  0.4989080000000  0.4356970000000 1.0
C      1  0.5603940000000  0.5366440000000  0.4471980000000 1.0
C      1  0.5616000000000  0.5598580000000  0.4790890000000 1.0
C      1  0.5610200000000  0.5605960000000  0.5186420000000 1.0
C      1  0.4806470000000  0.4231710000000  0.4799480000000 1.0
C      1  0.4802540000000  0.4515750000000  0.4398270000000 1.0
C      1  0.4809560000000  0.4961300000000  0.4183650000000 1.0
C      1  0.4792370000000  0.5414500000000  0.4378980000000 1.0
C      1  0.4848430000000  0.5809060000000  0.4703490000000 1.0
C      1  0.4816170000000  0.5767900000000  0.5202600000000 1.0
C      1  0.4795920000000  0.5493560000000  0.5608790000000 1.0
C      1  0.4822600000000  0.5036860000000  0.5813210000000 1.0
C      1  0.4781720000000  0.4588490000000  0.5622440000000 1.0
C      1  0.4869360000000  0.4181290000000  0.5298030000000 1.0
C      1  0.5173490000000  0.5131670000000  0.4455980000000 1.0
C      1  0.5178390000000  0.5458080000000  0.4677240000000 1.0
C      1  0.5179160000000  0.5559630000000  0.4954660000000 1.0
C      1  0.5181150000000  0.5447530000000  0.5334390000000 1.0
C      1  0.5175290000000  0.5215380000000  0.5515450000000 1.0
C      1  0.5179970000000  0.4815450000000  0.5531840000000 1.0
C      1  0.5176450000000  0.4570400000000  0.5368760000000 1.0
C      1  0.5183670000000  0.4431260000000  0.4992910000000 1.0
C      1  0.5178590000000  0.4522760000000  0.4712620000000 1.0
C      1  0.5175520000000  0.4836460000000  0.4466770000000 1.0
END
