TITL C-2441159-1093-878 -3.29591446335189e-09 125000 -616.374186651643 0 0 5 (D(inf)h) n - 1
REM
REM in /home/bkarasulu/work/CARBON/AIRSS/Generating-Clusters/ReaxFF-fromJPCA2015/Units_Real/with-SteepDescent/Higher-Symm
REM
REM
REM
REM
REM
REM ./C.cell (1df0a924f5614ab8850e4351716899ee)
REM
REM compiler GCC version 9.2.1 20190827 (Red Hat 9.2.1-1)
REM options -cpp -mtune=generic -march=x86-64 -g -O0 -fpre-include=/usr/include/finclude/math-vector-fortran.h
REM seed 2038297638 2068691576 -2080749791 816697965 1779417498 1112017392 -1976888553 -2012963221 -1612415762 2068945333 -667052857 440411130 -2077077851 467981020 -88341511 -881119600 1169569244 -2037045958 -493030296 620417426 965048695 -156681680 -304800455 1955931134 898007777 -1334615369 -380659259 1355104938 832527703 -1451859447 760443669 487386680 682316256
REM
CELL 1.54180   50.00000   50.00000   50.00000   90.00000   90.00000   90.00000
LATT -1
SFAC C  
C      1  0.4975060000000  0.5066880000000  0.5515480000000 1.0
C      1  0.4975060000000  0.5066880000000  0.4512780000000 1.0
C      1  0.4975060000000  0.5066880000000  0.4757000000000 1.0
C      1  0.4975060000000  0.5066880000000  0.5271260000000 1.0
C      1  0.4975060000000  0.5066880000000  0.5014130000000 1.0
END
