TITL C-2441159-1093-204 0.147203717194214 125000 -26222.0686592073 0 0 200 (C1) n - 1
REM
REM in /home/bkarasulu/work/CARBON/AIRSS/Generating-Clusters/ReaxFF-fromJPCA2015/Units_Real/with-SteepDescent/Higher-Symm
REM
REM
REM
REM
REM
REM ./C.cell (1df0a924f5614ab8850e4351716899ee)
REM
REM compiler GCC version 9.2.1 20190827 (Red Hat 9.2.1-1)
REM options -cpp -mtune=generic -march=x86-64 -g -O0 -fpre-include=/usr/include/finclude/math-vector-fortran.h
REM seed 2070016480 -274899585 1762498360 -757477878 485602548 -1788438332 -1028500164 578282196 780088815 1074311871 934347449 -1059297125 -2059647800 -532712553 790264504 1268466227 921580944 1449534477 -1353124124 -945233534 9416221 -963793133 -254619138 -2022492392 1644913246 -1465973530 -1985249692 -342433303 1685495935 1698486128 -1617942987 1980007384 814616517
REM
CELL 1.54180   50.00000   50.00000   50.00000   90.00000   90.00000   90.00000
LATT -1
SFAC C  
C      1  0.5254550000000  0.5860810000000  0.5513990000000 1.0
C      1  0.4517670000000  0.5831720000000  0.5406380000000 1.0
C      1  0.4502300000000  0.5854910000000  0.4699880000000 1.0
C      1  0.5128090000000  0.5854680000000  0.4415870000000 1.0
C      1  0.5605290000000  0.5853360000000  0.4950640000000 1.0
C      1  0.5137160000000  0.5292510000000  0.5950590000000 1.0
C      1  0.4087710000000  0.5335530000000  0.5448740000000 1.0
C      1  0.4308820000000  0.5309530000000  0.4282980000000 1.0
C      1  0.5487390000000  0.5324870000000  0.4235550000000 1.0
C      1  0.5950970000000  0.5394430000000  0.5221450000000 1.0
C      1  0.5972650000000  0.5367020000000  0.4535630000000 1.0
C      1  0.5769780000000  0.5385030000000  0.5796830000000 1.0
C      1  0.4507900000000  0.5387000000000  0.5968340000000 1.0
C      1  0.3920320000000  0.5360550000000  0.4816400000000 1.0
C      1  0.4847200000000  0.5378810000000  0.3932960000000 1.0
C      1  0.4424220000000  0.4166320000000  0.5381490000000 1.0
C      1  0.4561320000000  0.4153000000000  0.4469330000000 1.0
C      1  0.5336600000000  0.4115170000000  0.4424220000000 1.0
C      1  0.5691620000000  0.4155790000000  0.5032420000000 1.0
C      1  0.5049070000000  0.4166570000000  0.5678870000000 1.0
C      1  0.5017190000000  0.5889320000000  0.5680330000000 1.0
C      1  0.4309600000000  0.5907790000000  0.5229350000000 1.0
C      1  0.4652430000000  0.5935890000000  0.4471670000000 1.0
C      1  0.5414730000000  0.5915730000000  0.4418740000000 1.0
C      1  0.5688280000000  0.5919330000000  0.5221920000000 1.0
C      1  0.5866630000000  0.4529690000000  0.4783560000000 1.0
C      1  0.5425090000000  0.4572600000000  0.5784970000000 1.0
C      1  0.4369170000000  0.4552840000000  0.5693110000000 1.0
C      1  0.4176570000000  0.4538280000000  0.4586140000000 1.0
C      1  0.5126710000000  0.4535880000000  0.4167560000000 1.0
C      1  0.4205970000000  0.5678130000000  0.5103490000000 1.0
C      1  0.4661710000000  0.5691390000000  0.4318230000000 1.0
C      1  0.5573380000000  0.5691850000000  0.4476080000000 1.0
C      1  0.5704730000000  0.5690760000000  0.5386670000000 1.0
C      1  0.4862620000000  0.5674850000000  0.5764950000000 1.0
C      1  0.5849070000000  0.5102670000000  0.5196200000000 1.0
C      1  0.5041180000000  0.5053460000000  0.5732410000000 1.0
C      1  0.4289980000000  0.4995380000000  0.5220030000000 1.0
C      1  0.4514940000000  0.5104380000000  0.4328280000000 1.0
C      1  0.5492830000000  0.5102610000000  0.4054160000000 1.0
C      1  0.4892880000000  0.4785200000000  0.5227290000000 1.0
C      1  0.4767810000000  0.4704880000000  0.4980670000000 1.0
C      1  0.4938000000000  0.4819270000000  0.4786150000000 1.0
C      1  0.5183200000000  0.4717240000000  0.4874170000000 1.0
C      1  0.5131420000000  0.4645450000000  0.5147740000000 1.0
C      1  0.5609760000000  0.4749500000000  0.4743060000000 1.0
C      1  0.5398610000000  0.4721100000000  0.5513070000000 1.0
C      1  0.4582360000000  0.4734590000000  0.5561560000000 1.0
C      1  0.4349670000000  0.4719070000000  0.4786910000000 1.0
C      1  0.4960540000000  0.4726140000000  0.4309450000000 1.0
C      1  0.4837600000000  0.5498860000000  0.5521430000000 1.0
C      1  0.4411450000000  0.5489860000000  0.5009300000000 1.0
C      1  0.4818430000000  0.5483410000000  0.4470260000000 1.0
C      1  0.5423820000000  0.5502420000000  0.4682380000000 1.0
C      1  0.5490760000000  0.5487160000000  0.5327060000000 1.0
C      1  0.4445780000000  0.5368990000000  0.4025190000000 1.0
C      1  0.5764000000000  0.5376870000000  0.4182010000000 1.0
C      1  0.6055200000000  0.5388460000000  0.5493900000000 1.0
C      1  0.4893660000000  0.5359070000000  0.6110320000000 1.0
C      1  0.3892130000000  0.5342110000000  0.5230570000000 1.0
C      1  0.5394970000000  0.4359110000000  0.4840350000000 1.0
C      1  0.5271530000000  0.4429830000000  0.5246490000000 1.0
C      1  0.4791700000000  0.4398710000000  0.5329250000000 1.0
C      1  0.4677780000000  0.4452580000000  0.4888830000000 1.0
C      1  0.5012500000000  0.4360330000000  0.4574920000000 1.0
C      1  0.5624290000000  0.5137210000000  0.4813590000000 1.0
C      1  0.5469050000000  0.5126690000000  0.5536670000000 1.0
C      1  0.4560710000000  0.5157250000000  0.5527460000000 1.0
C      1  0.4440980000000  0.5112630000000  0.4755930000000 1.0
C      1  0.5042850000000  0.5114940000000  0.4370210000000 1.0
C      1  0.4991340000000  0.6131570000000  0.5218250000000 1.0
C      1  0.4758270000000  0.6162830000000  0.5056520000000 1.0
C      1  0.4839990000000  0.6142090000000  0.4772710000000 1.0
C      1  0.5130260000000  0.6167700000000  0.4801270000000 1.0
C      1  0.5227420000000  0.6150730000000  0.5071840000000 1.0
C      1  0.3924030000000  0.4847080000000  0.5045270000000 1.0
C      1  0.4610030000000  0.4868470000000  0.3975140000000 1.0
C      1  0.5816030000000  0.4877700000000  0.4315550000000 1.0
C      1  0.5854630000000  0.4882660000000  0.5656120000000 1.0
C      1  0.4709480000000  0.4874920000000  0.6048160000000 1.0
C      1  0.4790560000000  0.5872990000000  0.4718150000000 1.0
C      1  0.5246730000000  0.5950730000000  0.4657310000000 1.0
C      1  0.5402850000000  0.5936850000000  0.5149040000000 1.0
C      1  0.4993220000000  0.5888100000000  0.5373530000000 1.0
C      1  0.4584260000000  0.5958220000000  0.5160100000000 1.0
C      1  0.5598410000000  0.4989890000000  0.5752720000000 1.0
C      1  0.4469910000000  0.4977570000000  0.5740150000000 1.0
C      1  0.4188500000000  0.4960840000000  0.4726940000000 1.0
C      1  0.5006860000000  0.4945260000000  0.4149450000000 1.0
C      1  0.5820530000000  0.4957460000000  0.4719870000000 1.0
C      1  0.4530350000000  0.4650120000000  0.5966350000000 1.0
C      1  0.3973050000000  0.4613670000000  0.4878680000000 1.0
C      1  0.4817220000000  0.4671670000000  0.3936470000000 1.0
C      1  0.5883990000000  0.4640470000000  0.4476360000000 1.0
C      1  0.5752790000000  0.4619380000000  0.5736700000000 1.0
C      1  0.4757510000000  0.4478670000000  0.5906400000000 1.0
C      1  0.4119520000000  0.4400850000000  0.5009020000000 1.0
C      1  0.4707270000000  0.4475870000000  0.4106150000000 1.0
C      1  0.5636620000000  0.4509460000000  0.4401070000000 1.0
C      1  0.5721870000000  0.4413110000000  0.5535680000000 1.0
C      1  0.5628640000000  0.5582550000000  0.4874320000000 1.0
C      1  0.5338400000000  0.5591620000000  0.5562460000000 1.0
C      1  0.4555470000000  0.5555350000000  0.5450850000000 1.0
C      1  0.4386160000000  0.5603350000000  0.4733170000000 1.0
C      1  0.5067140000000  0.5586660000000  0.4348310000000 1.0
C      1  0.4125340000000  0.4700150000000  0.5567740000000 1.0
C      1  0.4198270000000  0.4707930000000  0.4337380000000 1.0
C      1  0.5356920000000  0.4678270000000  0.4044430000000 1.0
C      1  0.6002980000000  0.4668730000000  0.5022040000000 1.0
C      1  0.5250650000000  0.4725750000000  0.5997830000000 1.0
C      1  0.4849850000000  0.5195670000000  0.5537870000000 1.0
C      1  0.4338910000000  0.5199210000000  0.5014000000000 1.0
C      1  0.4766120000000  0.5195760000000  0.4409910000000 1.0
C      1  0.5460640000000  0.5205290000000  0.4575360000000 1.0
C      1  0.5592450000000  0.5207210000000  0.5297880000000 1.0
C      1  0.4929510000000  0.3871670000000  0.4621540000000 1.0
C      1  0.5376770000000  0.3865280000000  0.4836850000000 1.0
C      1  0.5363030000000  0.3984420000000  0.5355620000000 1.0
C      1  0.4824950000000  0.3883110000000  0.5352150000000 1.0
C      1  0.4505090000000  0.3992040000000  0.4937380000000 1.0
C      1  0.4035790000000  0.5193630000000  0.4346740000000 1.0
C      1  0.5279620000000  0.5120740000000  0.3869090000000 1.0
C      1  0.6116800000000  0.5140330000000  0.4968680000000 1.0
C      1  0.5377430000000  0.5193900000000  0.6090320000000 1.0
C      1  0.4082630000000  0.5208400000000  0.5709650000000 1.0
C      1  0.4636530000000  0.5175610000000  0.3924730000000 1.0
C      1  0.5908820000000  0.5169750000000  0.4330100000000 1.0
C      1  0.5945150000000  0.5185420000000  0.5682220000000 1.0
C      1  0.4667940000000  0.5172480000000  0.6090070000000 1.0
C      1  0.3873720000000  0.5146570000000  0.5007710000000 1.0
C      1  0.4558140000000  0.3948130000000  0.5245890000000 1.0
C      1  0.4652380000000  0.3937930000000  0.4654310000000 1.0
C      1  0.5235430000000  0.3898610000000  0.4579050000000 1.0
C      1  0.5518320000000  0.3932050000000  0.5081680000000 1.0
C      1  0.5076860000000  0.3943220000000  0.5486040000000 1.0
C      1  0.3950670000000  0.5557830000000  0.5036830000000 1.0
C      1  0.4647300000000  0.5576490000000  0.4052560000000 1.0
C      1  0.5825330000000  0.5581480000000  0.4384460000000 1.0
C      1  0.5870050000000  0.5590940000000  0.5604850000000 1.0
C      1  0.4735400000000  0.5561380000000  0.5986430000000 1.0
C      1  0.6088710000000  0.4885350000000  0.4847540000000 1.0
C      1  0.5452150000000  0.4928260000000  0.6003820000000 1.0
C      1  0.4175360000000  0.4927900000000  0.5736360000000 1.0
C      1  0.4056860000000  0.4927480000000  0.4462670000000 1.0
C      1  0.5162500000000  0.4858780000000  0.3912810000000 1.0
C      1  0.5174280000000  0.5171180000000  0.5201350000000 1.0
C      1  0.4896470000000  0.5089880000000  0.5239680000000 1.0
C      1  0.4765810000000  0.5191980000000  0.4982800000000 1.0
C      1  0.4980760000000  0.5104230000000  0.4796540000000 1.0
C      1  0.5227300000000  0.5100030000000  0.4943850000000 1.0
C      1  0.5535310000000  0.4418960000000  0.5096780000000 1.0
C      1  0.4988910000000  0.4441320000000  0.5520590000000 1.0
C      1  0.4504210000000  0.4432180000000  0.5258590000000 1.0
C      1  0.4724280000000  0.4440920000000  0.4597840000000 1.0
C      1  0.5247330000000  0.4531490000000  0.4676550000000 1.0
C      1  0.4002680000000  0.5383970000000  0.4549500000000 1.0
C      1  0.5137880000000  0.5365720000000  0.3928590000000 1.0
C      1  0.6055310000000  0.5375340000000  0.4816980000000 1.0
C      1  0.5531420000000  0.5393890000000  0.5957190000000 1.0
C      1  0.4268920000000  0.5404630000000  0.5814730000000 1.0
C      1  0.5195970000000  0.5467020000000  0.5141610000000 1.0
C      1  0.4946810000000  0.5586980000000  0.5251280000000 1.0
C      1  0.4755770000000  0.5485520000000  0.5024530000000 1.0
C      1  0.4913220000000  0.5556960000000  0.4776110000000 1.0
C      1  0.5183570000000  0.5516900000000  0.4854130000000 1.0
C      1  0.4414490000000  0.4861080000000  0.4200900000000 1.0
C      1  0.5578640000000  0.4842910000000  0.4141540000000 1.0
C      1  0.5883040000000  0.4800410000000  0.5251820000000 1.0
C      1  0.4998010000000  0.4858240000000  0.5952670000000 1.0
C      1  0.4062050000000  0.4836910000000  0.5312730000000 1.0
C      1  0.5348990000000  0.4282210000000  0.5724760000000 1.0
C      1  0.4484620000000  0.4263450000000  0.5650340000000 1.0
C      1  0.4296720000000  0.4268140000000  0.4604430000000 1.0
C      1  0.5072530000000  0.4265200000000  0.4293210000000 1.0
C      1  0.5762780000000  0.4246630000000  0.4762300000000 1.0
C      1  0.4267320000000  0.4174060000000  0.4864630000000 1.0
C      1  0.4756600000000  0.4239490000000  0.4246480000000 1.0
C      1  0.5590350000000  0.4238050000000  0.4496590000000 1.0
C      1  0.5529690000000  0.4181640000000  0.5547470000000 1.0
C      1  0.4738990000000  0.4220570000000  0.5777480000000 1.0
C      1  0.4838110000000  0.4624850000000  0.5658320000000 1.0
C      1  0.4328720000000  0.4584080000000  0.5086300000000 1.0
C      1  0.4708580000000  0.4698370000000  0.4452670000000 1.0
C      1  0.5418030000000  0.4713690000000  0.4522260000000 1.0
C      1  0.5637600000000  0.4642290000000  0.5333680000000 1.0
C      1  0.4286160000000  0.5534020000000  0.5556790000000 1.0
C      1  0.4240690000000  0.5512890000000  0.4507800000000 1.0
C      1  0.5251540000000  0.5478340000000  0.4160440000000 1.0
C      1  0.5891370000000  0.5554930000000  0.4979870000000 1.0
C      1  0.5307780000000  0.5505250000000  0.5830740000000 1.0
C      1  0.4984980000000  0.4132310000000  0.4761450000000 1.0
C      1  0.5234050000000  0.4127740000000  0.4894750000000 1.0
C      1  0.5177230000000  0.4165670000000  0.5178560000000 1.0
C      1  0.4892890000000  0.4153120000000  0.5206840000000 1.0
C      1  0.4769710000000  0.4178800000000  0.4954440000000 1.0
C      1  0.4540820000000  0.4932680000000  0.5342590000000 1.0
C      1  0.4574530000000  0.4861730000000  0.4664090000000 1.0
C      1  0.5259970000000  0.4997480000000  0.4520530000000 1.0
C      1  0.5459840000000  0.4921640000000  0.4955780000000 1.0
C      1  0.5228880000000  0.4963040000000  0.5496250000000 1.0
END
