TITL C-2441158-471-1369 0.087595035570511 125000 -18567.3269561458 0 0 139 (C1) n - 1
REM
REM in /home/bkarasulu/work/CARBON/AIRSS/Generating-Clusters/ReaxFF-fromJPCA2015/Units_Real/with-SteepDescent/Higher-Symm
REM
REM
REM
REM
REM
REM ./C.cell (1df0a924f5614ab8850e4351716899ee)
REM
REM compiler GCC version 9.2.1 20190827 (Red Hat 9.2.1-1)
REM options -cpp -mtune=generic -march=x86-64 -g -O0 -fpre-include=/usr/include/finclude/math-vector-fortran.h
REM seed 1927528508 -349768797 -514856086 -1744629173 1047118929 1855829093 996403306 -1912573870 988266482 1811636774 585346245 1902508412 -1184191863 1603046514 1126944750 -1153420767 954382703 886922410 1887681299 1562644316 -1430814645 -1114494765 -1006026590 139810486 1933948274 -1422926760 766474370 -1773614027 1712539556 -169994285 -1970094137 258552114 -1425150589
REM
CELL 1.54180   50.00000   50.00000   50.00000   90.00000   90.00000   90.00000
LATT -1
SFAC C  
C      1  0.4493400000000  0.5194140000000  0.5169460000000 1.0
C      1  0.4665530000000  0.5765490000000  0.4545140000000 1.0
C      1  0.4656410000000  0.5898010000000  0.5206750000000 1.0
C      1  0.5271090000000  0.5034440000000  0.4748410000000 1.0
C      1  0.4887590000000  0.5064120000000  0.4107560000000 1.0
C      1  0.5073280000000  0.5513410000000  0.4206610000000 1.0
C      1  0.4027550000000  0.5155030000000  0.5010830000000 1.0
C      1  0.4168080000000  0.5256080000000  0.4469240000000 1.0
C      1  0.5425610000000  0.5388960000000  0.4525440000000 1.0
C      1  0.5698020000000  0.5298450000000  0.4468390000000 1.0
C      1  0.4821910000000  0.4123850000000  0.4744220000000 1.0
C      1  0.5738860000000  0.5348140000000  0.5401010000000 1.0
C      1  0.4933070000000  0.5437460000000  0.4990560000000 1.0
C      1  0.4878270000000  0.5316990000000  0.4722290000000 1.0
C      1  0.4780620000000  0.4105050000000  0.5494440000000 1.0
C      1  0.4196990000000  0.5055720000000  0.5491690000000 1.0
C      1  0.4106590000000  0.4689160000000  0.4849870000000 1.0
C      1  0.4509600000000  0.4627780000000  0.4690990000000 1.0
C      1  0.5267760000000  0.4676590000000  0.5006500000000 1.0
C      1  0.5603710000000  0.5099410000000  0.5790510000000 1.0
C      1  0.4339900000000  0.5603070000000  0.5413120000000 1.0
C      1  0.4039070000000  0.4990940000000  0.5258050000000 1.0
C      1  0.5326730000000  0.4206430000000  0.5129660000000 1.0
C      1  0.4571520000000  0.5690520000000  0.5566850000000 1.0
C      1  0.4678610000000  0.4702210000000  0.4222070000000 1.0
C      1  0.4994280000000  0.4574340000000  0.4914280000000 1.0
C      1  0.5772220000000  0.5623690000000  0.4840770000000 1.0
C      1  0.4626090000000  0.4984890000000  0.5369260000000 1.0
C      1  0.5706850000000  0.4495770000000  0.5015960000000 1.0
C      1  0.4696790000000  0.4954980000000  0.4898390000000 1.0
C      1  0.5303410000000  0.5358830000000  0.4073150000000 1.0
C      1  0.5703740000000  0.4717930000000  0.5260130000000 1.0
C      1  0.5521960000000  0.4701290000000  0.4219070000000 1.0
C      1  0.5675420000000  0.5626100000000  0.5108620000000 1.0
C      1  0.4255240000000  0.4855400000000  0.4272050000000 1.0
C      1  0.5835760000000  0.5369930000000  0.4702820000000 1.0
C      1  0.4328810000000  0.4292870000000  0.4985790000000 1.0
C      1  0.5675210000000  0.5219860000000  0.4878760000000 1.0
C      1  0.4968980000000  0.5406280000000  0.6015270000000 1.0
C      1  0.4709630000000  0.5435430000000  0.5568600000000 1.0
C      1  0.4924710000000  0.5013180000000  0.5039790000000 1.0
C      1  0.4093730000000  0.5000390000000  0.4491990000000 1.0
C      1  0.5218770000000  0.5281270000000  0.4333950000000 1.0
C      1  0.4940000000000  0.4717740000000  0.4671500000000 1.0
C      1  0.4489260000000  0.5309160000000  0.5716780000000 1.0
C      1  0.5196070000000  0.4467630000000  0.5519990000000 1.0
C      1  0.4787830000000  0.5497970000000  0.4530410000000 1.0
C      1  0.4958810000000  0.4323400000000  0.4327190000000 1.0
C      1  0.5420820000000  0.4727210000000  0.5827110000000 1.0
C      1  0.5018900000000  0.4166240000000  0.4536550000000 1.0
C      1  0.5536120000000  0.5497530000000  0.5548130000000 1.0
C      1  0.4269710000000  0.4472510000000  0.4747780000000 1.0
C      1  0.5371440000000  0.4948570000000  0.5910310000000 1.0
C      1  0.5043710000000  0.5057610000000  0.4348780000000 1.0
C      1  0.5274130000000  0.5850900000000  0.5324640000000 1.0
C      1  0.4374250000000  0.4054120000000  0.4831830000000 1.0
C      1  0.5178560000000  0.5719800000000  0.4407760000000 1.0
C      1  0.5332140000000  0.5697510000000  0.5530430000000 1.0
C      1  0.4423260000000  0.5726030000000  0.5163860000000 1.0
C      1  0.5358030000000  0.4880780000000  0.4056960000000 1.0
C      1  0.5152910000000  0.5799240000000  0.4682380000000 1.0
C      1  0.4162500000000  0.5397590000000  0.4977850000000 1.0
C      1  0.5264400000000  0.4728980000000  0.5340350000000 1.0
C      1  0.4726890000000  0.4633220000000  0.4504780000000 1.0
C      1  0.5345790000000  0.5177790000000  0.5225510000000 1.0
C      1  0.4493450000000  0.4996640000000  0.4202190000000 1.0
C      1  0.5736510000000  0.4912420000000  0.4835460000000 1.0
C      1  0.4807500000000  0.5348600000000  0.4162000000000 1.0
C      1  0.4948260000000  0.4019980000000  0.4985120000000 1.0
C      1  0.4401060000000  0.5664080000000  0.4613570000000 1.0
C      1  0.5045790000000  0.5075100000000  0.5687640000000 1.0
C      1  0.5458180000000  0.5669230000000  0.4445880000000 1.0
C      1  0.4600650000000  0.4213020000000  0.5629430000000 1.0
C      1  0.5455820000000  0.4358390000000  0.5642850000000 1.0
C      1  0.5381130000000  0.5867820000000  0.4834230000000 1.0
C      1  0.5472820000000  0.5359850000000  0.5786590000000 1.0
C      1  0.4564760000000  0.4716020000000  0.4952050000000 1.0
C      1  0.4337530000000  0.5457200000000  0.4415040000000 1.0
C      1  0.4265480000000  0.5335220000000  0.5539040000000 1.0
C      1  0.5073890000000  0.4865850000000  0.3989980000000 1.0
C      1  0.5389280000000  0.5311840000000  0.4820300000000 1.0
C      1  0.5400600000000  0.4480380000000  0.4326250000000 1.0
C      1  0.4559610000000  0.5267690000000  0.4286720000000 1.0
C      1  0.4335190000000  0.5612430000000  0.4904340000000 1.0
C      1  0.5278280000000  0.4192960000000  0.4663700000000 1.0
C      1  0.5059320000000  0.5713130000000  0.5437760000000 1.0
C      1  0.4167260000000  0.4974650000000  0.4790640000000 1.0
C      1  0.5658590000000  0.4290680000000  0.5441620000000 1.0
C      1  0.4835450000000  0.5157300000000  0.6056660000000 1.0
C      1  0.5743220000000  0.4818540000000  0.4355770000000 1.0
C      1  0.5773030000000  0.4549890000000  0.5483990000000 1.0
C      1  0.5123710000000  0.4462820000000  0.4211940000000 1.0
C      1  0.5832740000000  0.5274800000000  0.5129610000000 1.0
C      1  0.5934600000000  0.5007130000000  0.5092460000000 1.0
C      1  0.4827480000000  0.4717860000000  0.5857460000000 1.0
C      1  0.5224030000000  0.5374920000000  0.5064650000000 1.0
C      1  0.4092750000000  0.4729780000000  0.5133350000000 1.0
C      1  0.4558200000000  0.4836080000000  0.5843140000000 1.0
C      1  0.4916270000000  0.4577530000000  0.5627640000000 1.0
C      1  0.4399840000000  0.4620130000000  0.5444070000000 1.0
C      1  0.5636420000000  0.4567150000000  0.5746410000000 1.0
C      1  0.4835460000000  0.4478170000000  0.5150570000000 1.0
C      1  0.4934820000000  0.4628210000000  0.4069860000000 1.0
C      1  0.5222520000000  0.5462630000000  0.5903270000000 1.0
C      1  0.5487060000000  0.5136540000000  0.4076670000000 1.0
C      1  0.4578680000000  0.5115400000000  0.5921190000000 1.0
C      1  0.5460060000000  0.4809040000000  0.4791630000000 1.0
C      1  0.4947740000000  0.4047250000000  0.5278290000000 1.0
C      1  0.4907630000000  0.5124690000000  0.5286610000000 1.0
C      1  0.4441780000000  0.4328910000000  0.5424570000000 1.0
C      1  0.5454660000000  0.5801600000000  0.5109350000000 1.0
C      1  0.4454320000000  0.5115070000000  0.4891160000000 1.0
C      1  0.5025440000000  0.4944220000000  0.5948230000000 1.0
C      1  0.4805820000000  0.4710990000000  0.5391340000000 1.0
C      1  0.5453720000000  0.4942960000000  0.5323690000000 1.0
C      1  0.5591760000000  0.5788520000000  0.4670660000000 1.0
C      1  0.4818110000000  0.5974820000000  0.5003390000000 1.0
C      1  0.5783170000000  0.5108230000000  0.5553530000000 1.0
C      1  0.5484020000000  0.4367820000000  0.4571540000000 1.0
C      1  0.5901820000000  0.4916440000000  0.5362380000000 1.0
C      1  0.4721630000000  0.5374970000000  0.5234570000000 1.0
C      1  0.5822580000000  0.4740470000000  0.4620910000000 1.0
C      1  0.4748730000000  0.5960270000000  0.4741340000000 1.0
C      1  0.4577520000000  0.4327670000000  0.5159250000000 1.0
C      1  0.5712050000000  0.4488710000000  0.4728830000000 1.0
C      1  0.4938700000000  0.5766130000000  0.4869500000000 1.0
C      1  0.4378650000000  0.4701110000000  0.5170210000000 1.0
C      1  0.4344270000000  0.4828570000000  0.5634350000000 1.0
C      1  0.5111360000000  0.4290110000000  0.5292240000000 1.0
C      1  0.5214920000000  0.4092750000000  0.4915530000000 1.0
C      1  0.5706140000000  0.5091980000000  0.4270720000000 1.0
C      1  0.5047000000000  0.4924790000000  0.5444440000000 1.0
C      1  0.4995470000000  0.5021950000000  0.4616800000000 1.0
C      1  0.4794920000000  0.5837060000000  0.5455480000000 1.0
C      1  0.4554650000000  0.4183600000000  0.4676830000000 1.0
C      1  0.5157230000000  0.4943480000000  0.4984030000000 1.0
C      1  0.4383090000000  0.4590330000000  0.4210150000000 1.0
C      1  0.5010950000000  0.5362010000000  0.5701960000000 1.0
C      1  0.5605950000000  0.4269990000000  0.5156220000000 1.0
END
