TITL C-2441159-1093-593 0.0348733189090667 125000 -9612.96856179303 0 0 69 (C1) n - 1
REM
REM in /home/bkarasulu/work/CARBON/AIRSS/Generating-Clusters/ReaxFF-fromJPCA2015/Units_Real/with-SteepDescent/Higher-Symm
REM
REM
REM
REM
REM
REM ./C.cell (1df0a924f5614ab8850e4351716899ee)
REM
REM compiler GCC version 9.2.1 20190827 (Red Hat 9.2.1-1)
REM options -cpp -mtune=generic -march=x86-64 -g -O0 -fpre-include=/usr/include/finclude/math-vector-fortran.h
REM seed -304769148 -2079424787 400882 -767285943 824842758 -1208833223 -2082886169 344261657 1741341678 -1008402324 -2102569685 759129945 153142065 350869568 908860661 -1023081413 -1675060016 1625983124 1713568640 1356204391 -925490112 404895207 -1571849651 788783751 1310764044 1672814454 400538297 1836964167 1143164368 1117323378 688406970 411578541 -1581660564
REM
CELL 1.54180   50.00000   50.00000   50.00000   90.00000   90.00000   90.00000
LATT -1
SFAC C  
C      1  0.4770270000000  0.4621700000000  0.5301670000000 1.0
C      1  0.5263860000000  0.4640840000000  0.5313460000000 1.0
C      1  0.5491840000000  0.5171700000000  0.5355440000000 1.0
C      1  0.4959550000000  0.5516520000000  0.5346920000000 1.0
C      1  0.4490020000000  0.5116410000000  0.5344010000000 1.0
C      1  0.4983310000000  0.5435540000000  0.5621020000000 1.0
C      1  0.4589380000000  0.5116580000000  0.5611890000000 1.0
C      1  0.4733050000000  0.4649100000000  0.5609320000000 1.0
C      1  0.5227210000000  0.4639530000000  0.5619400000000 1.0
C      1  0.5430020000000  0.5082190000000  0.5626740000000 1.0
C      1  0.5470200000000  0.4445580000000  0.4794750000000 1.0
C      1  0.5649810000000  0.5283990000000  0.4794670000000 1.0
C      1  0.4927640000000  0.5636270000000  0.4764530000000 1.0
C      1  0.4284370000000  0.5148780000000  0.4800180000000 1.0
C      1  0.4610110000000  0.4337490000000  0.4809130000000 1.0
C      1  0.4579410000000  0.5381700000000  0.4517440000000 1.0
C      1  0.4451110000000  0.4813320000000  0.4483650000000 1.0
C      1  0.4982920000000  0.4425750000000  0.4487210000000 1.0
C      1  0.5559560000000  0.4800220000000  0.4508820000000 1.0
C      1  0.5408240000000  0.5574240000000  0.4490410000000 1.0
C      1  0.4746020000000  0.5104640000000  0.4288930000000 1.0
C      1  0.4704820000000  0.4823930000000  0.4323410000000 1.0
C      1  0.4972460000000  0.4690050000000  0.4348860000000 1.0
C      1  0.5395720000000  0.5016530000000  0.4417400000000 1.0
C      1  0.4985410000000  0.5219480000000  0.4362310000000 1.0
C      1  0.4754520000000  0.5289440000000  0.5696610000000 1.0
C      1  0.4668790000000  0.4899590000000  0.5713080000000 1.0
C      1  0.4987510000000  0.4654240000000  0.5717440000000 1.0
C      1  0.5349720000000  0.4819670000000  0.5701170000000 1.0
C      1  0.5160490000000  0.5193610000000  0.5683820000000 1.0
C      1  0.4247420000000  0.4906990000000  0.4937690000000 1.0
C      1  0.4839730000000  0.4239390000000  0.4941930000000 1.0
C      1  0.5644180000000  0.4604170000000  0.4958590000000 1.0
C      1  0.5587070000000  0.5495240000000  0.4976590000000 1.0
C      1  0.4705200000000  0.5674820000000  0.4939340000000 1.0
C      1  0.5169660000000  0.4392950000000  0.5189960000000 1.0
C      1  0.5605510000000  0.4971440000000  0.5193190000000 1.0
C      1  0.5189930000000  0.5554430000000  0.5202170000000 1.0
C      1  0.4508700000000  0.5357790000000  0.5195310000000 1.0
C      1  0.4507470000000  0.4647320000000  0.5187560000000 1.0
C      1  0.5144710000000  0.4780840000000  0.4805540000000 1.0
C      1  0.5232720000000  0.5270690000000  0.4843020000000 1.0
C      1  0.4844550000000  0.5189860000000  0.4850690000000 1.0
C      1  0.4698780000000  0.4965310000000  0.4782820000000 1.0
C      1  0.4867100000000  0.4730340000000  0.4777320000000 1.0
C      1  0.5448880000000  0.5432780000000  0.5228920000000 1.0
C      1  0.4713560000000  0.5557240000000  0.5208110000000 1.0
C      1  0.4369060000000  0.4891320000000  0.5204170000000 1.0
C      1  0.4891360000000  0.4366610000000  0.5199280000000 1.0
C      1  0.5535160000000  0.4702860000000  0.5207980000000 1.0
C      1  0.4446720000000  0.4531250000000  0.4933370000000 1.0
C      1  0.5252990000000  0.4310630000000  0.4924030000000 1.0
C      1  0.5691110000000  0.5030530000000  0.4926110000000 1.0
C      1  0.5163190000000  0.5555580000000  0.4908190000000 1.0
C      1  0.4400520000000  0.5366610000000  0.4931820000000 1.0
C      1  0.4459360000000  0.5099870000000  0.4578140000000 1.0
C      1  0.4739740000000  0.4507780000000  0.4621150000000 1.0
C      1  0.5343640000000  0.4649450000000  0.4633960000000 1.0
C      1  0.5402220000000  0.5259840000000  0.4599550000000 1.0
C      1  0.4867380000000  0.5401370000000  0.4592930000000 1.0
C      1  0.5715940000000  0.4800920000000  0.4759330000000 1.0
C      1  0.5448780000000  0.5651060000000  0.4760000000000 1.0
C      1  0.4516990000000  0.5551790000000  0.4748340000000 1.0
C      1  0.4337670000000  0.4714520000000  0.4737740000000 1.0
C      1  0.5042410000000  0.4262980000000  0.4733790000000 1.0
C      1  0.5118120000000  0.4953810000000  0.4393030000000 1.0
C      1  0.5028000000000  0.5057420000000  0.5465330000000 1.0
C      1  0.5090300000000  0.5042250000000  0.4957940000000 1.0
C      1  0.5015120000000  0.4867470000000  0.5259080000000 1.0
END
