TITL C-2441163-1170-732 0.0501304984933794 125000 -17466.9010588234 0 0 128 (C1) n - 1
REM
REM in /home/bkarasulu/work/CARBON/AIRSS/Generating-Clusters/ReaxFF-fromJPCA2015/Units_Real/with-SteepDescent/Higher-Symm
REM
REM
REM
REM
REM
REM ./C.cell (1df0a924f5614ab8850e4351716899ee)
REM
REM compiler GCC version 9.2.1 20190827 (Red Hat 9.2.1-1)
REM options -cpp -mtune=generic -march=x86-64 -g -O0 -fpre-include=/usr/include/finclude/math-vector-fortran.h
REM seed -1889699374 -1949685551 669238128 -1946827477 -563962467 -1307302728 -1800222897 -1776381352 952828059 128871393 -228118124 -244273131 1545154307 -1217997127 875301886 579257127 -1119163657 -267790191 1723609539 812438350 831848434 383762367 536443620 2095566988 1542699395 1160022717 1680759689 -783025163 253180494 1360142825 1900097868 224325973 -114205948
REM
CELL 1.54180   50.00000   50.00000   50.00000   90.00000   90.00000   90.00000
LATT -1
SFAC C  
C      1  0.4836650000000  0.5003570000000  0.4542500000000 1.0
C      1  0.4879760000000  0.5372840000000  0.5219210000000 1.0
C      1  0.4856300000000  0.4624480000000  0.5238460000000 1.0
C      1  0.5146850000000  0.5070790000000  0.4549430000000 1.0
C      1  0.5163280000000  0.4609640000000  0.5212240000000 1.0
C      1  0.5163640000000  0.5383330000000  0.5284440000000 1.0
C      1  0.4771020000000  0.4755340000000  0.5525030000000 1.0
C      1  0.4783970000000  0.4697030000000  0.4568930000000 1.0
C      1  0.4905040000000  0.5470570000000  0.4943360000000 1.0
C      1  0.5229480000000  0.5221320000000  0.5520680000000 1.0
C      1  0.5228760000000  0.5359170000000  0.4516410000000 1.0
C      1  0.5228120000000  0.4459220000000  0.4933610000000 1.0
C      1  0.4469960000000  0.5842550000000  0.5036610000000 1.0
C      1  0.4467770000000  0.4501710000000  0.5771360000000 1.0
C      1  0.4483390000000  0.4620880000000  0.4197110000000 1.0
C      1  0.5504370000000  0.4104610000000  0.5074420000000 1.0
C      1  0.5533810000000  0.5470250000000  0.5778040000000 1.0
C      1  0.5549240000000  0.5432010000000  0.4214200000000 1.0
C      1  0.5138220000000  0.5364870000000  0.4225740000000 1.0
C      1  0.5115140000000  0.5456890000000  0.5692230000000 1.0
C      1  0.5086450000000  0.4108850000000  0.5060440000000 1.0
C      1  0.4892340000000  0.4655470000000  0.4289810000000 1.0
C      1  0.4884960000000  0.4544590000000  0.5702020000000 1.0
C      1  0.4900550000000  0.5758930000000  0.5018830000000 1.0
C      1  0.4289460000000  0.5709770000000  0.5224420000000 1.0
C      1  0.4396510000000  0.4332720000000  0.5553080000000 1.0
C      1  0.4314920000000  0.4833010000000  0.4293850000000 1.0
C      1  0.5696760000000  0.4256900000000  0.5244780000000 1.0
C      1  0.5597060000000  0.5672290000000  0.5579960000000 1.0
C      1  0.5577710000000  0.5164450000000  0.4136640000000 1.0
C      1  0.4427790000000  0.4435100000000  0.5261090000000 1.0
C      1  0.4413590000000  0.5098850000000  0.4280450000000 1.0
C      1  0.4428310000000  0.5496210000000  0.5381710000000 1.0
C      1  0.5557050000000  0.5623550000000  0.5304830000000 1.0
C      1  0.5579390000000  0.4943730000000  0.4380280000000 1.0
C      1  0.5599260000000  0.4405240000000  0.5470620000000 1.0
C      1  0.4681240000000  0.4310960000000  0.5636700000000 1.0
C      1  0.4699010000000  0.4798450000000  0.4123340000000 1.0
C      1  0.4695980000000  0.5823160000000  0.5215920000000 1.0
C      1  0.5326660000000  0.5665760000000  0.5698030000000 1.0
C      1  0.5292860000000  0.5158190000000  0.4079000000000 1.0
C      1  0.5283610000000  0.4126480000000  0.5262600000000 1.0
C      1  0.5770430000000  0.5257680000000  0.5326940000000 1.0
C      1  0.5747040000000  0.4504840000000  0.5078500000000 1.0
C      1  0.5865780000000  0.5167060000000  0.4666280000000 1.0
C      1  0.4146050000000  0.4823480000000  0.5299700000000 1.0
C      1  0.4179010000000  0.5480410000000  0.5065930000000 1.0
C      1  0.4240100000000  0.4851670000000  0.4626650000000 1.0
C      1  0.5165040000000  0.4661550000000  0.4209080000000 1.0
C      1  0.5162790000000  0.5855560000000  0.5089130000000 1.0
C      1  0.5159050000000  0.4456240000000  0.5701630000000 1.0
C      1  0.4853290000000  0.5345560000000  0.4180310000000 1.0
C      1  0.4813580000000  0.4118320000000  0.5120030000000 1.0
C      1  0.4842350000000  0.5547820000000  0.5691520000000 1.0
C      1  0.4705580000000  0.5084720000000  0.4238380000000 1.0
C      1  0.4725410000000  0.5593280000000  0.5416250000000 1.0
C      1  0.4730290000000  0.4346740000000  0.5304480000000 1.0
C      1  0.5276620000000  0.4928350000000  0.4287490000000 1.0
C      1  0.5295340000000  0.4392900000000  0.5438460000000 1.0
C      1  0.5267500000000  0.5659410000000  0.5287410000000 1.0
C      1  0.5954160000000  0.5218450000000  0.4943560000000 1.0
C      1  0.5956360000000  0.4965430000000  0.5113800000000 1.0
C      1  0.5953460000000  0.4808640000000  0.4877750000000 1.0
C      1  0.4026720000000  0.4770280000000  0.4840900000000 1.0
C      1  0.3994690000000  0.4957340000000  0.5057830000000 1.0
C      1  0.4035710000000  0.5191460000000  0.4900840000000 1.0
C      1  0.5753560000000  0.5434940000000  0.4649420000000 1.0
C      1  0.5756080000000  0.5109350000000  0.5570450000000 1.0
C      1  0.5728850000000  0.4402900000000  0.4801440000000 1.0
C      1  0.4286840000000  0.4556370000000  0.4608200000000 1.0
C      1  0.4242680000000  0.4881100000000  0.5574360000000 1.0
C      1  0.4186150000000  0.5561960000000  0.4788710000000 1.0
C      1  0.4163110000000  0.5142120000000  0.5556600000000 1.0
C      1  0.4143100000000  0.4492530000000  0.4854010000000 1.0
C      1  0.4117740000000  0.5315080000000  0.4650830000000 1.0
C      1  0.5850450000000  0.4875600000000  0.5427120000000 1.0
C      1  0.5837080000000  0.5491040000000  0.4919760000000 1.0
C      1  0.5851100000000  0.4631640000000  0.4664130000000 1.0
C      1  0.4766560000000  0.5343770000000  0.5889680000000 1.0
C      1  0.4733990000000  0.4073380000000  0.4838780000000 1.0
C      1  0.4739030000000  0.5589870000000  0.4278960000000 1.0
C      1  0.5249650000000  0.4675110000000  0.5872080000000 1.0
C      1  0.5252200000000  0.5930490000000  0.4820110000000 1.0
C      1  0.5252490000000  0.4406970000000  0.4311880000000 1.0
C      1  0.4278930000000  0.4308260000000  0.5030190000000 1.0
C      1  0.4295350000000  0.5311350000000  0.4415300000000 1.0
C      1  0.4284300000000  0.5377620000000  0.5636360000000 1.0
C      1  0.5684910000000  0.5695060000000  0.5063400000000 1.0
C      1  0.5678480000000  0.4678450000000  0.4434980000000 1.0
C      1  0.5726600000000  0.4652290000000  0.5567010000000 1.0
C      1  0.4542250000000  0.4543940000000  0.4478480000000 1.0
C      1  0.4448470000000  0.5691200000000  0.4788080000000 1.0
C      1  0.4512290000000  0.4763450000000  0.5660000000000 1.0
C      1  0.5503040000000  0.5480290000000  0.4486640000000 1.0
C      1  0.5456680000000  0.4291490000000  0.4846190000000 1.0
C      1  0.5485610000000  0.5206600000000  0.5665980000000 1.0
C      1  0.5490560000000  0.5752410000000  0.4847060000000 1.0
C      1  0.5496090000000  0.4774260000000  0.5718290000000 1.0
C      1  0.5436690000000  0.4538100000000  0.4496290000000 1.0
C      1  0.4482430000000  0.4251130000000  0.4831790000000 1.0
C      1  0.4512730000000  0.5233410000000  0.5762220000000 1.0
C      1  0.4494880000000  0.5515510000000  0.4416540000000 1.0
C      1  0.5364340000000  0.4833430000000  0.5494250000000 1.0
C      1  0.5266720000000  0.4645870000000  0.4722920000000 1.0
C      1  0.5349680000000  0.5528280000000  0.4886780000000 1.0
C      1  0.4644990000000  0.5151260000000  0.5518910000000 1.0
C      1  0.4633560000000  0.5489550000000  0.4674280000000 1.0
C      1  0.4626360000000  0.4487930000000  0.4891070000000 1.0
C      1  0.4462100000000  0.5001380000000  0.4781410000000 1.0
C      1  0.4401420000000  0.5312210000000  0.5155640000000 1.0
C      1  0.4399790000000  0.4746420000000  0.5187350000000 1.0
C      1  0.5610810000000  0.5038890000000  0.4663410000000 1.0
C      1  0.5556250000000  0.4731450000000  0.5090420000000 1.0
C      1  0.5562060000000  0.5253640000000  0.5144360000000 1.0
C      1  0.4666730000000  0.5184390000000  0.4709450000000 1.0
C      1  0.4754980000000  0.5093990000000  0.5270630000000 1.0
C      1  0.4742820000000  0.4677890000000  0.4953640000000 1.0
C      1  0.5230020000000  0.4935770000000  0.4787990000000 1.0
C      1  0.5249480000000  0.4884290000000  0.5297890000000 1.0
C      1  0.5160770000000  0.5332400000000  0.4880350000000 1.0
C      1  0.4909810000000  0.4138900000000  0.4624720000000 1.0
C      1  0.4916780000000  0.5756750000000  0.4436830000000 1.0
C      1  0.4930690000000  0.5111240000000  0.5934370000000 1.0
C      1  0.5079440000000  0.5862270000000  0.4610310000000 1.0
C      1  0.5071800000000  0.4241620000000  0.4453940000000 1.0
C      1  0.5078040000000  0.4901820000000  0.5930240000000 1.0
C      1  0.4499640000000  0.5022220000000  0.5086150000000 1.0
C      1  0.5485180000000  0.4992990000000  0.4931870000000 1.0
END
