TITL C-2441158-471-623 0.191700433700309 125000 -19860.6056801197 0 0 163 (C1) n - 1
REM
REM in /home/bkarasulu/work/CARBON/AIRSS/Generating-Clusters/ReaxFF-fromJPCA2015/Units_Real/with-SteepDescent/Higher-Symm
REM
REM
REM
REM
REM
REM ./C.cell (1df0a924f5614ab8850e4351716899ee)
REM
REM compiler GCC version 9.2.1 20190827 (Red Hat 9.2.1-1)
REM options -cpp -mtune=generic -march=x86-64 -g -O0 -fpre-include=/usr/include/finclude/math-vector-fortran.h
REM seed -1021560362 959599138 -768397830 327297983 -2033026206 -813196031 -1331985384 -119233415 628905584 -1841198626 146879813 -2056615093 -1979413954 206932688 1039299297 -1040288718 1963107935 1993518304 1374720557 326493826 420892791 1967384843 -286147555 -759704280 -2028720765 -137429101 -325516464 -1080604249 2044068401 996643676 -1022143186 2096298916 -1722863742
REM
CELL 1.54180   50.00000   50.00000   50.00000   90.00000   90.00000   90.00000
LATT -1
SFAC C  
C      1  0.5147250000000  0.4463700000000  0.4909060000000 1.0
C      1  0.4859000000000  0.4465610000000  0.4871420000000 1.0
C      1  0.5578810000000  0.5759550000000  0.4752220000000 1.0
C      1  0.4378870000000  0.5759660000000  0.4738790000000 1.0
C      1  0.5406300000000  0.4836720000000  0.4982300000000 1.0
C      1  0.4506830000000  0.4673000000000  0.4899840000000 1.0
C      1  0.4687390000000  0.5024790000000  0.5416600000000 1.0
C      1  0.5363940000000  0.5027330000000  0.5405460000000 1.0
C      1  0.4473310000000  0.4488060000000  0.4160500000000 1.0
C      1  0.5530210000000  0.4431750000000  0.4225950000000 1.0
C      1  0.4848450000000  0.5934080000000  0.4498200000000 1.0
C      1  0.5146480000000  0.5924140000000  0.4530740000000 1.0
C      1  0.5111480000000  0.5244220000000  0.5028770000000 1.0
C      1  0.4874400000000  0.5190670000000  0.5069060000000 1.0
C      1  0.4663730000000  0.5864920000000  0.4720720000000 1.0
C      1  0.5310230000000  0.5887370000000  0.4767560000000 1.0
C      1  0.4633310000000  0.5664440000000  0.5634720000000 1.0
C      1  0.5402560000000  0.5729960000000  0.5573160000000 1.0
C      1  0.4864900000000  0.5770170000000  0.4257370000000 1.0
C      1  0.5160550000000  0.5721850000000  0.4316950000000 1.0
C      1  0.4179250000000  0.4431760000000  0.5091090000000 1.0
C      1  0.5795280000000  0.4444950000000  0.5079320000000 1.0
C      1  0.5370050000000  0.4085590000000  0.5064120000000 1.0
C      1  0.4628350000000  0.4083720000000  0.5066760000000 1.0
C      1  0.4108320000000  0.4483120000000  0.5371570000000 1.0
C      1  0.5874980000000  0.4496780000000  0.5352760000000 1.0
C      1  0.4843650000000  0.5260390000000  0.4342630000000 1.0
C      1  0.5138550000000  0.5261700000000  0.4311290000000 1.0
C      1  0.4185110000000  0.4552290000000  0.4540670000000 1.0
C      1  0.5864240000000  0.4565300000000  0.4506090000000 1.0
C      1  0.5995740000000  0.4754510000000  0.5410170000000 1.0
C      1  0.4060160000000  0.4761820000000  0.5427230000000 1.0
C      1  0.5127210000000  0.5330180000000  0.4774610000000 1.0
C      1  0.4858080000000  0.5411600000000  0.4703340000000 1.0
C      1  0.5245870000000  0.4464240000000  0.5701280000000 1.0
C      1  0.4869780000000  0.4519910000000  0.5650680000000 1.0
C      1  0.4862180000000  0.4867070000000  0.5595690000000 1.0
C      1  0.5135320000000  0.4888760000000  0.5481870000000 1.0
C      1  0.6062220000000  0.5144040000000  0.5003530000000 1.0
C      1  0.4000910000000  0.5139280000000  0.5057950000000 1.0
C      1  0.5420810000000  0.5634410000000  0.4227860000000 1.0
C      1  0.4600730000000  0.5656240000000  0.4294840000000 1.0
C      1  0.4615990000000  0.4305080000000  0.4337030000000 1.0
C      1  0.5320590000000  0.4256550000000  0.4321010000000 1.0
C      1  0.4830710000000  0.5044440000000  0.5833110000000 1.0
C      1  0.5256550000000  0.5068790000000  0.5873170000000 1.0
C      1  0.6078350000000  0.4983000000000  0.5257580000000 1.0
C      1  0.3965510000000  0.5008980000000  0.5314290000000 1.0
C      1  0.5537690000000  0.5060120000000  0.5876350000000 1.0
C      1  0.4356140000000  0.5076480000000  0.5894420000000 1.0
C      1  0.4470670000000  0.4926010000000  0.4524400000000 1.0
C      1  0.5519600000000  0.4918830000000  0.4550930000000 1.0
C      1  0.4819100000000  0.5576540000000  0.5846860000000 1.0
C      1  0.5107190000000  0.5600830000000  0.5831400000000 1.0
C      1  0.4872260000000  0.4902740000000  0.4823140000000 1.0
C      1  0.5098620000000  0.4906460000000  0.4712120000000 1.0
C      1  0.4401990000000  0.5712750000000  0.5060670000000 1.0
C      1  0.5633130000000  0.5711150000000  0.5046660000000 1.0
C      1  0.5795490000000  0.4723660000000  0.4286590000000 1.0
C      1  0.4254590000000  0.4641090000000  0.4273910000000 1.0
C      1  0.5236530000000  0.4213940000000  0.5522480000000 1.0
C      1  0.4780320000000  0.4275140000000  0.5516020000000 1.0
C      1  0.4380290000000  0.4448010000000  0.4730780000000 1.0
C      1  0.5595110000000  0.4433310000000  0.4572500000000 1.0
C      1  0.4857490000000  0.4118150000000  0.5269900000000 1.0
C      1  0.5152170000000  0.4089000000000  0.5273790000000 1.0
C      1  0.5466600000000  0.5875520000000  0.5192290000000 1.0
C      1  0.4584360000000  0.5859150000000  0.5178220000000 1.0
C      1  0.4737500000000  0.5392070000000  0.5204230000000 1.0
C      1  0.5262570000000  0.5368690000000  0.5213310000000 1.0
C      1  0.4571670000000  0.5307040000000  0.4810270000000 1.0
C      1  0.5421010000000  0.5347570000000  0.4814810000000 1.0
C      1  0.4876480000000  0.4208680000000  0.4730900000000 1.0
C      1  0.5139010000000  0.4212220000000  0.4767360000000 1.0
C      1  0.4868340000000  0.4973450000000  0.4371590000000 1.0
C      1  0.5141620000000  0.4992710000000  0.4444540000000 1.0
C      1  0.4334530000000  0.5361970000000  0.4407000000000 1.0
C      1  0.5625060000000  0.5427180000000  0.4412670000000 1.0
C      1  0.5142290000000  0.4497400000000  0.4371760000000 1.0
C      1  0.4843630000000  0.4498370000000  0.4321550000000 1.0
C      1  0.5992660000000  0.5097410000000  0.4700550000000 1.0
C      1  0.4052530000000  0.5051280000000  0.4616170000000 1.0
C      1  0.5103030000000  0.4538200000000  0.5206250000000 1.0
C      1  0.4811570000000  0.4501720000000  0.5163360000000 1.0
C      1  0.5804590000000  0.5106810000000  0.5293760000000 1.0
C      1  0.4179340000000  0.5177750000000  0.5419490000000 1.0
C      1  0.4499600000000  0.4287230000000  0.5434480000000 1.0
C      1  0.5481270000000  0.4303970000000  0.5403210000000 1.0
C      1  0.5653480000000  0.4797670000000  0.5838060000000 1.0
C      1  0.4318000000000  0.4826060000000  0.5931830000000 1.0
C      1  0.5602880000000  0.5517110000000  0.5561880000000 1.0
C      1  0.4395210000000  0.5506810000000  0.5562670000000 1.0
C      1  0.4084940000000  0.5424030000000  0.5062930000000 1.0
C      1  0.5953210000000  0.5423450000000  0.5086050000000 1.0
C      1  0.5479410000000  0.4970080000000  0.4065600000000 1.0
C      1  0.4534240000000  0.4976420000000  0.4062260000000 1.0
C      1  0.5681750000000  0.4426670000000  0.5558650000000 1.0
C      1  0.4284930000000  0.4397850000000  0.5585980000000 1.0
C      1  0.4625080000000  0.4728320000000  0.5166130000000 1.0
C      1  0.5462430000000  0.4743450000000  0.5244860000000 1.0
C      1  0.4325840000000  0.4791860000000  0.5536150000000 1.0
C      1  0.5777750000000  0.4846760000000  0.5585510000000 1.0
C      1  0.5485220000000  0.4153880000000  0.4539880000000 1.0
C      1  0.4499370000000  0.4213370000000  0.4591410000000 1.0
C      1  0.5772140000000  0.4980820000000  0.5013390000000 1.0
C      1  0.4215190000000  0.4958110000000  0.4982230000000 1.0
C      1  0.5546080000000  0.5355410000000  0.5805930000000 1.0
C      1  0.4444870000000  0.5331780000000  0.5802060000000 1.0
C      1  0.5147290000000  0.4841970000000  0.6026300000000 1.0
C      1  0.4858320000000  0.4845970000000  0.6035180000000 1.0
C      1  0.5124940000000  0.5632240000000  0.5546840000000 1.0
C      1  0.4853890000000  0.5755730000000  0.5479900000000 1.0
C      1  0.5295000000000  0.5198960000000  0.4072840000000 1.0
C      1  0.4671530000000  0.5231230000000  0.4095090000000 1.0
C      1  0.4418090000000  0.5039080000000  0.5480830000000 1.0
C      1  0.5624950000000  0.5034770000000  0.5483120000000 1.0
C      1  0.4200100000000  0.5456160000000  0.5352940000000 1.0
C      1  0.5783890000000  0.5422620000000  0.5332870000000 1.0
C      1  0.4624100000000  0.4698580000000  0.4012160000000 1.0
C      1  0.5440610000000  0.4668590000000  0.4064500000000 1.0
C      1  0.5510890000000  0.5392180000000  0.4115390000000 1.0
C      1  0.4476050000000  0.5431890000000  0.4161040000000 1.0
C      1  0.5256560000000  0.4689390000000  0.4788120000000 1.0
C      1  0.4736140000000  0.4688780000000  0.4754340000000 1.0
C      1  0.5144750000000  0.4555450000000  0.5967210000000 1.0
C      1  0.4854430000000  0.4561100000000  0.5940420000000 1.0
C      1  0.4094260000000  0.5330100000000  0.4576130000000 1.0
C      1  0.5888580000000  0.5339880000000  0.4582820000000 1.0
C      1  0.5523270000000  0.4553830000000  0.5755190000000 1.0
C      1  0.4389190000000  0.4608810000000  0.5762600000000 1.0
C      1  0.5507800000000  0.5517140000000  0.4634780000000 1.0
C      1  0.4475990000000  0.5558820000000  0.4548620000000 1.0
C      1  0.4725470000000  0.5308770000000  0.5877520000000 1.0
C      1  0.5267080000000  0.5365250000000  0.5894200000000 1.0
C      1  0.5355760000000  0.4024010000000  0.4775350000000 1.0
C      1  0.4648570000000  0.4037120000000  0.4779090000000 1.0
C      1  0.5096570000000  0.5806990000000  0.4951260000000 1.0
C      1  0.4852700000000  0.5678130000000  0.4837720000000 1.0
C      1  0.4138910000000  0.5525460000000  0.4803310000000 1.0
C      1  0.5886280000000  0.5490440000000  0.4819620000000 1.0
C      1  0.4831480000000  0.5275480000000  0.5442130000000 1.0
C      1  0.5118200000000  0.5325790000000  0.5460230000000 1.0
C      1  0.5401340000000  0.4647930000000  0.4559770000000 1.0
C      1  0.4711770000000  0.4763160000000  0.4475470000000 1.0
C      1  0.4795220000000  0.5976820000000  0.5304490000000 1.0
C      1  0.5288470000000  0.5954660000000  0.5372430000000 1.0
C      1  0.5851610000000  0.4703510000000  0.4945110000000 1.0
C      1  0.4110840000000  0.4689430000000  0.4954010000000 1.0
C      1  0.5509720000000  0.5435090000000  0.5095580000000 1.0
C      1  0.4499550000000  0.5426060000000  0.5064830000000 1.0
C      1  0.4431570000000  0.4272670000000  0.5149850000000 1.0
C      1  0.5543740000000  0.4301580000000  0.5124580000000 1.0
C      1  0.5662840000000  0.4976070000000  0.4297770000000 1.0
C      1  0.4332140000000  0.4927690000000  0.4271690000000 1.0
C      1  0.5933620000000  0.4797930000000  0.4678280000000 1.0
C      1  0.4028720000000  0.4770610000000  0.4673490000000 1.0
C      1  0.4437760000000  0.5035640000000  0.4793840000000 1.0
C      1  0.5545890000000  0.5044490000000  0.4822250000000 1.0
C      1  0.4854780000000  0.4927830000000  0.5088220000000 1.0
C      1  0.5080230000000  0.4822770000000  0.5218690000000 1.0
C      1  0.5154090000000  0.4661410000000  0.4123710000000 1.0
C      1  0.4891130000000  0.4595020000000  0.4032380000000 1.0
C      1  0.5061950000000  0.5977270000000  0.5181260000000 1.0
END
