TITL C-2441167-4473-367 0.113442758393915 125000 -17477.6903770371 0 0 138 (C1) n - 1
REM
REM in /home/bkarasulu/work/CARBON/AIRSS/Generating-Clusters/ReaxFF-fromJPCA2015/Units_Real/with-SteepDescent/Higher-Symm
REM
REM
REM
REM
REM
REM ./C.cell (1df0a924f5614ab8850e4351716899ee)
REM
REM compiler GCC version 9.2.1 20190827 (Red Hat 9.2.1-1)
REM options -cpp -mtune=generic -march=x86-64 -g -O0 -fpre-include=/usr/include/finclude/math-vector-fortran.h
REM seed 1707646164 -333193 -1392968355 2130550702 1169466999 -1940093676 -1218786963 -821512448 -1814725334 991736153 1150120353 218294484 -1463732403 -1039855094 148738460 389388385 -1213855430 527560519 294582816 -570969653 -1689566422 1213538656 -1670851272 -1759301064 164313805 159632237 -6876445 -88499579 364914542 -798750441 -333714334 -438736610 1433527932
REM
CELL 1.54180   50.00000   50.00000   50.00000   90.00000   90.00000   90.00000
LATT -1
SFAC C  
C      1  0.4880470000000  0.4966940000000  0.5509500000000 1.0
C      1  0.5002350000000  0.4730490000000  0.5388150000000 1.0
C      1  0.5271190000000  0.4842210000000  0.5386810000000 1.0
C      1  0.4944340000000  0.5180810000000  0.5316670000000 1.0
C      1  0.4758460000000  0.4938380000000  0.4527820000000 1.0
C      1  0.4971810000000  0.4773240000000  0.4588720000000 1.0
C      1  0.5198710000000  0.4997920000000  0.4626400000000 1.0
C      1  0.4918930000000  0.5160840000000  0.4578380000000 1.0
C      1  0.4768710000000  0.5548630000000  0.5771640000000 1.0
C      1  0.4427790000000  0.4777580000000  0.5765040000000 1.0
C      1  0.5233480000000  0.4364380000000  0.5634950000000 1.0
C      1  0.5547520000000  0.5227240000000  0.5769110000000 1.0
C      1  0.4765530000000  0.5541030000000  0.4202000000000 1.0
C      1  0.4429660000000  0.4764050000000  0.4216780000000 1.0
C      1  0.5217060000000  0.4464260000000  0.4213920000000 1.0
C      1  0.5542360000000  0.5226640000000  0.4225210000000 1.0
C      1  0.5533550000000  0.4376260000000  0.5117590000000 1.0
C      1  0.5623190000000  0.5657440000000  0.5166270000000 1.0
C      1  0.4467560000000  0.5594470000000  0.5091900000000 1.0
C      1  0.4444490000000  0.4418970000000  0.5186800000000 1.0
C      1  0.5636670000000  0.4386830000000  0.4842480000000 1.0
C      1  0.5604210000000  0.5539300000000  0.4893000000000 1.0
C      1  0.4356190000000  0.5629280000000  0.4817200000000 1.0
C      1  0.4438770000000  0.4519070000000  0.4904490000000 1.0
C      1  0.5802530000000  0.5183790000000  0.4624080000000 1.0
C      1  0.4848360000000  0.5722830000000  0.4690240000000 1.0
C      1  0.4276440000000  0.4848970000000  0.4672030000000 1.0
C      1  0.5173390000000  0.4284370000000  0.4684910000000 1.0
C      1  0.5727710000000  0.5169660000000  0.5315710000000 1.0
C      1  0.4842990000000  0.5727300000000  0.5340360000000 1.0
C      1  0.4297020000000  0.4853690000000  0.5312670000000 1.0
C      1  0.5256960000000  0.4204860000000  0.5382800000000 1.0
C      1  0.4799910000000  0.5052510000000  0.3893570000000 1.0
C      1  0.4933120000000  0.4791710000000  0.3884380000000 1.0
C      1  0.5216440000000  0.4887050000000  0.3880740000000 1.0
C      1  0.5088550000000  0.5164690000000  0.3924490000000 1.0
C      1  0.4801990000000  0.5083510000000  0.6082630000000 1.0
C      1  0.4927960000000  0.4817740000000  0.6090420000000 1.0
C      1  0.5198680000000  0.4937930000000  0.6097930000000 1.0
C      1  0.5071950000000  0.5210640000000  0.6094900000000 1.0
C      1  0.4705300000000  0.4474210000000  0.4563850000000 1.0
C      1  0.5570010000000  0.4664330000000  0.4470750000000 1.0
C      1  0.5276380000000  0.5499190000000  0.4538590000000 1.0
C      1  0.4495790000000  0.5308860000000  0.4542020000000 1.0
C      1  0.4640280000000  0.4480880000000  0.5408180000000 1.0
C      1  0.5515260000000  0.4720730000000  0.5489460000000 1.0
C      1  0.5282140000000  0.5503800000000  0.5462710000000 1.0
C      1  0.4503640000000  0.5279050000000  0.5478900000000 1.0
C      1  0.5549660000000  0.4250390000000  0.5383050000000 1.0
C      1  0.5720550000000  0.5463510000000  0.5366010000000 1.0
C      1  0.4536640000000  0.5716670000000  0.5348410000000 1.0
C      1  0.4238540000000  0.4562320000000  0.5349340000000 1.0
C      1  0.5460610000000  0.4294090000000  0.4629560000000 1.0
C      1  0.5734610000000  0.5471800000000  0.4633590000000 1.0
C      1  0.4555030000000  0.5719740000000  0.4619060000000 1.0
C      1  0.4292690000000  0.4524690000000  0.4649630000000 1.0
C      1  0.4674280000000  0.4038730000000  0.5390080000000 1.0
C      1  0.5917100000000  0.4666030000000  0.5378680000000 1.0
C      1  0.5451880000000  0.5870350000000  0.5307030000000 1.0
C      1  0.4104520000000  0.5355970000000  0.5397870000000 1.0
C      1  0.4656630000000  0.4075160000000  0.4603760000000 1.0
C      1  0.5953140000000  0.4701030000000  0.4605420000000 1.0
C      1  0.5347830000000  0.5918400000000  0.4575510000000 1.0
C      1  0.4126960000000  0.5464030000000  0.4696850000000 1.0
C      1  0.5088580000000  0.5702850000000  0.5528700000000 1.0
C      1  0.4272490000000  0.5108680000000  0.5543340000000 1.0
C      1  0.4755900000000  0.4254290000000  0.5574520000000 1.0
C      1  0.5748850000000  0.4902200000000  0.5533960000000 1.0
C      1  0.5103010000000  0.5738150000000  0.4461520000000 1.0
C      1  0.4310880000000  0.5100360000000  0.4469310000000 1.0
C      1  0.4900510000000  0.4274530000000  0.4470660000000 1.0
C      1  0.5739210000000  0.4899110000000  0.4435520000000 1.0
C      1  0.4844150000000  0.4591330000000  0.4090950000000 1.0
C      1  0.5433010000000  0.4849670000000  0.4068830000000 1.0
C      1  0.5146810000000  0.5430140000000  0.4109050000000 1.0
C      1  0.4588800000000  0.5124600000000  0.4080850000000 1.0
C      1  0.4869890000000  0.4597530000000  0.5885220000000 1.0
C      1  0.5411960000000  0.4859610000000  0.5905440000000 1.0
C      1  0.5144350000000  0.5433460000000  0.5907860000000 1.0
C      1  0.4577940000000  0.5141510000000  0.5886570000000 1.0
C      1  0.4079390000000  0.4921600000000  0.5135260000000 1.0
C      1  0.5074840000000  0.4139810000000  0.5165890000000 1.0
C      1  0.5930610000000  0.5072130000000  0.5115830000000 1.0
C      1  0.4950890000000  0.5914530000000  0.5147730000000 1.0
C      1  0.4074290000000  0.4936940000000  0.4849760000000 1.0
C      1  0.5094020000000  0.4098330000000  0.4883390000000 1.0
C      1  0.5866470000000  0.5147000000000  0.4864040000000 1.0
C      1  0.4930990000000  0.5926980000000  0.4862820000000 1.0
C      1  0.4407410000000  0.4544600000000  0.5585810000000 1.0
C      1  0.5512620000000  0.4451430000000  0.5595890000000 1.0
C      1  0.5550340000000  0.5459440000000  0.5598980000000 1.0
C      1  0.4539310000000  0.5547560000000  0.5587610000000 1.0
C      1  0.4459470000000  0.4537640000000  0.4413070000000 1.0
C      1  0.5471980000000  0.4420000000000  0.4362700000000 1.0
C      1  0.5544690000000  0.5452940000000  0.4409880000000 1.0
C      1  0.4538320000000  0.5560000000000  0.4377780000000 1.0
C      1  0.5225660000000  0.5816910000000  0.5122290000000 1.0
C      1  0.4144770000000  0.5205150000000  0.5149480000000 1.0
C      1  0.4789330000000  0.4188020000000  0.5143950000000 1.0
C      1  0.5881320000000  0.4774760000000  0.5120620000000 1.0
C      1  0.5212300000000  0.5891310000000  0.4832150000000 1.0
C      1  0.4150350000000  0.5212080000000  0.4850970000000 1.0
C      1  0.4803780000000  0.4106630000000  0.4854120000000 1.0
C      1  0.5791100000000  0.4639980000000  0.4838910000000 1.0
C      1  0.5026540000000  0.5695720000000  0.5812140000000 1.0
C      1  0.4301330000000  0.5041030000000  0.5835660000000 1.0
C      1  0.4817860000000  0.4303610000000  0.5876270000000 1.0
C      1  0.5672270000000  0.4973020000000  0.5820390000000 1.0
C      1  0.5019880000000  0.5680790000000  0.4170660000000 1.0
C      1  0.4311730000000  0.5037910000000  0.4186090000000 1.0
C      1  0.4959500000000  0.4328930000000  0.4174670000000 1.0
C      1  0.5684470000000  0.4985070000000  0.4142450000000 1.0
C      1  0.5159070000000  0.4546520000000  0.4855790000000 1.0
C      1  0.5432360000000  0.5304080000000  0.4915300000000 1.0
C      1  0.4887460000000  0.5461270000000  0.4853390000000 1.0
C      1  0.4497600000000  0.4800990000000  0.4867380000000 1.0
C      1  0.5285160000000  0.4520970000000  0.5124790000000 1.0
C      1  0.5438590000000  0.5145750000000  0.5165870000000 1.0
C      1  0.4740740000000  0.5478470000000  0.5102930000000 1.0
C      1  0.4581950000000  0.4903160000000  0.5131140000000 1.0
C      1  0.5341850000000  0.4828450000000  0.5103420000000 1.0
C      1  0.5202020000000  0.5298200000000  0.5272500000000 1.0
C      1  0.4680040000000  0.5222900000000  0.5237710000000 1.0
C      1  0.4811240000000  0.4718390000000  0.5115020000000 1.0
C      1  0.5291580000000  0.4818380000000  0.4826200000000 1.0
C      1  0.5195040000000  0.5401630000000  0.4792730000000 1.0
C      1  0.4720320000000  0.5266370000000  0.4736520000000 1.0
C      1  0.4871600000000  0.4622840000000  0.4839900000000 1.0
C      1  0.4961100000000  0.5293270000000  0.4302570000000 1.0
C      1  0.4677590000000  0.4909470000000  0.4266560000000 1.0
C      1  0.5043510000000  0.4710360000000  0.4285440000000 1.0
C      1  0.5321900000000  0.5028980000000  0.4307010000000 1.0
C      1  0.4953460000000  0.5317700000000  0.5716110000000 1.0
C      1  0.4659820000000  0.4941970000000  0.5687280000000 1.0
C      1  0.5026790000000  0.4570200000000  0.5638240000000 1.0
C      1  0.5297970000000  0.5024770000000  0.5676750000000 1.0
C      1  0.5075150000000  0.5055470000000  0.4196460000000 1.0
C      1  0.5025820000000  0.5067730000000  0.5693620000000 1.0
END
