TITL C-2441158-471-676 0.0588328375087925 125000 -18138.2201752648 0 0 136 (C1) n - 1
REM
REM in /home/bkarasulu/work/CARBON/AIRSS/Generating-Clusters/ReaxFF-fromJPCA2015/Units_Real/with-SteepDescent/Higher-Symm
REM
REM
REM
REM
REM
REM ./C.cell (1df0a924f5614ab8850e4351716899ee)
REM
REM compiler GCC version 9.2.1 20190827 (Red Hat 9.2.1-1)
REM options -cpp -mtune=generic -march=x86-64 -g -O0 -fpre-include=/usr/include/finclude/math-vector-fortran.h
REM seed -1556749971 -1697831375 563064399 -1114809952 2139406534 515577679 1833419458 -1419879356 -2081922993 -1174899651 826665683 194121012 -1634682259 -12100091 -332225396 -721424173 1776565 1968828122 -1053339834 -1407115142 -791322333 910619401 567751521 2079411543 -474036703 2043717513 -1539913227 385143026 160055970 -1630953185 93789243 1137064686 -466782047
REM
CELL 1.54180   50.00000   50.00000   50.00000   90.00000   90.00000   90.00000
LATT -1
SFAC C  
C      1  0.4758070000000  0.5571630000000  0.4853900000000 1.0
C      1  0.5670830000000  0.5580200000000  0.4570470000000 1.0
C      1  0.5485810000000  0.5532930000000  0.5672610000000 1.0
C      1  0.4525250000000  0.5883270000000  0.4975290000000 1.0
C      1  0.5219780000000  0.4045530000000  0.5091590000000 1.0
C      1  0.4931660000000  0.4158390000000  0.5387070000000 1.0
C      1  0.4411330000000  0.5028280000000  0.4607150000000 1.0
C      1  0.5858130000000  0.5298760000000  0.5092640000000 1.0
C      1  0.5028640000000  0.4594250000000  0.5882220000000 1.0
C      1  0.5242090000000  0.4425780000000  0.5748000000000 1.0
C      1  0.5209010000000  0.5663080000000  0.4567830000000 1.0
C      1  0.5540820000000  0.4671420000000  0.5256420000000 1.0
C      1  0.5489970000000  0.5035400000000  0.5053520000000 1.0
C      1  0.5909590000000  0.4714490000000  0.4872570000000 1.0
C      1  0.4257460000000  0.4890320000000  0.5279970000000 1.0
C      1  0.4142680000000  0.4698180000000  0.4631440000000 1.0
C      1  0.5794940000000  0.5339100000000  0.4784020000000 1.0
C      1  0.4669090000000  0.4602490000000  0.4956830000000 1.0
C      1  0.4461500000000  0.5205320000000  0.5409220000000 1.0
C      1  0.4231520000000  0.5378020000000  0.5416380000000 1.0
C      1  0.5086000000000  0.4497210000000  0.4684120000000 1.0
C      1  0.5372930000000  0.4124370000000  0.5312350000000 1.0
C      1  0.4961070000000  0.4522720000000  0.4423430000000 1.0
C      1  0.4196630000000  0.5400610000000  0.4648800000000 1.0
C      1  0.5227600000000  0.4700060000000  0.4045250000000 1.0
C      1  0.4905930000000  0.5721900000000  0.5370550000000 1.0
C      1  0.4747630000000  0.4724060000000  0.5837130000000 1.0
C      1  0.5277110000000  0.4902690000000  0.4456300000000 1.0
C      1  0.5204160000000  0.5560770000000  0.5750470000000 1.0
C      1  0.4190840000000  0.4627390000000  0.5417080000000 1.0
C      1  0.4344650000000  0.5703480000000  0.5081040000000 1.0
C      1  0.4961890000000  0.4812760000000  0.4034440000000 1.0
C      1  0.5041990000000  0.4944400000000  0.4297380000000 1.0
C      1  0.5230360000000  0.5544100000000  0.5012350000000 1.0
C      1  0.4661880000000  0.4231110000000  0.4584040000000 1.0
C      1  0.4954710000000  0.4905580000000  0.5513640000000 1.0
C      1  0.4769580000000  0.5261680000000  0.5768080000000 1.0
C      1  0.5559070000000  0.5770900000000  0.4742590000000 1.0
C      1  0.5376620000000  0.5131760000000  0.5645320000000 1.0
C      1  0.5249910000000  0.5471460000000  0.5279880000000 1.0
C      1  0.5739310000000  0.4403850000000  0.5592960000000 1.0
C      1  0.5598780000000  0.5814820000000  0.5578520000000 1.0
C      1  0.5183730000000  0.4219220000000  0.4648790000000 1.0
C      1  0.5531350000000  0.4510000000000  0.5769830000000 1.0
C      1  0.4712140000000  0.5346640000000  0.4097750000000 1.0
C      1  0.4290680000000  0.4741090000000  0.5670280000000 1.0
C      1  0.4558220000000  0.5746580000000  0.5296360000000 1.0
C      1  0.4677010000000  0.4451870000000  0.4391520000000 1.0
C      1  0.5126530000000  0.4676680000000  0.5431050000000 1.0
C      1  0.5711480000000  0.5514880000000  0.5196400000000 1.0
C      1  0.4273880000000  0.4858170000000  0.4429680000000 1.0
C      1  0.5586570000000  0.4354570000000  0.4656470000000 1.0
C      1  0.4971840000000  0.5171470000000  0.5968210000000 1.0
C      1  0.5113110000000  0.4643360000000  0.5125950000000 1.0
C      1  0.4778460000000  0.4957770000000  0.5289130000000 1.0
C      1  0.5390200000000  0.4645050000000  0.5018000000000 1.0
C      1  0.4326320000000  0.4500510000000  0.4772410000000 1.0
C      1  0.5045010000000  0.4894120000000  0.4983860000000 1.0
C      1  0.4551260000000  0.5448820000000  0.4332570000000 1.0
C      1  0.5606270000000  0.4797090000000  0.5686340000000 1.0
C      1  0.4438220000000  0.5586390000000  0.5505070000000 1.0
C      1  0.5185990000000  0.4807790000000  0.5916300000000 1.0
C      1  0.5800720000000  0.4875570000000  0.4647670000000 1.0
C      1  0.4095280000000  0.5141040000000  0.5274580000000 1.0
C      1  0.5762010000000  0.5035050000000  0.5235720000000 1.0
C      1  0.4341660000000  0.5260260000000  0.4458340000000 1.0
C      1  0.5606720000000  0.4967890000000  0.4226190000000 1.0
C      1  0.4172740000000  0.4539600000000  0.5011090000000 1.0
C      1  0.4295340000000  0.5438300000000  0.4917100000000 1.0
C      1  0.5254270000000  0.5588190000000  0.4283620000000 1.0
C      1  0.4749710000000  0.5305660000000  0.4838050000000 1.0
C      1  0.4989760000000  0.5658810000000  0.4400580000000 1.0
C      1  0.4978550000000  0.5674620000000  0.4961900000000 1.0
C      1  0.5370940000000  0.4969820000000  0.4059160000000 1.0
C      1  0.5450140000000  0.4371230000000  0.4928040000000 1.0
C      1  0.4930440000000  0.5655570000000  0.5672220000000 1.0
C      1  0.4505780000000  0.4239640000000  0.5095130000000 1.0
C      1  0.5770810000000  0.4459830000000  0.5292150000000 1.0
C      1  0.5522340000000  0.5416400000000  0.5395600000000 1.0
C      1  0.5200740000000  0.5934940000000  0.4754240000000 1.0
C      1  0.4803210000000  0.5230680000000  0.5133710000000 1.0
C      1  0.5255840000000  0.5233950000000  0.4115660000000 1.0
C      1  0.4288330000000  0.4405000000000  0.5246480000000 1.0
C      1  0.4506720000000  0.4686210000000  0.4306090000000 1.0
C      1  0.4735370000000  0.5004400000000  0.5921180000000 1.0
C      1  0.5396940000000  0.4748320000000  0.5476690000000 1.0
C      1  0.5251320000000  0.5078340000000  0.5914420000000 1.0
C      1  0.4890130000000  0.5232400000000  0.4610990000000 1.0
C      1  0.4832150000000  0.5043140000000  0.4435370000000 1.0
C      1  0.4968420000000  0.5437670000000  0.5316000000000 1.0
C      1  0.5209420000000  0.4885100000000  0.4735600000000 1.0
C      1  0.4477970000000  0.4366130000000  0.5607260000000 1.0
C      1  0.4920870000000  0.4090980000000  0.4621320000000 1.0
C      1  0.4661400000000  0.4804380000000  0.4060520000000 1.0
C      1  0.5472280000000  0.4520840000000  0.4442220000000 1.0
C      1  0.4756310000000  0.4280670000000  0.5580230000000 1.0
C      1  0.4921060000000  0.4444920000000  0.4958670000000 1.0
C      1  0.4474960000000  0.5213690000000  0.5117120000000 1.0
C      1  0.4709140000000  0.5653350000000  0.4441870000000 1.0
C      1  0.5311700000000  0.5952090000000  0.5026560000000 1.0
C      1  0.4660320000000  0.5830550000000  0.4715930000000 1.0
C      1  0.5334710000000  0.5857030000000  0.5469410000000 1.0
C      1  0.5131330000000  0.5168930000000  0.4710810000000 1.0
C      1  0.5528250000000  0.5727790000000  0.5022620000000 1.0
C      1  0.4668980000000  0.4703110000000  0.5228310000000 1.0
C      1  0.5005750000000  0.5322310000000  0.4109430000000 1.0
C      1  0.5826060000000  0.5142810000000  0.4588720000000 1.0
C      1  0.5186140000000  0.4281490000000  0.5495420000000 1.0
C      1  0.4049610000000  0.4783780000000  0.4896720000000 1.0
C      1  0.4035640000000  0.5304820000000  0.4847210000000 1.0
C      1  0.5848240000000  0.4440440000000  0.4768360000000 1.0
C      1  0.4490590000000  0.4584210000000  0.5809980000000 1.0
C      1  0.5681710000000  0.5222990000000  0.4352090000000 1.0
C      1  0.5302470000000  0.5386120000000  0.4729270000000 1.0
C      1  0.5095030000000  0.3992930000000  0.4845810000000 1.0
C      1  0.5219820000000  0.5055340000000  0.5162410000000 1.0
C      1  0.4663500000000  0.4512640000000  0.5442470000000 1.0
C      1  0.4448460000000  0.4976150000000  0.4951380000000 1.0
C      1  0.5164420000000  0.5108900000000  0.5449940000000 1.0
C      1  0.4702120000000  0.4862130000000  0.4845740000000 1.0
C      1  0.4466170000000  0.4244280000000  0.4803460000000 1.0
C      1  0.5642500000000  0.5055690000000  0.5552860000000 1.0
C      1  0.5589690000000  0.4251410000000  0.5157850000000 1.0
C      1  0.5144430000000  0.5915380000000  0.5280100000000 1.0
C      1  0.5627050000000  0.4771280000000  0.4436950000000 1.0
C      1  0.5533680000000  0.5476040000000  0.4333770000000 1.0
C      1  0.5894640000000  0.4777230000000  0.5159200000000 1.0
C      1  0.4652230000000  0.4881060000000  0.4546570000000 1.0
C      1  0.4667810000000  0.5523680000000  0.5695200000000 1.0
C      1  0.4010250000000  0.5061820000000  0.5004100000000 1.0
C      1  0.4645910000000  0.5080230000000  0.4050670000000 1.0
C      1  0.5522580000000  0.5251750000000  0.4863800000000 1.0
C      1  0.4794130000000  0.4222230000000  0.5131690000000 1.0
C      1  0.5228650000000  0.4515800000000  0.4280950000000 1.0
C      1  0.4926400000000  0.5944890000000  0.4857150000000 1.0
C      1  0.4414160000000  0.4951470000000  0.5513420000000 1.0
END
