TITL C-2441165-58-43 0.0616210814606363 125000 -7167.21022167844 0 0 60 (D4) n - 1
REM
REM in /home/bkarasulu/work/CARBON/AIRSS/Generating-Clusters/ReaxFF-fromJPCA2015/Units_Real/with-SteepDescent/Higher-Symm
REM
REM
REM
REM
REM
REM ./C.cell (1df0a924f5614ab8850e4351716899ee)
REM
REM compiler GCC version 9.2.1 20190827 (Red Hat 9.2.1-1)
REM options -cpp -mtune=generic -march=x86-64 -g -O0 -fpre-include=/usr/include/finclude/math-vector-fortran.h
REM seed 1952741883 1622137572 1954274255 294715887 -876617409 -528227869 829633265 -1451563309 1181651569 -459640559 -1114246562 -1894624032 2103642328 2000352352 1004109112 1004289288 -1705544844 -377069448 -2022895110 -1613004707 -217490624 2137523253 -1971618290 1759916803 -728837104 763481170 1396718310 -1285783027 -1788002601 1544634269 604599539 -654813864 1906781068
REM
CELL 1.54180   50.00000   50.00000   50.00000   90.00000   90.00000   90.00000
LATT -1
SFAC C  
C      1  0.4690350000000  0.4725470000000  0.4462470000000 1.0
C      1  0.4462450000000  0.4725480000000  0.5309660000000 1.0
C      1  0.5309650000000  0.4725470000000  0.5537530000000 1.0
C      1  0.5537550000000  0.4725480000000  0.4690340000000 1.0
C      1  0.4690240000000  0.5295710000000  0.5537520000000 1.0
C      1  0.4462450000000  0.5295680000000  0.4690280000000 1.0
C      1  0.5309760000000  0.5295710000000  0.4462480000000 1.0
C      1  0.5537550000000  0.5295680000000  0.5309720000000 1.0
C      1  0.4676910000000  0.4458460000000  0.4630420000000 1.0
C      1  0.4630400000000  0.4458450000000  0.5323120000000 1.0
C      1  0.5323090000000  0.4458460000000  0.5369580000000 1.0
C      1  0.5369600000000  0.4458450000000  0.4676880000000 1.0
C      1  0.4676910000000  0.5562650000000  0.5369750000000 1.0
C      1  0.4630250000000  0.5562620000000  0.4676920000000 1.0
C      1  0.5323090000000  0.5562650000000  0.4630250000000 1.0
C      1  0.5369750000000  0.5562620000000  0.5323080000000 1.0
C      1  0.4967100000000  0.4736940000000  0.4644930000000 1.0
C      1  0.4644970000000  0.4736900000000  0.5032910000000 1.0
C      1  0.5032900000000  0.4736940000000  0.5355070000000 1.0
C      1  0.5355030000000  0.4736900000000  0.4967090000000 1.0
C      1  0.4967170000000  0.5284230000000  0.5355080000000 1.0
C      1  0.4644910000000  0.5284220000000  0.4967150000000 1.0
C      1  0.5032830000000  0.5284230000000  0.4644920000000 1.0
C      1  0.5355090000000  0.5284220000000  0.5032850000000 1.0
C      1  0.5218660000000  0.5031510000000  0.4382570000000 1.0
C      1  0.4382570000000  0.5031520000000  0.4781330000000 1.0
C      1  0.4781340000000  0.5031510000000  0.5617430000000 1.0
C      1  0.5617430000000  0.5031520000000  0.5218670000000 1.0
C      1  0.5218610000000  0.4989730000000  0.5617440000000 1.0
C      1  0.4382560000000  0.4989730000000  0.5218610000000 1.0
C      1  0.4781390000000  0.4989730000000  0.4382560000000 1.0
C      1  0.5617440000000  0.4989730000000  0.4781390000000 1.0
C      1  0.5126530000000  0.4374730000000  0.5163790000000 1.0
C      1  0.5163690000000  0.4374770000000  0.4873580000000 1.0
C      1  0.4873470000000  0.4374730000000  0.4836210000000 1.0
C      1  0.4836310000000  0.4374770000000  0.5126420000000 1.0
C      1  0.5126480000000  0.5646550000000  0.4836220000000 1.0
C      1  0.5163840000000  0.5646560000000  0.5126540000000 1.0
C      1  0.4873520000000  0.5646550000000  0.5163780000000 1.0
C      1  0.4836160000000  0.5646560000000  0.4873460000000 1.0
C      1  0.4505000000000  0.4608780000000  0.4812050000000 1.0
C      1  0.4812070000000  0.4608800000000  0.5495010000000 1.0
C      1  0.5495000000000  0.4608780000000  0.5187950000000 1.0
C      1  0.5187930000000  0.4608800000000  0.4504990000000 1.0
C      1  0.4505070000000  0.5412310000000  0.5188020000000 1.0
C      1  0.4812030000000  0.5412320000000  0.4505060000000 1.0
C      1  0.5494930000000  0.5412310000000  0.4811980000000 1.0
C      1  0.5187970000000  0.5412320000000  0.5494940000000 1.0
C      1  0.4612880000000  0.4803270000000  0.5568090000000 1.0
C      1  0.5568100000000  0.4803270000000  0.5387120000000 1.0
C      1  0.5387120000000  0.4803270000000  0.4431910000000 1.0
C      1  0.4431900000000  0.4803270000000  0.4612880000000 1.0
C      1  0.4612840000000  0.5217930000000  0.4431760000000 1.0
C      1  0.5568250000000  0.5217920000000  0.4612840000000 1.0
C      1  0.5387160000000  0.5217930000000  0.5568240000000 1.0
C      1  0.4431750000000  0.5217920000000  0.5387160000000 1.0
C      1  0.5422850000000  0.5010660000000  0.4999990000000 1.0
C      1  0.4999980000000  0.5010640000000  0.4577150000000 1.0
C      1  0.4577150000000  0.5010660000000  0.5000010000000 1.0
C      1  0.5000020000000  0.5010640000000  0.5422850000000 1.0
END
