TITL C-2441157-2117-1037 0.0807796156116257 125000 -20159.216152174 0 0 147 (C1) n - 1
REM
REM in /home/bkarasulu/work/CARBON/AIRSS/Generating-Clusters/ReaxFF-fromJPCA2015/Units_Real/with-SteepDescent/Higher-Symm
REM
REM
REM
REM
REM
REM ./C.cell (1df0a924f5614ab8850e4351716899ee)
REM
REM compiler GCC version 9.2.1 20190827 (Red Hat 9.2.1-1)
REM options -cpp -mtune=generic -march=x86-64 -g -O0 -fpre-include=/usr/include/finclude/math-vector-fortran.h
REM seed -1078323283 1889157177 1361417632 631256136 1322874058 1009724308 171665495 243125365 185489476 331156967 -592814962 -1386126474 28674958 -1207717709 2128146655 -1099149498 -103771469 1971113357 -1794624551 1162250144 -2121144121 984096856 1652809806 440619119 -1137385547 1979529727 -1872653462 -494704347 -1451324112 -1007608067 698086426 1808263528 630664653
REM
CELL 1.54180   50.00000   50.00000   50.00000   90.00000   90.00000   90.00000
LATT -1
SFAC C  
C      1  0.4823720000000  0.4929120000000  0.5168510000000 1.0
C      1  0.4789710000000  0.4910020000000  0.4861040000000 1.0
C      1  0.5046870000000  0.4959440000000  0.4755350000000 1.0
C      1  0.5227320000000  0.4941550000000  0.4944730000000 1.0
C      1  0.5118570000000  0.4884490000000  0.5209940000000 1.0
C      1  0.4641160000000  0.5851830000000  0.4942750000000 1.0
C      1  0.4986940000000  0.5826550000000  0.4584750000000 1.0
C      1  0.5517640000000  0.5804450000000  0.4930840000000 1.0
C      1  0.5251760000000  0.5888360000000  0.5272380000000 1.0
C      1  0.4775610000000  0.5735290000000  0.5360290000000 1.0
C      1  0.4818790000000  0.5974860000000  0.4768400000000 1.0
C      1  0.5095840000000  0.5993530000000  0.4785480000000 1.0
C      1  0.5280580000000  0.5933430000000  0.4994620000000 1.0
C      1  0.4976810000000  0.5943760000000  0.5346490000000 1.0
C      1  0.4759540000000  0.5946300000000  0.5166150000000 1.0
C      1  0.5800720000000  0.5171790000000  0.5556190000000 1.0
C      1  0.4738740000000  0.5169920000000  0.5952720000000 1.0
C      1  0.3984960000000  0.5230450000000  0.4998600000000 1.0
C      1  0.4668320000000  0.5194140000000  0.4086470000000 1.0
C      1  0.5804070000000  0.5181010000000  0.4398300000000 1.0
C      1  0.5953330000000  0.5396990000000  0.4832330000000 1.0
C      1  0.5461340000000  0.5426890000000  0.5805280000000 1.0
C      1  0.4394170000000  0.5447190000000  0.5718840000000 1.0
C      1  0.4163230000000  0.5477150000000  0.4647990000000 1.0
C      1  0.5073960000000  0.5471730000000  0.4120220000000 1.0
C      1  0.5175460000000  0.5387640000000  0.4850450000000 1.0
C      1  0.5181800000000  0.5391210000000  0.5134560000000 1.0
C      1  0.4889310000000  0.5428600000000  0.5227300000000 1.0
C      1  0.4731820000000  0.5332240000000  0.4982410000000 1.0
C      1  0.4890920000000  0.5329250000000  0.4732540000000 1.0
C      1  0.4994160000000  0.5626890000000  0.5796800000000 1.0
C      1  0.4268440000000  0.5640740000000  0.5232950000000 1.0
C      1  0.4544970000000  0.5621700000000  0.4378030000000 1.0
C      1  0.5491360000000  0.5641020000000  0.4405390000000 1.0
C      1  0.5639980000000  0.5657630000000  0.5146710000000 1.0
C      1  0.4804080000000  0.5448410000000  0.5935220000000 1.0
C      1  0.4057270000000  0.5505520000000  0.5083040000000 1.0
C      1  0.4617060000000  0.5476870000000  0.4132240000000 1.0
C      1  0.5733040000000  0.5463170000000  0.4386810000000 1.0
C      1  0.5756880000000  0.5432840000000  0.5466190000000 1.0
C      1  0.6065110000000  0.4925740000000  0.5056650000000 1.0
C      1  0.5243400000000  0.4859360000000  0.6004000000000 1.0
C      1  0.4150540000000  0.4740410000000  0.5416080000000 1.0
C      1  0.4266610000000  0.4714170000000  0.4298840000000 1.0
C      1  0.5447370000000  0.4810770000000  0.4066420000000 1.0
C      1  0.4805880000000  0.5758040000000  0.4367170000000 1.0
C      1  0.5597410000000  0.5748830000000  0.4658390000000 1.0
C      1  0.5480110000000  0.5731480000000  0.5376280000000 1.0
C      1  0.4781520000000  0.5759990000000  0.5655930000000 1.0
C      1  0.4367870000000  0.5768200000000  0.4985630000000 1.0
C      1  0.5478670000000  0.5004200000000  0.4815140000000 1.0
C      1  0.5335860000000  0.4989210000000  0.5376520000000 1.0
C      1  0.4734300000000  0.5007100000000  0.5435390000000 1.0
C      1  0.4569920000000  0.4954120000000  0.4686150000000 1.0
C      1  0.5181950000000  0.4970420000000  0.4496240000000 1.0
C      1  0.5258390000000  0.5475980000000  0.4341360000000 1.0
C      1  0.5641320000000  0.5414460000000  0.4948880000000 1.0
C      1  0.5215150000000  0.5501090000000  0.5670690000000 1.0
C      1  0.4401420000000  0.5460410000000  0.5427970000000 1.0
C      1  0.4421300000000  0.5438860000000  0.4566410000000 1.0
C      1  0.4827100000000  0.5191960000000  0.4481940000000 1.0
C      1  0.5433350000000  0.5295970000000  0.4759050000000 1.0
C      1  0.5399180000000  0.5248510000000  0.5269520000000 1.0
C      1  0.4856760000000  0.5256910000000  0.5468720000000 1.0
C      1  0.4497060000000  0.5184600000000  0.5067780000000 1.0
C      1  0.4453930000000  0.4664330000000  0.5134010000000 1.0
C      1  0.4609030000000  0.4503080000000  0.4486110000000 1.0
C      1  0.5441260000000  0.4466890000000  0.4406070000000 1.0
C      1  0.5541850000000  0.4546960000000  0.5207240000000 1.0
C      1  0.4995970000000  0.4600410000000  0.5551130000000 1.0
C      1  0.5597960000000  0.4644740000000  0.4220050000000 1.0
C      1  0.5947540000000  0.4723500000000  0.5227640000000 1.0
C      1  0.5044890000000  0.4653010000000  0.5947110000000 1.0
C      1  0.4128890000000  0.4480660000000  0.5310790000000 1.0
C      1  0.4483130000000  0.4645700000000  0.4113180000000 1.0
C      1  0.5573430000000  0.4374410000000  0.4651130000000 1.0
C      1  0.5512290000000  0.4362980000000  0.5422380000000 1.0
C      1  0.4778790000000  0.4461410000000  0.5711530000000 1.0
C      1  0.4268370000000  0.4462410000000  0.5043570000000 1.0
C      1  0.4674060000000  0.4448290000000  0.4197040000000 1.0
C      1  0.5700690000000  0.4865530000000  0.4423370000000 1.0
C      1  0.5800600000000  0.4851250000000  0.5475630000000 1.0
C      1  0.4799580000000  0.4839340000000  0.5906550000000 1.0
C      1  0.4073790000000  0.4953280000000  0.5017150000000 1.0
C      1  0.4672160000000  0.4884890000000  0.4160710000000 1.0
C      1  0.4934300000000  0.4770860000000  0.4057410000000 1.0
C      1  0.5894420000000  0.4723070000000  0.4611970000000 1.0
C      1  0.5646670000000  0.4705390000000  0.5713390000000 1.0
C      1  0.4496740000000  0.4724030000000  0.5852340000000 1.0
C      1  0.4016740000000  0.4783950000000  0.4789320000000 1.0
C      1  0.4011340000000  0.5251300000000  0.4712410000000 1.0
C      1  0.4955110000000  0.5207210000000  0.4153720000000 1.0
C      1  0.5973270000000  0.5177100000000  0.4621150000000 1.0
C      1  0.5617590000000  0.5170510000000  0.5781240000000 1.0
C      1  0.4471320000000  0.5193430000000  0.5855930000000 1.0
C      1  0.4587090000000  0.5630110000000  0.5832600000000 1.0
C      1  0.4135590000000  0.5660370000000  0.4847290000000 1.0
C      1  0.4855380000000  0.5636020000000  0.4121390000000 1.0
C      1  0.5835010000000  0.5592370000000  0.4629810000000 1.0
C      1  0.5606870000000  0.5617930000000  0.5623160000000 1.0
C      1  0.5331830000000  0.4157090000000  0.5371590000000 1.0
C      1  0.4857360000000  0.4168640000000  0.5370670000000 1.0
C      1  0.4668950000000  0.4238980000000  0.4937370000000 1.0
C      1  0.5044410000000  0.4285130000000  0.4579590000000 1.0
C      1  0.5406030000000  0.4250630000000  0.4865260000000 1.0
C      1  0.4867260000000  0.4850170000000  0.5625960000000 1.0
C      1  0.4373190000000  0.4916820000000  0.5004850000000 1.0
C      1  0.4686410000000  0.4801330000000  0.4470240000000 1.0
C      1  0.5440540000000  0.4843960000000  0.4575770000000 1.0
C      1  0.5550480000000  0.4815850000000  0.5325840000000 1.0
C      1  0.5178200000000  0.5100330000000  0.5875880000000 1.0
C      1  0.4216010000000  0.4990920000000  0.5498580000000 1.0
C      1  0.4256110000000  0.4990020000000  0.4390610000000 1.0
C      1  0.5352700000000  0.5064330000000  0.4099040000000 1.0
C      1  0.5940920000000  0.5187060000000  0.5071460000000 1.0
C      1  0.5798720000000  0.4502420000000  0.4770920000000 1.0
C      1  0.5476230000000  0.4482310000000  0.5666000000000 1.0
C      1  0.4500290000000  0.4477130000000  0.5693030000000 1.0
C      1  0.4169070000000  0.4534470000000  0.4769490000000 1.0
C      1  0.4962930000000  0.4503390000000  0.4156080000000 1.0
C      1  0.5049700000000  0.4510220000000  0.4777950000000 1.0
C      1  0.5225280000000  0.4502170000000  0.5001020000000 1.0
C      1  0.5053710000000  0.4572680000000  0.5230760000000 1.0
C      1  0.4751180000000  0.4641220000000  0.5143290000000 1.0
C      1  0.4793000000000  0.4609950000000  0.4856830000000 1.0
C      1  0.5162320000000  0.4404220000000  0.4343550000000 1.0
C      1  0.5809520000000  0.4532650000000  0.5069550000000 1.0
C      1  0.5188410000000  0.4430220000000  0.5730670000000 1.0
C      1  0.4360080000000  0.4333530000000  0.5446420000000 1.0
C      1  0.4310840000000  0.4518360000000  0.4518130000000 1.0
C      1  0.4362890000000  0.5198040000000  0.5319620000000 1.0
C      1  0.4503040000000  0.5168270000000  0.4503340000000 1.0
C      1  0.5333050000000  0.5195770000000  0.4373290000000 1.0
C      1  0.5653350000000  0.5198170000000  0.5124650000000 1.0
C      1  0.5076330000000  0.5249800000000  0.5652930000000 1.0
C      1  0.5098640000000  0.4991000000000  0.4011050000000 1.0
C      1  0.6036940000000  0.4923060000000  0.4758170000000 1.0
C      1  0.5537700000000  0.4900630000000  0.5887210000000 1.0
C      1  0.4331960000000  0.4945370000000  0.5775680000000 1.0
C      1  0.4040460000000  0.4993680000000  0.4576280000000 1.0
C      1  0.4578350000000  0.4222160000000  0.5317050000000 1.0
C      1  0.4697050000000  0.4187920000000  0.4653550000000 1.0
C      1  0.5212430000000  0.4093430000000  0.4714170000000 1.0
C      1  0.5361440000000  0.4054520000000  0.5095630000000 1.0
C      1  0.5100260000000  0.4211450000000  0.5532220000000 1.0
C      1  0.4902870000000  0.4137190000000  0.5077940000000 1.0
C      1  0.5121130000000  0.3976400000000  0.4959990000000 1.0
END
