TITL C-2441163-1170-946 -0.00376099510248798 125000 -2537.05346270958 0 0 18 (C6) n - 1
REM
REM in /home/bkarasulu/work/CARBON/AIRSS/Generating-Clusters/ReaxFF-fromJPCA2015/Units_Real/with-SteepDescent/Higher-Symm
REM
REM
REM
REM
REM
REM ./C.cell (1df0a924f5614ab8850e4351716899ee)
REM
REM compiler GCC version 9.2.1 20190827 (Red Hat 9.2.1-1)
REM options -cpp -mtune=generic -march=x86-64 -g -O0 -fpre-include=/usr/include/finclude/math-vector-fortran.h
REM seed 428254611 -1307249646 -584325682 1883704033 -2121295536 -535177582 911446203 608178425 630670088 -634896768 -457958305 362843489 -1771094490 1144657324 -204082258 -434050071 1085735998 126565740 2038373052 204463191 670143476 1905072611 768674363 -969758128 -731462345 -1840441175 -1549253246 605308644 -680336660 -1501244475 915918518 1844974675 1586623315
REM
CELL 1.54180   50.00000   50.00000   50.00000   90.00000   90.00000   90.00000
LATT -1
SFAC C  
C      1  0.5029730000000  0.5004910000000  0.4548720000000 1.0
C      1  0.5030390000000  0.5392610000000  0.4778090000000 1.0
C      1  0.5029310000000  0.5388190000000  0.5229360000000 1.0
C      1  0.5029730000000  0.4995090000000  0.5451280000000 1.0
C      1  0.5030390000000  0.4607390000000  0.5221910000000 1.0
C      1  0.5029310000000  0.4611810000000  0.4770640000000 1.0
C      1  0.4764690000000  0.4746150000000  0.4865540000000 1.0
C      1  0.4764940000000  0.4989260000000  0.4712750000000 1.0
C      1  0.4765680000000  0.5243820000000  0.4847120000000 1.0
C      1  0.4764690000000  0.5253850000000  0.5134460000000 1.0
C      1  0.4764940000000  0.5010740000000  0.5287250000000 1.0
C      1  0.4765680000000  0.4756180000000  0.5152880000000 1.0
C      1  0.5204710000000  0.5388100000000  0.5003800000000 1.0
C      1  0.5205150000000  0.5189940000000  0.5338450000000 1.0
C      1  0.5205410000000  0.4801250000000  0.5333930000000 1.0
C      1  0.5204710000000  0.4611900000000  0.4996200000000 1.0
C      1  0.5205150000000  0.4810060000000  0.4661550000000 1.0
C      1  0.5205410000000  0.5198750000000  0.4666070000000 1.0
END
