TITL C-2441161-5029-445 0.161418423103323 125000 -13625.2751130229 0 0 124 (C1) n - 1
REM
REM in /home/bkarasulu/work/CARBON/AIRSS/Generating-Clusters/ReaxFF-fromJPCA2015/Units_Real/with-SteepDescent/Higher-Symm
REM
REM
REM
REM
REM
REM ./C.cell (1df0a924f5614ab8850e4351716899ee)
REM
REM compiler GCC version 9.2.1 20190827 (Red Hat 9.2.1-1)
REM options -cpp -mtune=generic -march=x86-64 -g -O0 -fpre-include=/usr/include/finclude/math-vector-fortran.h
REM seed -1286026578 1696083467 1456587853 1696031939 711406660 -2001012253 1090152859 979635919 -1197775371 1215715786 -1609637629 235581135 1174120143 -414940647 -1250149401 705949132 1858392161 -757816802 -1858365435 -739893149 -353183504 15878623 1704608964 956656641 1232164299 1012501262 -168875701 -446228070 715004572 1847611840 -89166691 -498725097 -2058456136
REM
CELL 1.54180   50.00000   50.00000   50.00000   90.00000   90.00000   90.00000
LATT -1
SFAC C  
C      1  0.5735630000000  0.4457890000000  0.5310690000000 1.0
C      1  0.5699840000000  0.4464090000000  0.4613940000000 1.0
C      1  0.5134830000000  0.4474880000000  0.4224320000000 1.0
C      1  0.4457380000000  0.4480280000000  0.4401010000000 1.0
C      1  0.4192030000000  0.4456860000000  0.5037020000000 1.0
C      1  0.4539030000000  0.4471860000000  0.5654200000000 1.0
C      1  0.5199600000000  0.4478810000000  0.5775270000000 1.0
C      1  0.4738850000000  0.5175540000000  0.4784500000000 1.0
C      1  0.4602810000000  0.5258630000000  0.5035260000000 1.0
C      1  0.4817900000000  0.5169250000000  0.5258550000000 1.0
C      1  0.5102860000000  0.5272800000000  0.5345900000000 1.0
C      1  0.5310180000000  0.5211730000000  0.5162940000000 1.0
C      1  0.5304990000000  0.5230940000000  0.4797930000000 1.0
C      1  0.5040460000000  0.5206680000000  0.4645640000000 1.0
C      1  0.4815680000000  0.4821620000000  0.5863410000000 1.0
C      1  0.5589420000000  0.4802740000000  0.5653430000000 1.0
C      1  0.5849620000000  0.4802320000000  0.4987580000000 1.0
C      1  0.5535800000000  0.4814870000000  0.4307960000000 1.0
C      1  0.4797760000000  0.4815200000000  0.4140750000000 1.0
C      1  0.4197730000000  0.4794810000000  0.4684980000000 1.0
C      1  0.4237090000000  0.4787610000000  0.5362790000000 1.0
C      1  0.4640870000000  0.4547670000000  0.5024870000000 1.0
C      1  0.4792750000000  0.4455440000000  0.5233670000000 1.0
C      1  0.5164240000000  0.4550730000000  0.5292950000000 1.0
C      1  0.5370320000000  0.4492320000000  0.5109730000000 1.0
C      1  0.5286300000000  0.4498250000000  0.4832570000000 1.0
C      1  0.5031890000000  0.4476740000000  0.4669550000000 1.0
C      1  0.4752640000000  0.4461470000000  0.4779240000000 1.0
C      1  0.5770440000000  0.5274790000000  0.4501170000000 1.0
C      1  0.5072790000000  0.5272810000000  0.4092130000000 1.0
C      1  0.4349750000000  0.5295310000000  0.4316930000000 1.0
C      1  0.4118600000000  0.5266950000000  0.5072050000000 1.0
C      1  0.4488510000000  0.5269420000000  0.5782610000000 1.0
C      1  0.5300830000000  0.5289900000000  0.5892310000000 1.0
C      1  0.5853680000000  0.5251510000000  0.5322190000000 1.0
C      1  0.5716760000000  0.5507960000000  0.5288130000000 1.0
C      1  0.5657290000000  0.5518280000000  0.4603820000000 1.0
C      1  0.5092270000000  0.5509000000000  0.4257950000000 1.0
C      1  0.4503660000000  0.5524940000000  0.4411590000000 1.0
C      1  0.4246810000000  0.5526440000000  0.5034930000000 1.0
C      1  0.4573110000000  0.5514110000000  0.5648440000000 1.0
C      1  0.5233060000000  0.5534360000000  0.5753800000000 1.0
C      1  0.5072360000000  0.5133020000000  0.5804150000000 1.0
C      1  0.5675830000000  0.5075590000000  0.5508760000000 1.0
C      1  0.5793740000000  0.5121940000000  0.4753290000000 1.0
C      1  0.5292330000000  0.5140120000000  0.4238520000000 1.0
C      1  0.4589670000000  0.5133850000000  0.4297820000000 1.0
C      1  0.4176340000000  0.5072350000000  0.4810680000000 1.0
C      1  0.4385790000000  0.5138260000000  0.5540570000000 1.0
C      1  0.5054790000000  0.5801330000000  0.5360290000000 1.0
C      1  0.5296810000000  0.5814200000000  0.5192610000000 1.0
C      1  0.5339890000000  0.5830140000000  0.4884480000000 1.0
C      1  0.5108970000000  0.5766470000000  0.4706810000000 1.0
C      1  0.4667900000000  0.5792550000000  0.4753650000000 1.0
C      1  0.4704920000000  0.5886550000000  0.5014270000000 1.0
C      1  0.4767170000000  0.5835410000000  0.5289800000000 1.0
C      1  0.5527470000000  0.5230420000000  0.5712320000000 1.0
C      1  0.5858240000000  0.5212380000000  0.5030900000000 1.0
C      1  0.5572890000000  0.5132910000000  0.4326470000000 1.0
C      1  0.4825760000000  0.5107300000000  0.4130040000000 1.0
C      1  0.4230780000000  0.5252900000000  0.4588590000000 1.0
C      1  0.4170210000000  0.5181910000000  0.5344280000000 1.0
C      1  0.4780840000000  0.5185450000000  0.5835820000000 1.0
C      1  0.5278670000000  0.4297300000000  0.4401830000000 1.0
C      1  0.4693330000000  0.4310310000000  0.4417860000000 1.0
C      1  0.4377520000000  0.4282350000000  0.4898550000000 1.0
C      1  0.4505750000000  0.4286090000000  0.5434980000000 1.0
C      1  0.5051880000000  0.4274640000000  0.5621470000000 1.0
C      1  0.5524760000000  0.4280760000000  0.5400850000000 1.0
C      1  0.5624870000000  0.4289470000000  0.4832240000000 1.0
C      1  0.5129010000000  0.4183990000000  0.4639150000000 1.0
C      1  0.4763410000000  0.4167810000000  0.4698620000000 1.0
C      1  0.4619980000000  0.4133670000000  0.4958000000000 1.0
C      1  0.4730410000000  0.4166040000000  0.5264610000000 1.0
C      1  0.5044770000000  0.4146040000000  0.5373310000000 1.0
C      1  0.5307180000000  0.4180800000000  0.5219760000000 1.0
C      1  0.5344020000000  0.4185550000000  0.4863880000000 1.0
C      1  0.5347010000000  0.4916780000000  0.5126440000000 1.0
C      1  0.5338910000000  0.4926220000000  0.4811960000000 1.0
C      1  0.5066810000000  0.4903760000000  0.4619660000000 1.0
C      1  0.4708060000000  0.4896510000000  0.4738410000000 1.0
C      1  0.4620750000000  0.4816010000000  0.5041500000000 1.0
C      1  0.4778170000000  0.4884390000000  0.5312940000000 1.0
C      1  0.5104260000000  0.4830130000000  0.5365050000000 1.0
C      1  0.4538910000000  0.4927830000000  0.4507980000000 1.0
C      1  0.4340480000000  0.4910680000000  0.5097300000000 1.0
C      1  0.4603100000000  0.4930310000000  0.5536710000000 1.0
C      1  0.5198000000000  0.4934180000000  0.5630560000000 1.0
C      1  0.5620180000000  0.4921130000000  0.5222860000000 1.0
C      1  0.5598640000000  0.4915250000000  0.4697460000000 1.0
C      1  0.5134740000000  0.4916470000000  0.4338270000000 1.0
C      1  0.4830960000000  0.5403950000000  0.5636670000000 1.0
C      1  0.5384120000000  0.5428920000000  0.5530010000000 1.0
C      1  0.5673060000000  0.5446840000000  0.5022570000000 1.0
C      1  0.5397390000000  0.5395950000000  0.4567640000000 1.0
C      1  0.4920650000000  0.5375310000000  0.4448520000000 1.0
C      1  0.4426980000000  0.5444280000000  0.4674920000000 1.0
C      1  0.4453070000000  0.5434310000000  0.5211180000000 1.0
C      1  0.5560900000000  0.5636690000000  0.4844540000000 1.0
C      1  0.5235240000000  0.5626070000000  0.4483860000000 1.0
C      1  0.4765660000000  0.5617390000000  0.4514860000000 1.0
C      1  0.4455630000000  0.5620450000000  0.4857860000000 1.0
C      1  0.4593840000000  0.5616240000000  0.5385100000000 1.0
C      1  0.5026340000000  0.5602870000000  0.5578200000000 1.0
C      1  0.5463540000000  0.5619960000000  0.5325770000000 1.0
C      1  0.5535500000000  0.4563920000000  0.5486140000000 1.0
C      1  0.5710000000000  0.4566640000000  0.4878180000000 1.0
C      1  0.5357090000000  0.4585520000000  0.4374270000000 1.0
C      1  0.4720190000000  0.4589750000000  0.4334680000000 1.0
C      1  0.4316620000000  0.4558850000000  0.4805880000000 1.0
C      1  0.4411470000000  0.4557510000000  0.5417650000000 1.0
C      1  0.4953450000000  0.4610850000000  0.5748340000000 1.0
C      1  0.5068370000000  0.4737200000000  0.4130090000000 1.0
C      1  0.4334560000000  0.4744210000000  0.4436350000000 1.0
C      1  0.4119930000000  0.4722280000000  0.5115820000000 1.0
C      1  0.4564490000000  0.4742670000000  0.5749760000000 1.0
C      1  0.5346750000000  0.4746420000000  0.5792530000000 1.0
C      1  0.5832040000000  0.4723770000000  0.5258450000000 1.0
C      1  0.5717590000000  0.4735930000000  0.4511030000000 1.0
C      1  0.4964590000000  0.5131200000000  0.5016840000000 1.0
C      1  0.5006940000000  0.5626200000000  0.4956500000000 1.0
C      1  0.5005940000000  0.4724250000000  0.4968130000000 1.0
C      1  0.5002190000000  0.4447890000000  0.5082650000000 1.0
C      1  0.4993500000000  0.5392560000000  0.4988610000000 1.0
END
