TITL C-2441165-58-1069 0.0684022630672282 125000 -15480.5878866735 0 0 117 (C1) n - 1
REM
REM in /home/bkarasulu/work/CARBON/AIRSS/Generating-Clusters/ReaxFF-fromJPCA2015/Units_Real/with-SteepDescent/Higher-Symm
REM
REM
REM
REM
REM
REM ./C.cell (1df0a924f5614ab8850e4351716899ee)
REM
REM compiler GCC version 9.2.1 20190827 (Red Hat 9.2.1-1)
REM options -cpp -mtune=generic -march=x86-64 -g -O0 -fpre-include=/usr/include/finclude/math-vector-fortran.h
REM seed -1228127990 -864790904 117352304 -1323568100 -1156099005 7574821 -1890185666 2115747973 -182650679 203646461 895470111 1355116744 1796907173 1621784909 -690205542 -3584531 -1324513899 -1590486452 7366600 416117121 955017655 -1345277507 986913499 1164508998 -1354152058 -2056804555 627728476 -1070807250 737975317 2005673199 561617206 -1903861804 -1422942356
REM
CELL 1.54180   50.00000   50.00000   50.00000   90.00000   90.00000   90.00000
LATT -1
SFAC C  
C      1  0.5447930000000  0.5275200000000  0.5602380000000 1.0
C      1  0.5425910000000  0.4780930000000  0.4441100000000 1.0
C      1  0.4523450000000  0.4694230000000  0.5626490000000 1.0
C      1  0.4557120000000  0.5254600000000  0.4405230000000 1.0
C      1  0.5089600000000  0.4849770000000  0.4632830000000 1.0
C      1  0.5039900000000  0.5155120000000  0.5361270000000 1.0
C      1  0.4973370000000  0.5104670000000  0.4661730000000 1.0
C      1  0.4934650000000  0.4885490000000  0.5343810000000 1.0
C      1  0.4982920000000  0.5548280000000  0.5283430000000 1.0
C      1  0.4968780000000  0.4449010000000  0.4688330000000 1.0
C      1  0.5065240000000  0.4475560000000  0.5225640000000 1.0
C      1  0.4889080000000  0.5541960000000  0.4651750000000 1.0
C      1  0.5271380000000  0.5273130000000  0.5224080000000 1.0
C      1  0.5251700000000  0.4740370000000  0.4857130000000 1.0
C      1  0.4758350000000  0.4784050000000  0.5144020000000 1.0
C      1  0.4773800000000  0.5210950000000  0.4894410000000 1.0
C      1  0.5148920000000  0.4031410000000  0.5028780000000 1.0
C      1  0.5133050000000  0.5944650000000  0.4982770000000 1.0
C      1  0.4850150000000  0.5985750000000  0.5041370000000 1.0
C      1  0.4860070000000  0.4031040000000  0.5003330000000 1.0
C      1  0.5240320000000  0.4101640000000  0.4758630000000 1.0
C      1  0.5254340000000  0.5900640000000  0.5241480000000 1.0
C      1  0.4676240000000  0.5905470000000  0.4832760000000 1.0
C      1  0.4751900000000  0.4105660000000  0.5261680000000 1.0
C      1  0.5613540000000  0.5571320000000  0.4767700000000 1.0
C      1  0.5596550000000  0.4433720000000  0.5197990000000 1.0
C      1  0.4387650000000  0.4434820000000  0.4753200000000 1.0
C      1  0.4424160000000  0.5561230000000  0.5222900000000 1.0
C      1  0.5638240000000  0.4377840000000  0.4911290000000 1.0
C      1  0.5601710000000  0.5590500000000  0.5087560000000 1.0
C      1  0.4420590000000  0.5593860000000  0.4918300000000 1.0
C      1  0.4443630000000  0.4408480000000  0.5094600000000 1.0
C      1  0.4227950000000  0.5350590000000  0.5188990000000 1.0
C      1  0.4232700000000  0.4679010000000  0.4817970000000 1.0
C      1  0.5790480000000  0.4656920000000  0.5176980000000 1.0
C      1  0.5789480000000  0.5336260000000  0.4812550000000 1.0
C      1  0.4159420000000  0.5188720000000  0.4726450000000 1.0
C      1  0.4162480000000  0.4794870000000  0.5292420000000 1.0
C      1  0.5838800000000  0.4799280000000  0.4719280000000 1.0
C      1  0.5856190000000  0.5189420000000  0.5292260000000 1.0
C      1  0.4461930000000  0.4801260000000  0.4347290000000 1.0
C      1  0.4449770000000  0.5183500000000  0.5653710000000 1.0
C      1  0.5570190000000  0.5179980000000  0.4353030000000 1.0
C      1  0.5558610000000  0.4815110000000  0.5648530000000 1.0
C      1  0.4966900000000  0.4222490000000  0.5427630000000 1.0
C      1  0.5025110000000  0.5733600000000  0.4490920000000 1.0
C      1  0.5046680000000  0.5794890000000  0.5439810000000 1.0
C      1  0.5011590000000  0.4178350000000  0.4566970000000 1.0
C      1  0.4868660000000  0.4595050000000  0.5883750000000 1.0
C      1  0.4878780000000  0.5388780000000  0.4090260000000 1.0
C      1  0.5136470000000  0.5384500000000  0.5923270000000 1.0
C      1  0.5131390000000  0.4630370000000  0.4094440000000 1.0
C      1  0.5719530000000  0.4948700000000  0.5171790000000 1.0
C      1  0.5684290000000  0.5051750000000  0.4814810000000 1.0
C      1  0.4255240000000  0.5043900000000  0.5171020000000 1.0
C      1  0.4253140000000  0.4962860000000  0.4874610000000 1.0
C      1  0.5223710000000  0.4107430000000  0.5310660000000 1.0
C      1  0.5208840000000  0.5854840000000  0.4698250000000 1.0
C      1  0.4784260000000  0.5898500000000  0.5328680000000 1.0
C      1  0.4772110000000  0.4089760000000  0.4724540000000 1.0
C      1  0.4620940000000  0.4317110000000  0.4646000000000 1.0
C      1  0.4691960000000  0.5621030000000  0.5329350000000 1.0
C      1  0.5393510000000  0.5668950000000  0.4637460000000 1.0
C      1  0.5335120000000  0.4378040000000  0.5318240000000 1.0
C      1  0.4220750000000  0.5025170000000  0.5623720000000 1.0
C      1  0.4246950000000  0.4981190000000  0.4378290000000 1.0
C      1  0.5774780000000  0.4992860000000  0.5641340000000 1.0
C      1  0.5777940000000  0.4988580000000  0.4361180000000 1.0
C      1  0.5346750000000  0.4467750000000  0.4486900000000 1.0
C      1  0.5355300000000  0.5538070000000  0.5542520000000 1.0
C      1  0.4660900000000  0.5540450000000  0.4465110000000 1.0
C      1  0.4612220000000  0.4432410000000  0.5548150000000 1.0
C      1  0.5743670000000  0.5259420000000  0.5556080000000 1.0
C      1  0.5734670000000  0.4729970000000  0.4457500000000 1.0
C      1  0.4245710000000  0.4753550000000  0.5558780000000 1.0
C      1  0.4263990000000  0.5247180000000  0.4446490000000 1.0
C      1  0.5155650000000  0.4653400000000  0.5801770000000 1.0
C      1  0.5159290000000  0.5333210000000  0.4188320000000 1.0
C      1  0.4847240000000  0.5331410000000  0.5844250000000 1.0
C      1  0.4858150000000  0.4678920000000  0.4181600000000 1.0
C      1  0.5320390000000  0.5161530000000  0.5835030000000 1.0
C      1  0.5327430000000  0.4845790000000  0.4161360000000 1.0
C      1  0.4678090000000  0.4821680000000  0.5830300000000 1.0
C      1  0.4683830000000  0.5169360000000  0.4160270000000 1.0
C      1  0.4182500000000  0.5410840000000  0.4917590000000 1.0
C      1  0.4208850000000  0.4588540000000  0.5094370000000 1.0
C      1  0.5833520000000  0.4591620000000  0.4905210000000 1.0
C      1  0.5826530000000  0.5407230000000  0.5095530000000 1.0
C      1  0.5457740000000  0.5707420000000  0.5303910000000 1.0
C      1  0.5448840000000  0.4289680000000  0.4701380000000 1.0
C      1  0.4529130000000  0.4267200000000  0.5322750000000 1.0
C      1  0.4515490000000  0.5755540000000  0.4676970000000 1.0
C      1  0.5484800000000  0.4909010000000  0.5358290000000 1.0
C      1  0.5469040000000  0.5082450000000  0.4615580000000 1.0
C      1  0.4523860000000  0.5100840000000  0.5361190000000 1.0
C      1  0.4632450000000  0.4833090000000  0.4593680000000 1.0
C      1  0.4639590000000  0.5111820000000  0.5873620000000 1.0
C      1  0.4658540000000  0.4876820000000  0.4126250000000 1.0
C      1  0.5358390000000  0.4870910000000  0.5858870000000 1.0
C      1  0.5370810000000  0.5127300000000  0.4129640000000 1.0
C      1  0.5157570000000  0.5598860000000  0.5732920000000 1.0
C      1  0.5160010000000  0.4418660000000  0.4289200000000 1.0
C      1  0.4847980000000  0.4375870000000  0.5694790000000 1.0
C      1  0.4866170000000  0.5627550000000  0.4258730000000 1.0
C      1  0.4713770000000  0.4536240000000  0.5042460000000 1.0
C      1  0.4748350000000  0.5493730000000  0.4896580000000 1.0
C      1  0.5166850000000  0.5486350000000  0.5065150000000 1.0
C      1  0.5107230000000  0.4492430000000  0.4939100000000 1.0
C      1  0.4879930000000  0.4688720000000  0.4508940000000 1.0
C      1  0.4914710000000  0.5237100000000  0.5589510000000 1.0
C      1  0.5062910000000  0.5228460000000  0.4432190000000 1.0
C      1  0.5070070000000  0.4770100000000  0.5560800000000 1.0
C      1  0.5294490000000  0.4830030000000  0.5168570000000 1.0
C      1  0.5258800000000  0.5237780000000  0.4928750000000 1.0
C      1  0.4671140000000  0.5184690000000  0.5148630000000 1.0
C      1  0.4653110000000  0.4767580000000  0.4871850000000 1.0
C      1  0.5135560000000  0.4981060000000  0.5001610000000 1.0
END
