TITL C-2441158-471-660 -0.000264023432099542 125000 -876.432748175561 0 0 7 (D3h) n - 1
REM
REM in /home/bkarasulu/work/CARBON/AIRSS/Generating-Clusters/ReaxFF-fromJPCA2015/Units_Real/with-SteepDescent/Higher-Symm
REM
REM
REM
REM
REM
REM ./C.cell (1df0a924f5614ab8850e4351716899ee)
REM
REM compiler GCC version 9.2.1 20190827 (Red Hat 9.2.1-1)
REM options -cpp -mtune=generic -march=x86-64 -g -O0 -fpre-include=/usr/include/finclude/math-vector-fortran.h
REM seed 718439563 1897696633 693778927 -1790177379 -150242917 934192272 1166877148 -2036100943 1059445632 -192496369 1897699365 -1513858857 1509550119 874600764 -1693219082 636466237 -1661713912 -1461697308 2108141115 534087123 193150464 2126023193 1273207242 2055562611 452970915 1533187406 746255932 893701682 -1923076440 1627037949 1725899292 473964128 -1410357354
REM
CELL 1.54180   50.00000   50.00000   50.00000   90.00000   90.00000   90.00000
LATT -1
SFAC C  
C      1  0.4844620000000  0.5074160000000  0.5242920000000 1.0
C      1  0.4844630000000  0.5074160000000  0.4745130000000 1.0
C      1  0.5275730000000  0.5074160000000  0.4994020000000 1.0
C      1  0.4723330000000  0.5074160000000  0.5452980000000 1.0
C      1  0.4723360000000  0.5074160000000  0.4535050000000 1.0
C      1  0.5518290000000  0.5074160000000  0.4994010000000 1.0
C      1  0.4988330000000  0.5074160000000  0.4994040000000 1.0
END
