TITL C-2441156-4686-56 0.0548981196634483 125000 -19966.1063598754 0 0 140 (C1) n - 1
REM
REM in /home/bkarasulu/work/CARBON/AIRSS/Generating-Clusters/ReaxFF-fromJPCA2015/Units_Real/with-SteepDescent/Higher-Symm
REM
REM
REM
REM
REM
REM ./C.cell (1df0a924f5614ab8850e4351716899ee)
REM
REM compiler GCC version 9.2.1 20190827 (Red Hat 9.2.1-1)
REM options -cpp -mtune=generic -march=x86-64 -g -O0 -fpre-include=/usr/include/finclude/math-vector-fortran.h
REM seed 365629062 -1617134353 -994804676 -1753726951 162380113 -339869421 169531988 1418175862 358527627 -1059710826 -1797438338 -397386621 -452064701 -478508713 1672056662 -127682361 -53552054 976674202 -1994072664 304410851 -639645243 1150668815 937438835 609770413 986284073 873795779 -341113901 1757023403 578113431 1480162371 -756048338 -164292636 316646832
REM
CELL 1.54180   50.00000   50.00000   50.00000   90.00000   90.00000   90.00000
LATT -1
SFAC C  
C      1  0.4377530000000  0.5103570000000  0.4294020000000 1.0
C      1  0.4460230000000  0.4479790000000  0.5607060000000 1.0
C      1  0.5189840000000  0.4294920000000  0.4422290000000 1.0
C      1  0.5593690000000  0.4903900000000  0.5713060000000 1.0
C      1  0.5504510000000  0.5532770000000  0.4401980000000 1.0
C      1  0.4807800000000  0.5672440000000  0.5586790000000 1.0
C      1  0.4720210000000  0.4726230000000  0.4915590000000 1.0
C      1  0.5131990000000  0.4584110000000  0.5063010000000 1.0
C      1  0.5429640000000  0.4940180000000  0.4927690000000 1.0
C      1  0.5289070000000  0.5345500000000  0.5037350000000 1.0
C      1  0.4794520000000  0.5448930000000  0.4929510000000 1.0
C      1  0.4567030000000  0.5108100000000  0.5124910000000 1.0
C      1  0.5273380000000  0.4201610000000  0.4667730000000 1.0
C      1  0.5792130000000  0.4705950000000  0.5306190000000 1.0
C      1  0.5583480000000  0.5661030000000  0.4629550000000 1.0
C      1  0.4729850000000  0.5843420000000  0.5380760000000 1.0
C      1  0.4279800000000  0.5184670000000  0.4703940000000 1.0
C      1  0.4389360000000  0.4333410000000  0.5379410000000 1.0
C      1  0.4717220000000  0.4214280000000  0.5040480000000 1.0
C      1  0.5591770000000  0.4304100000000  0.5036820000000 1.0
C      1  0.5904170000000  0.5150550000000  0.4981930000000 1.0
C      1  0.5338210000000  0.5846030000000  0.5014120000000 1.0
C      1  0.4412090000000  0.5752320000000  0.4981220000000 1.0
C      1  0.4153510000000  0.4841000000000  0.4974340000000 1.0
C      1  0.5294630000000  0.5099440000000  0.3983960000000 1.0
C      1  0.5073810000000  0.5277760000000  0.5978760000000 1.0
C      1  0.4789710000000  0.5173000000000  0.3956440000000 1.0
C      1  0.4739460000000  0.4893290000000  0.6002840000000 1.0
C      1  0.4962940000000  0.4717740000000  0.3971070000000 1.0
C      1  0.5233580000000  0.4784510000000  0.6022950000000 1.0
C      1  0.4705040000000  0.4863480000000  0.5173110000000 1.0
C      1  0.4990970000000  0.4634630000000  0.4822260000000 1.0
C      1  0.5315530000000  0.4801640000000  0.5155030000000 1.0
C      1  0.5308170000000  0.5177310000000  0.4827470000000 1.0
C      1  0.5002000000000  0.5382120000000  0.5138450000000 1.0
C      1  0.4591400000000  0.5202160000000  0.4841530000000 1.0
C      1  0.4168910000000  0.4682840000000  0.5205410000000 1.0
C      1  0.4860010000000  0.4125850000000  0.4793840000000 1.0
C      1  0.5681150000000  0.4425880000000  0.5293700000000 1.0
C      1  0.5797830000000  0.5298590000000  0.4766520000000 1.0
C      1  0.5148340000000  0.5828820000000  0.5229980000000 1.0
C      1  0.4292840000000  0.5602100000000  0.4775740000000 1.0
C      1  0.5488610000000  0.5281820000000  0.5223180000000 1.0
C      1  0.4993830000000  0.5554400000000  0.4755840000000 1.0
C      1  0.4506230000000  0.5368350000000  0.5217890000000 1.0
C      1  0.4454720000000  0.4769930000000  0.4837240000000 1.0
C      1  0.4912100000000  0.4439890000000  0.5182210000000 1.0
C      1  0.5486130000000  0.4744890000000  0.4737280000000 1.0
C      1  0.4140320000000  0.4944100000000  0.4318050000000 1.0
C      1  0.4620390000000  0.4247940000000  0.5700190000000 1.0
C      1  0.5469150000000  0.4285810000000  0.4328090000000 1.0
C      1  0.5851670000000  0.5020410000000  0.5659520000000 1.0
C      1  0.5362780000000  0.5771410000000  0.4313090000000 1.0
C      1  0.4526470000000  0.5666770000000  0.5679750000000 1.0
C      1  0.5480180000000  0.4386240000000  0.5503340000000 1.0
C      1  0.5736500000000  0.5136520000000  0.4531280000000 1.0
C      1  0.5255120000000  0.5691050000000  0.5461900000000 1.0
C      1  0.4473570000000  0.5611610000000  0.4556850000000 1.0
C      1  0.4214300000000  0.4850340000000  0.5430130000000 1.0
C      1  0.4716690000000  0.4254940000000  0.4579570000000 1.0
C      1  0.5919900000000  0.4686630000000  0.5073260000000 1.0
C      1  0.5712060000000  0.5562580000000  0.4851120000000 1.0
C      1  0.4873840000000  0.5890310000000  0.5150140000000 1.0
C      1  0.4125640000000  0.5360040000000  0.4869120000000 1.0
C      1  0.4271830000000  0.4424930000000  0.5146210000000 1.0
C      1  0.5136440000000  0.4092030000000  0.4881220000000 1.0
C      1  0.5578940000000  0.5689480000000  0.5071270000000 1.0
C      1  0.4672640000000  0.5862320000000  0.4931200000000 1.0
C      1  0.4090220000000  0.5144800000000  0.5067620000000 1.0
C      1  0.4435740000000  0.4312710000000  0.4938420000000 1.0
C      1  0.5336230000000  0.4166060000000  0.5089130000000 1.0
C      1  0.5945250000000  0.4877870000000  0.4876960000000 1.0
C      1  0.5542900000000  0.5555230000000  0.5335610000000 1.0
C      1  0.4661630000000  0.5805630000000  0.4652160000000 1.0
C      1  0.4132860000000  0.5130490000000  0.5354480000000 1.0
C      1  0.4447960000000  0.4351740000000  0.4660750000000 1.0
C      1  0.5286450000000  0.4197220000000  0.5372440000000 1.0
C      1  0.5751310000000  0.4831890000000  0.4632500000000 1.0
C      1  0.5279550000000  0.5076490000000  0.6000790000000 1.0
C      1  0.5062500000000  0.5290750000000  0.3977810000000 1.0
C      1  0.4790850000000  0.5174640000000  0.5988780000000 1.0
C      1  0.4728150000000  0.4885950000000  0.4006270000000 1.0
C      1  0.4949980000000  0.4687960000000  0.6003290000000 1.0
C      1  0.5255910000000  0.4819960000000  0.3980550000000 1.0
C      1  0.4239740000000  0.4542560000000  0.4551780000000 1.0
C      1  0.5019790000000  0.4116740000000  0.5465290000000 1.0
C      1  0.5782490000000  0.4531490000000  0.4555460000000 1.0
C      1  0.5804630000000  0.5418550000000  0.5445500000000 1.0
C      1  0.4975520000000  0.5806920000000  0.4582160000000 1.0
C      1  0.4198410000000  0.5384550000000  0.5478250000000 1.0
C      1  0.4905430000000  0.5245050000000  0.5332440000000 1.0
C      1  0.4802690000000  0.5070230000000  0.4697540000000 1.0
C      1  0.4831420000000  0.4671880000000  0.5337290000000 1.0
C      1  0.5215370000000  0.4698620000000  0.4658500000000 1.0
C      1  0.5350070000000  0.5042650000000  0.5313450000000 1.0
C      1  0.5067040000000  0.5249840000000  0.4681800000000 1.0
C      1  0.5437080000000  0.5900070000000  0.4566450000000 1.0
C      1  0.4455760000000  0.5815610000000  0.5437500000000 1.0
C      1  0.4087250000000  0.4990340000000  0.4598990000000 1.0
C      1  0.4554500000000  0.4109050000000  0.5451880000000 1.0
C      1  0.5545580000000  0.4173110000000  0.4588630000000 1.0
C      1  0.5950990000000  0.4951450000000  0.5392920000000 1.0
C      1  0.4351700000000  0.5618890000000  0.5248660000000 1.0
C      1  0.4067230000000  0.4723260000000  0.4715400000000 1.0
C      1  0.4790890000000  0.4052510000000  0.5294230000000 1.0
C      1  0.5713460000000  0.4327020000000  0.4767160000000 1.0
C      1  0.5925870000000  0.5212370000000  0.5267390000000 1.0
C      1  0.5223440000000  0.5918500000000  0.4756170000000 1.0
C      1  0.5239950000000  0.5109960000000  0.5556060000000 1.0
C      1  0.5059010000000  0.5252250000000  0.4407250000000 1.0
C      1  0.4770880000000  0.5119980000000  0.5513480000000 1.0
C      1  0.4767930000000  0.4879420000000  0.4498430000000 1.0
C      1  0.5020300000000  0.4701760000000  0.5551200000000 1.0
C      1  0.5221980000000  0.4805530000000  0.4409280000000 1.0
C      1  0.5137350000000  0.5477830000000  0.5799730000000 1.0
C      1  0.4662530000000  0.5348810000000  0.4132500000000 1.0
C      1  0.4499880000000  0.4921110000000  0.5839760000000 1.0
C      1  0.4870590000000  0.4536290000000  0.4158250000000 1.0
C      1  0.5377410000000  0.4599660000000  0.5854500000000 1.0
C      1  0.5530850000000  0.5071750000000  0.4170260000000 1.0
C      1  0.5602690000000  0.5271410000000  0.4342670000000 1.0
C      1  0.5082470000000  0.5659720000000  0.5658690000000 1.0
C      1  0.4479540000000  0.5387330000000  0.4331060000000 1.0
C      1  0.4378490000000  0.4751770000000  0.5642720000000 1.0
C      1  0.4900830000000  0.4341730000000  0.4353750000000 1.0
C      1  0.5421140000000  0.4667710000000  0.5584690000000 1.0
C      1  0.5748570000000  0.5286530000000  0.5693530000000 1.0
C      1  0.5078420000000  0.5736190000000  0.4301380000000 1.0
C      1  0.4372580000000  0.5420950000000  0.5701230000000 1.0
C      1  0.4289680000000  0.4695690000000  0.4310680000000 1.0
C      1  0.4912420000000  0.4240560000000  0.5709510000000 1.0
C      1  0.5626860000000  0.4525140000000  0.4314930000000 1.0
C      1  0.5057200000000  0.5458260000000  0.4223300000000 1.0
C      1  0.4578890000000  0.5191560000000  0.5770470000000 1.0
C      1  0.4556000000000  0.4851860000000  0.4268450000000 1.0
C      1  0.4973210000000  0.4517450000000  0.5769320000000 1.0
C      1  0.5443020000000  0.4773160000000  0.4221510000000 1.0
C      1  0.5447570000000  0.5148220000000  0.5762480000000 1.0
C      1  0.5002450000000  0.4973860000000  0.5622110000000 1.0
C      1  0.5005090000000  0.4975660000000  0.4356710000000 1.0
END
