TITL C-2441161-5029-1074 0.0563387709303152 125000 -25917.1097924054 0 0 180 (C1) n - 1
REM
REM in /home/bkarasulu/work/CARBON/AIRSS/Generating-Clusters/ReaxFF-fromJPCA2015/Units_Real/with-SteepDescent/Higher-Symm
REM
REM
REM
REM
REM
REM ./C.cell (1df0a924f5614ab8850e4351716899ee)
REM
REM compiler GCC version 9.2.1 20190827 (Red Hat 9.2.1-1)
REM options -cpp -mtune=generic -march=x86-64 -g -O0 -fpre-include=/usr/include/finclude/math-vector-fortran.h
REM seed 131794651 126800729 -2010414377 -1286445237 2106983479 -396817151 286902984 -141392066 956257760 -1067080376 1094288479 -1887329732 -840399286 847391198 1850459882 -309624969 1544195736 -1406413267 1822658527 949935701 953442100 924105691 1584782990 -659151495 -438804672 1269581470 -1987256860 981373801 -1427209704 -1146138067 -817163850 -1956271257 1050309851
REM
CELL 1.54180   50.00000   50.00000   50.00000   90.00000   90.00000   90.00000
LATT -1
SFAC C  
C      1  0.5381530000000  0.5507470000000  0.4970420000000 1.0
C      1  0.5243750000000  0.5550580000000  0.4714640000000 1.0
C      1  0.4985350000000  0.5492350000000  0.4577190000000 1.0
C      1  0.4665860000000  0.5494800000000  0.4808540000000 1.0
C      1  0.4541220000000  0.5479760000000  0.5072240000000 1.0
C      1  0.5051010000000  0.5435360000000  0.5377440000000 1.0
C      1  0.5351860000000  0.5474990000000  0.5298610000000 1.0
C      1  0.5340280000000  0.5997500000000  0.4999430000000 1.0
C      1  0.5223260000000  0.6023160000000  0.4732270000000 1.0
C      1  0.4944760000000  0.6006290000000  0.4647970000000 1.0
C      1  0.4744390000000  0.5954930000000  0.4883800000000 1.0
C      1  0.4709090000000  0.5977890000000  0.5207750000000 1.0
C      1  0.4955050000000  0.5939800000000  0.5364360000000 1.0
C      1  0.5236970000000  0.5969980000000  0.5270100000000 1.0
C      1  0.6038640000000  0.5087720000000  0.5210730000000 1.0
C      1  0.5825790000000  0.5110890000000  0.4305490000000 1.0
C      1  0.4957460000000  0.5081360000000  0.4019420000000 1.0
C      1  0.4196620000000  0.5106190000000  0.4380920000000 1.0
C      1  0.4066230000000  0.5033440000000  0.5198950000000 1.0
C      1  0.4531510000000  0.5086740000000  0.5920310000000 1.0
C      1  0.5366650000000  0.5018670000000  0.5916890000000 1.0
C      1  0.3913600000000  0.4792920000000  0.5130640000000 1.0
C      1  0.4380050000000  0.4815220000000  0.5915530000000 1.0
C      1  0.5602110000000  0.4872530000000  0.5987060000000 1.0
C      1  0.6010530000000  0.4801500000000  0.5252810000000 1.0
C      1  0.5832600000000  0.4830580000000  0.4371350000000 1.0
C      1  0.5012290000000  0.4796950000000  0.3938550000000 1.0
C      1  0.4101220000000  0.4850500000000  0.4333810000000 1.0
C      1  0.5018340000000  0.3965790000000  0.4674580000000 1.0
C      1  0.4755320000000  0.3924630000000  0.4785800000000 1.0
C      1  0.4679160000000  0.3938550000000  0.5068930000000 1.0
C      1  0.4856910000000  0.3927530000000  0.5299440000000 1.0
C      1  0.5155880000000  0.3985150000000  0.5321360000000 1.0
C      1  0.5358260000000  0.4008580000000  0.5100910000000 1.0
C      1  0.5267080000000  0.3953120000000  0.4822730000000 1.0
C      1  0.5750420000000  0.4363760000000  0.4438290000000 1.0
C      1  0.5070130000000  0.4335130000000  0.4173230000000 1.0
C      1  0.4289030000000  0.4373370000000  0.4401010000000 1.0
C      1  0.4178140000000  0.4340300000000  0.5127940000000 1.0
C      1  0.4621530000000  0.4404780000000  0.5777540000000 1.0
C      1  0.5398030000000  0.4381800000000  0.5833270000000 1.0
C      1  0.5814720000000  0.4326860000000  0.5241990000000 1.0
C      1  0.6011080000000  0.4530710000000  0.5137410000000 1.0
C      1  0.5776020000000  0.4577030000000  0.4236790000000 1.0
C      1  0.4924400000000  0.4523420000000  0.4001230000000 1.0
C      1  0.4071430000000  0.4584560000000  0.4428000000000 1.0
C      1  0.4032360000000  0.4544240000000  0.5270170000000 1.0
C      1  0.4588560000000  0.4627150000000  0.5963350000000 1.0
C      1  0.5603120000000  0.4588340000000  0.5902980000000 1.0
C      1  0.5733350000000  0.4829710000000  0.4796770000000 1.0
C      1  0.5272790000000  0.4832400000000  0.4284570000000 1.0
C      1  0.4579100000000  0.4848420000000  0.4396910000000 1.0
C      1  0.4377320000000  0.4830360000000  0.4809760000000 1.0
C      1  0.4441850000000  0.4926760000000  0.5502810000000 1.0
C      1  0.5003280000000  0.4833520000000  0.5812270000000 1.0
C      1  0.5613340000000  0.4865070000000  0.5443440000000 1.0
C      1  0.6028010000000  0.4824480000000  0.4789860000000 1.0
C      1  0.5470010000000  0.4856010000000  0.4073700000000 1.0
C      1  0.4567320000000  0.4836220000000  0.4106460000000 1.0
C      1  0.3896830000000  0.4817230000000  0.4840400000000 1.0
C      1  0.4218440000000  0.4815560000000  0.5667100000000 1.0
C      1  0.4861800000000  0.4742850000000  0.6056190000000 1.0
C      1  0.5825930000000  0.4861370000000  0.5640400000000 1.0
C      1  0.4562160000000  0.4065220000000  0.4606690000000 1.0
C      1  0.4478870000000  0.4161600000000  0.5112230000000 1.0
C      1  0.4727920000000  0.4066830000000  0.5519830000000 1.0
C      1  0.5218410000000  0.4131640000000  0.5549280000000 1.0
C      1  0.5624210000000  0.4134160000000  0.5104850000000 1.0
C      1  0.5477330000000  0.4065500000000  0.4652920000000 1.0
C      1  0.4989250000000  0.4192460000000  0.4459030000000 1.0
C      1  0.5524420000000  0.5765840000000  0.4963200000000 1.0
C      1  0.5340360000000  0.5801710000000  0.4573090000000 1.0
C      1  0.4867440000000  0.5754690000000  0.4509640000000 1.0
C      1  0.4524340000000  0.5742860000000  0.4760300000000 1.0
C      1  0.4545000000000  0.5740000000000  0.5250250000000 1.0
C      1  0.4949080000000  0.5684340000000  0.5521470000000 1.0
C      1  0.5394570000000  0.5760420000000  0.5405470000000 1.0
C      1  0.5748610000000  0.5590910000000  0.4537470000000 1.0
C      1  0.5108650000000  0.5634720000000  0.4150690000000 1.0
C      1  0.4379180000000  0.5585650000000  0.4375020000000 1.0
C      1  0.4132910000000  0.5628060000000  0.5075040000000 1.0
C      1  0.4525970000000  0.5593350000000  0.5745240000000 1.0
C      1  0.5303170000000  0.5566690000000  0.5857660000000 1.0
C      1  0.5856550000000  0.5602000000000  0.5321080000000 1.0
C      1  0.5578960000000  0.5590230000000  0.5754590000000 1.0
C      1  0.5943280000000  0.5709590000000  0.5046400000000 1.0
C      1  0.5603260000000  0.5638500000000  0.4285680000000 1.0
C      1  0.4827580000000  0.5720130000000  0.4089960000000 1.0
C      1  0.4166520000000  0.5598600000000  0.4577760000000 1.0
C      1  0.4145880000000  0.5660540000000  0.5369790000000 1.0
C      1  0.4775510000000  0.5641180000000  0.5905710000000 1.0
C      1  0.4813520000000  0.5425230000000  0.6102610000000 1.0
C      1  0.5641750000000  0.5303790000000  0.5706270000000 1.0
C      1  0.6052470000000  0.5478520000000  0.4941410000000 1.0
C      1  0.5547250000000  0.5385510000000  0.4120880000000 1.0
C      1  0.4718520000000  0.5484350000000  0.3995960000000 1.0
C      1  0.3979390000000  0.5370360000000  0.4629160000000 1.0
C      1  0.4025970000000  0.5420970000000  0.5490490000000 1.0
C      1  0.4235600000000  0.5743960000000  0.4822250000000 1.0
C      1  0.4402780000000  0.5722320000000  0.5504120000000 1.0
C      1  0.5043270000000  0.5703010000000  0.5793860000000 1.0
C      1  0.5664460000000  0.5734680000000  0.5508020000000 1.0
C      1  0.5769120000000  0.5745950000000  0.4801340000000 1.0
C      1  0.5342270000000  0.5769170000000  0.4280660000000 1.0
C      1  0.4640570000000  0.5736690000000  0.4321790000000 1.0
C      1  0.5144230000000  0.4958380000000  0.5150200000000 1.0
C      1  0.5244610000000  0.5138240000000  0.4924560000000 1.0
C      1  0.5164460000000  0.4994980000000  0.4685940000000 1.0
C      1  0.4891980000000  0.4967850000000  0.4665900000000 1.0
C      1  0.4755540000000  0.5155110000000  0.4864460000000 1.0
C      1  0.4723930000000  0.5077910000000  0.5150650000000 1.0
C      1  0.4946370000000  0.5117750000000  0.5328880000000 1.0
C      1  0.6119920000000  0.5066600000000  0.4930130000000 1.0
C      1  0.5644110000000  0.5106130000000  0.4078860000000 1.0
C      1  0.4670100000000  0.5079200000000  0.3972910000000 1.0
C      1  0.3927380000000  0.5086820000000  0.4706950000000 1.0
C      1  0.4050120000000  0.5130880000000  0.5475610000000 1.0
C      1  0.4775400000000  0.5133200000000  0.6107060000000 1.0
C      1  0.5765000000000  0.5065720000000  0.5837680000000 1.0
C      1  0.5337190000000  0.4791370000000  0.5451690000000 1.0
C      1  0.5584200000000  0.4729250000000  0.5009170000000 1.0
C      1  0.5342270000000  0.4794590000000  0.4557820000000 1.0
C      1  0.4757860000000  0.4718050000000  0.4589050000000 1.0
C      1  0.4569490000000  0.4628300000000  0.4794950000000 1.0
C      1  0.4532500000000  0.4878090000000  0.5238500000000 1.0
C      1  0.4886220000000  0.4875480000000  0.5554910000000 1.0
C      1  0.4145030000000  0.4355340000000  0.4851650000000 1.0
C      1  0.4452280000000  0.4434250000000  0.5515330000000 1.0
C      1  0.5108880000000  0.4318670000000  0.5898580000000 1.0
C      1  0.5733470000000  0.4360760000000  0.5506390000000 1.0
C      1  0.5869000000000  0.4352310000000  0.4702490000000 1.0
C      1  0.5348000000000  0.4354910000000  0.4192520000000 1.0
C      1  0.4530840000000  0.4360470000000  0.4237090000000 1.0
C      1  0.5578000000000  0.5294270000000  0.5420140000000 1.0
C      1  0.5979560000000  0.5277080000000  0.4768210000000 1.0
C      1  0.5313060000000  0.5285950000000  0.4233360000000 1.0
C      1  0.4519350000000  0.5304180000000  0.4045170000000 1.0
C      1  0.4158780000000  0.5230770000000  0.4807400000000 1.0
C      1  0.4252090000000  0.5288150000000  0.5577330000000 1.0
C      1  0.4973830000000  0.5250440000000  0.5931990000000 1.0
C      1  0.5720370000000  0.4812060000000  0.5224380000000 1.0
C      1  0.5622220000000  0.4853150000000  0.4568110000000 1.0
C      1  0.5035650000000  0.4896840000000  0.4197910000000 1.0
C      1  0.4402090000000  0.4991910000000  0.4566540000000 1.0
C      1  0.4302250000000  0.4910900000000  0.5075220000000 1.0
C      1  0.4639850000000  0.4980180000000  0.5656790000000 1.0
C      1  0.5260020000000  0.4833890000000  0.5728350000000 1.0
C      1  0.5217480000000  0.4563930000000  0.5294670000000 1.0
C      1  0.5361230000000  0.4562060000000  0.5022280000000 1.0
C      1  0.5287780000000  0.4532790000000  0.4749800000000 1.0
C      1  0.5033350000000  0.4431500000000  0.4675860000000 1.0
C      1  0.4641110000000  0.4446020000000  0.5014550000000 1.0
C      1  0.4668530000000  0.4570470000000  0.5283350000000 1.0
C      1  0.4940500000000  0.4592000000000  0.5387570000000 1.0
C      1  0.4326750000000  0.5339930000000  0.4251930000000 1.0
C      1  0.4262960000000  0.5366100000000  0.5054330000000 1.0
C      1  0.4417760000000  0.5341400000000  0.5791370000000 1.0
C      1  0.5259180000000  0.5289870000000  0.5908500000000 1.0
C      1  0.5850070000000  0.5307200000000  0.5312870000000 1.0
C      1  0.5818800000000  0.5314240000000  0.4521030000000 1.0
C      1  0.5051970000000  0.5371280000000  0.4288150000000 1.0
C      1  0.3996920000000  0.4575840000000  0.4714720000000 1.0
C      1  0.4174200000000  0.4561730000000  0.5520240000000 1.0
C      1  0.5042950000000  0.4509360000000  0.6115330000000 1.0
C      1  0.5805720000000  0.4572330000000  0.5699990000000 1.0
C      1  0.6044810000000  0.4539320000000  0.4850170000000 1.0
C      1  0.5531850000000  0.4573170000000  0.4082110000000 1.0
C      1  0.4636820000000  0.4558750000000  0.4050410000000 1.0
C      1  0.4466090000000  0.4153850000000  0.5402970000000 1.0
C      1  0.4857080000000  0.4250470000000  0.5719210000000 1.0
C      1  0.5478400000000  0.4222920000000  0.5608640000000 1.0
C      1  0.5693960000000  0.4156200000000  0.4827710000000 1.0
C      1  0.5502410000000  0.4217670000000  0.4408100000000 1.0
C      1  0.4703140000000  0.4164670000000  0.4373700000000 1.0
C      1  0.4314640000000  0.4217900000000  0.4638410000000 1.0
C      1  0.4984350000000  0.4758360000000  0.5016820000000 1.0
C      1  0.4954350000000  0.5764070000000  0.4972500000000 1.0
C      1  0.5004610000000  0.5293440000000  0.4922800000000 1.0
C      1  0.4964530000000  0.5510880000000  0.5098730000000 1.0
C      1  0.4923520000000  0.4485160000000  0.4944470000000 1.0
END
