TITL C-2441161-5029-248 2.70069522926479e-05 125000 -1122.44661930636 0 0 9 (Cs) n - 1
REM
REM in /home/bkarasulu/work/CARBON/AIRSS/Generating-Clusters/ReaxFF-fromJPCA2015/Units_Real/with-SteepDescent/Higher-Symm
REM
REM
REM
REM
REM
REM ./C.cell (1df0a924f5614ab8850e4351716899ee)
REM
REM compiler GCC version 9.2.1 20190827 (Red Hat 9.2.1-1)
REM options -cpp -mtune=generic -march=x86-64 -g -O0 -fpre-include=/usr/include/finclude/math-vector-fortran.h
REM seed -251525309 -1916160255 197504284 -667485121 -1867232569 1119671733 -2091302056 -318681846 -1180975347 1054970279 -1653704388 -252772887 -1655874006 953481252 -1728502268 -957679561 -163700698 1785455012 -1615704552 423953594 -1574449508 407508901 -1088598317 2010320907 1714876251 -438773403 -1632889969 1077025452 220847777 -57416742 2136151353 1554389229 -214604753
REM
CELL 1.54180   50.00000   50.00000   50.00000   90.00000   90.00000   90.00000
LATT -1
SFAC C  
C      1  0.5053460000000  0.4616730000000  0.4954820000000 1.0
C      1  0.5028830000000  0.5558250000000  0.4998690000000 1.0
C      1  0.5365590000000  0.4730400000000  0.4709930000000 1.0
C      1  0.4829940000000  0.4631000000000  0.5124180000000 1.0
C      1  0.4700690000000  0.5174080000000  0.5225570000000 1.0
C      1  0.4698990000000  0.4902700000000  0.5223460000000 1.0
C      1  0.5161780000000  0.5186140000000  0.4880300000000 1.0
C      1  0.5210800000000  0.4884980000000  0.4837790000000 1.0
C      1  0.4949930000000  0.5315720000000  0.5045250000000 1.0
END
