TITL C-2441158-471-604 0.000427605560494747 125000 -6034.02551877944 0 0 41 (C1) n - 1
REM
REM in /home/bkarasulu/work/CARBON/AIRSS/Generating-Clusters/ReaxFF-fromJPCA2015/Units_Real/with-SteepDescent/Higher-Symm
REM
REM
REM
REM
REM
REM ./C.cell (1df0a924f5614ab8850e4351716899ee)
REM
REM compiler GCC version 9.2.1 20190827 (Red Hat 9.2.1-1)
REM options -cpp -mtune=generic -march=x86-64 -g -O0 -fpre-include=/usr/include/finclude/math-vector-fortran.h
REM seed -1530026532 -1130589575 49483357 -1270057203 -1067172588 -148359449 -430273530 1995806779 -270292114 115985601 -2109208059 -1410207937 987276342 -273936691 -2069323084 -1725916429 1274008411 1068567341 -1736319874 -1660370989 -1688348755 -1585417982 -168724505 -314156452 900334934 1978822979 -2053030735 -878994420 -1331210830 156920710 -336926396 -1873781795 1718962283
REM
CELL 1.54180   50.00000   50.00000   50.00000   90.00000   90.00000   90.00000
LATT -1
SFAC C  
C      1  0.5035010000000  0.4566260000000  0.4609780000000 1.0
C      1  0.4649930000000  0.4579180000000  0.5135270000000 1.0
C      1  0.5306380000000  0.4570090000000  0.5216130000000 1.0
C      1  0.5044720000000  0.5462020000000  0.4618540000000 1.0
C      1  0.4642990000000  0.5475470000000  0.5151170000000 1.0
C      1  0.5295000000000  0.5468140000000  0.5224980000000 1.0
C      1  0.5653220000000  0.5169190000000  0.4956910000000 1.0
C      1  0.4634320000000  0.5164950000000  0.4452040000000 1.0
C      1  0.4710270000000  0.5172330000000  0.5601060000000 1.0
C      1  0.5660760000000  0.4871670000000  0.4932210000000 1.0
C      1  0.4612710000000  0.4866640000000  0.4438420000000 1.0
C      1  0.4706500000000  0.4874080000000  0.5574450000000 1.0
C      1  0.4660270000000  0.5228470000000  0.4977580000000 1.0
C      1  0.5078690000000  0.5286280000000  0.5283660000000 1.0
C      1  0.5202010000000  0.5289580000000  0.4787410000000 1.0
C      1  0.4718160000000  0.4757590000000  0.4916290000000 1.0
C      1  0.5142540000000  0.4816940000000  0.5278350000000 1.0
C      1  0.5176660000000  0.4816240000000  0.4710350000000 1.0
C      1  0.4563370000000  0.5304560000000  0.5381330000000 1.0
C      1  0.5494450000000  0.5242500000000  0.5195460000000 1.0
C      1  0.4921920000000  0.5235960000000  0.4463210000000 1.0
C      1  0.4573190000000  0.4803140000000  0.5319040000000 1.0
C      1  0.5543770000000  0.4741940000000  0.5172970000000 1.0
C      1  0.4877970000000  0.4735470000000  0.4422950000000 1.0
C      1  0.4519210000000  0.4863200000000  0.4718870000000 1.0
C      1  0.4997690000000  0.4878020000000  0.5542250000000 1.0
C      1  0.5476860000000  0.4889340000000  0.4706720000000 1.0
C      1  0.4513430000000  0.5156530000000  0.4719190000000 1.0
C      1  0.5001970000000  0.5171610000000  0.5546110000000 1.0
C      1  0.5470840000000  0.5182430000000  0.4722360000000 1.0
C      1  0.4853990000000  0.4370260000000  0.5086010000000 1.0
C      1  0.5149010000000  0.4368970000000  0.5073680000000 1.0
C      1  0.4990700000000  0.4369510000000  0.4821920000000 1.0
C      1  0.4848070000000  0.5673870000000  0.5083890000000 1.0
C      1  0.5144760000000  0.5672340000000  0.5070370000000 1.0
C      1  0.4985140000000  0.5672020000000  0.4821640000000 1.0
C      1  0.5415270000000  0.4973350000000  0.5284960000000 1.0
C      1  0.5042820000000  0.4967630000000  0.4471080000000 1.0
C      1  0.4523450000000  0.5073540000000  0.5211730000000 1.0
C      1  0.5001340000000  0.5176920000000  0.5003760000000 1.0
C      1  0.4990210000000  0.4877680000000  0.4981640000000 1.0
END
