TITL C-2441155-8282-33 0.136142167563011 125000 -18798.9393408343 0 0 152 (C1) n - 1
REM
REM in /home/bkarasulu/work/CARBON/AIRSS/Generating-Clusters/ReaxFF-fromJPCA2015/Units_Real/with-SteepDescent/Higher-Symm
REM
REM
REM
REM
REM
REM ./C.cell (1df0a924f5614ab8850e4351716899ee)
REM
REM compiler GCC version 9.2.1 20190827 (Red Hat 9.2.1-1)
REM options -cpp -mtune=generic -march=x86-64 -g -O0 -fpre-include=/usr/include/finclude/math-vector-fortran.h
REM seed -1861739631 785144753 393734092 -289422999 -327945428 -1985048362 -1005765083 -678088558 -1051105201 -1780871095 -302246892 1517146577 449119149 1544550956 -798777459 -1967137992 -1309458170 -715154360 -1707277432 -945075326 2126287337 -2060006249 -675776827 -1334852462 -287968201 -1279857617 98715229 1014489662 -603324396 19640785 -928698932 -1410815465 56722443
REM
CELL 1.54180   50.00000   50.00000   50.00000   90.00000   90.00000   90.00000
LATT -1
SFAC C  
C      1  0.4898280000000  0.4697660000000  0.5569580000000 1.0
C      1  0.5195430000000  0.4735550000000  0.5598880000000 1.0
C      1  0.5347180000000  0.4981540000000  0.5629620000000 1.0
C      1  0.5202090000000  0.5220030000000  0.5499310000000 1.0
C      1  0.4958670000000  0.5319610000000  0.5617490000000 1.0
C      1  0.4729860000000  0.5188960000000  0.5586130000000 1.0
C      1  0.4717920000000  0.4915460000000  0.5615480000000 1.0
C      1  0.4911740000000  0.4355500000000  0.4328010000000 1.0
C      1  0.5384260000000  0.4545870000000  0.4328180000000 1.0
C      1  0.5596200000000  0.4988510000000  0.4275250000000 1.0
C      1  0.5356290000000  0.5472340000000  0.4265360000000 1.0
C      1  0.4885710000000  0.5644500000000  0.4279770000000 1.0
C      1  0.4407620000000  0.5213820000000  0.4378760000000 1.0
C      1  0.4442010000000  0.4732180000000  0.4265450000000 1.0
C      1  0.5214500000000  0.4710740000000  0.4159730000000 1.0
C      1  0.5349780000000  0.4994620000000  0.4125120000000 1.0
C      1  0.5222200000000  0.5268200000000  0.4121690000000 1.0
C      1  0.4909870000000  0.5350610000000  0.4199220000000 1.0
C      1  0.4634900000000  0.5162690000000  0.4203230000000 1.0
C      1  0.4673310000000  0.4891130000000  0.4118560000000 1.0
C      1  0.4927460000000  0.4629950000000  0.4217140000000 1.0
C      1  0.5030240000000  0.4640290000000  0.4847180000000 1.0
C      1  0.5500160000000  0.4999270000000  0.4945390000000 1.0
C      1  0.5272340000000  0.5227380000000  0.4853260000000 1.0
C      1  0.4870710000000  0.5442600000000  0.4999400000000 1.0
C      1  0.4759460000000  0.5239470000000  0.4883040000000 1.0
C      1  0.4613600000000  0.4747910000000  0.4884080000000 1.0
C      1  0.4851620000000  0.4659390000000  0.5011620000000 1.0
C      1  0.5826240000000  0.5463290000000  0.5323730000000 1.0
C      1  0.5111060000000  0.5950240000000  0.5257730000000 1.0
C      1  0.4345510000000  0.5674230000000  0.5280780000000 1.0
C      1  0.4055780000000  0.4942930000000  0.5278000000000 1.0
C      1  0.4426360000000  0.4211070000000  0.5299240000000 1.0
C      1  0.5332060000000  0.4077730000000  0.5284500000000 1.0
C      1  0.5864210000000  0.4628310000000  0.5271440000000 1.0
C      1  0.4862070000000  0.4770470000000  0.4483590000000 1.0
C      1  0.5122620000000  0.4675530000000  0.4626910000000 1.0
C      1  0.5270540000000  0.4917490000000  0.4545930000000 1.0
C      1  0.5360930000000  0.5182190000000  0.4587940000000 1.0
C      1  0.4949660000000  0.5254940000000  0.4472160000000 1.0
C      1  0.4733860000000  0.5180770000000  0.4633840000000 1.0
C      1  0.4631940000000  0.4901550000000  0.4639130000000 1.0
C      1  0.5615150000000  0.5854310000000  0.4787470000000 1.0
C      1  0.4687670000000  0.6018620000000  0.4805080000000 1.0
C      1  0.4090610000000  0.5374310000000  0.4780500000000 1.0
C      1  0.4076880000000  0.4498720000000  0.4767470000000 1.0
C      1  0.4866940000000  0.4008080000000  0.4749320000000 1.0
C      1  0.5684490000000  0.4241800000000  0.4789730000000 1.0
C      1  0.5993300000000  0.5082180000000  0.4780260000000 1.0
C      1  0.4793970000000  0.3920400000000  0.5015310000000 1.0
C      1  0.5679060000000  0.4170360000000  0.5089970000000 1.0
C      1  0.6081640000000  0.5037940000000  0.5063890000000 1.0
C      1  0.5642280000000  0.5876590000000  0.5067400000000 1.0
C      1  0.4737270000000  0.6025350000000  0.5106870000000 1.0
C      1  0.4075640000000  0.5437820000000  0.5080250000000 1.0
C      1  0.4055570000000  0.4487740000000  0.5071410000000 1.0
C      1  0.4950170000000  0.5389550000000  0.5239380000000 1.0
C      1  0.4624800000000  0.5176750000000  0.5273630000000 1.0
C      1  0.4592760000000  0.4917720000000  0.5248670000000 1.0
C      1  0.4985000000000  0.4534130000000  0.5254620000000 1.0
C      1  0.5275190000000  0.4622680000000  0.5225040000000 1.0
C      1  0.5321830000000  0.4877210000000  0.5143310000000 1.0
C      1  0.5209840000000  0.5414020000000  0.5262240000000 1.0
C      1  0.5882970000000  0.4400670000000  0.5106400000000 1.0
C      1  0.5947080000000  0.5294010000000  0.5118030000000 1.0
C      1  0.5360490000000  0.6004420000000  0.5089030000000 1.0
C      1  0.4456380000000  0.5893870000000  0.5118360000000 1.0
C      1  0.3968200000000  0.5157030000000  0.5108690000000 1.0
C      1  0.4250060000000  0.4285240000000  0.5095090000000 1.0
C      1  0.5086890000000  0.4025850000000  0.5107990000000 1.0
C      1  0.5258520000000  0.4218080000000  0.4638790000000 1.0
C      1  0.5809510000000  0.4676910000000  0.4629270000000 1.0
C      1  0.5713100000000  0.5451080000000  0.4643500000000 1.0
C      1  0.5140170000000  0.5847520000000  0.4606870000000 1.0
C      1  0.4430860000000  0.5646030000000  0.4617760000000 1.0
C      1  0.4143940000000  0.4931270000000  0.4633740000000 1.0
C      1  0.4518040000000  0.4321590000000  0.4626390000000 1.0
C      1  0.4163940000000  0.4730810000000  0.5146650000000 1.0
C      1  0.4631460000000  0.4156430000000  0.5088570000000 1.0
C      1  0.5459960000000  0.4258370000000  0.5161670000000 1.0
C      1  0.5875660000000  0.4879100000000  0.5169000000000 1.0
C      1  0.5643860000000  0.5595500000000  0.5142270000000 1.0
C      1  0.4908060000000  0.5832580000000  0.5142840000000 1.0
C      1  0.4335020000000  0.5466850000000  0.5108160000000 1.0
C      1  0.4261390000000  0.4964340000000  0.4366570000000 1.0
C      1  0.4496420000000  0.4485020000000  0.4389260000000 1.0
C      1  0.5195820000000  0.4319230000000  0.4374820000000 1.0
C      1  0.5637310000000  0.4719810000000  0.4384330000000 1.0
C      1  0.5571450000000  0.5288590000000  0.4410080000000 1.0
C      1  0.5170520000000  0.5675950000000  0.4365500000000 1.0
C      1  0.4599210000000  0.5676150000000  0.4369910000000 1.0
C      1  0.4783490000000  0.4232160000000  0.4568300000000 1.0
C      1  0.5451980000000  0.4423110000000  0.4724110000000 1.0
C      1  0.5744140000000  0.4939790000000  0.4719230000000 1.0
C      1  0.5490240000000  0.5607100000000  0.4752960000000 1.0
C      1  0.4846030000000  0.5801570000000  0.4665200000000 1.0
C      1  0.4355090000000  0.5365550000000  0.4645980000000 1.0
C      1  0.4281910000000  0.4676220000000  0.4658810000000 1.0
C      1  0.4492620000000  0.4370950000000  0.5538160000000 1.0
C      1  0.5203300000000  0.4167130000000  0.5542160000000 1.0
C      1  0.5716690000000  0.4651760000000  0.5523370000000 1.0
C      1  0.5692830000000  0.5315910000000  0.5520680000000 1.0
C      1  0.5175240000000  0.5802060000000  0.5537160000000 1.0
C      1  0.4481760000000  0.5634940000000  0.5551840000000 1.0
C      1  0.4167950000000  0.4994190000000  0.5546780000000 1.0
C      1  0.4730790000000  0.4344220000000  0.5744880000000 1.0
C      1  0.5333170000000  0.4341780000000  0.5767800000000 1.0
C      1  0.5733240000000  0.4880410000000  0.5708520000000 1.0
C      1  0.5583530000000  0.5487210000000  0.5649730000000 1.0
C      1  0.4978360000000  0.5712490000000  0.5741360000000 1.0
C      1  0.4416850000000  0.5402050000000  0.5751250000000 1.0
C      1  0.4323040000000  0.4817530000000  0.5765130000000 1.0
C      1  0.4934420000000  0.4285940000000  0.5125020000000 1.0
C      1  0.5405580000000  0.4491090000000  0.5012190000000 1.0
C      1  0.5689420000000  0.5095360000000  0.5147310000000 1.0
C      1  0.5389190000000  0.5481980000000  0.5033340000000 1.0
C      1  0.4885030000000  0.5671750000000  0.4926550000000 1.0
C      1  0.4481160000000  0.5239050000000  0.5019600000000 1.0
C      1  0.4442990000000  0.4733240000000  0.5113360000000 1.0
C      1  0.4857570000000  0.4592110000000  0.5855910000000 1.0
C      1  0.5158380000000  0.4579540000000  0.5848740000000 1.0
C      1  0.5397270000000  0.5084510000000  0.5914850000000 1.0
C      1  0.5227100000000  0.5317510000000  0.5992250000000 1.0
C      1  0.4963500000000  0.5421890000000  0.5888320000000 1.0
C      1  0.4630110000000  0.5224230000000  0.5866880000000 1.0
C      1  0.4586460000000  0.4919750000000  0.5881970000000 1.0
C      1  0.4440820000000  0.5869610000000  0.4827770000000 1.0
C      1  0.3995980000000  0.5105200000000  0.4820950000000 1.0
C      1  0.4423690000000  0.4224930000000  0.4886740000000 1.0
C      1  0.5140730000000  0.4016410000000  0.4811950000000 1.0
C      1  0.5879860000000  0.4451510000000  0.4816410000000 1.0
C      1  0.5927500000000  0.5363350000000  0.4810400000000 1.0
C      1  0.5226840000000  0.5955510000000  0.4854520000000 1.0
C      1  0.5373660000000  0.5644920000000  0.5616900000000 1.0
C      1  0.4730390000000  0.5702200000000  0.5624480000000 1.0
C      1  0.4273300000000  0.5213560000000  0.5628150000000 1.0
C      1  0.4398230000000  0.4589470000000  0.5641910000000 1.0
C      1  0.4953460000000  0.4229290000000  0.5620180000000 1.0
C      1  0.5533090000000  0.4506980000000  0.5672470000000 1.0
C      1  0.5741190000000  0.5110800000000  0.5674590000000 1.0
C      1  0.5007690000000  0.5001360000000  0.3267200000000 1.0
C      1  0.5026700000000  0.4998310000000  0.4429940000000 1.0
C      1  0.5004170000000  0.5018860000000  0.5375850000000 1.0
C      1  0.5069550000000  0.4968410000000  0.5117940000000 1.0
C      1  0.4992230000000  0.4997890000000  0.5833640000000 1.0
C      1  0.4953900000000  0.4985310000000  0.3999140000000 1.0
C      1  0.4983920000000  0.4987700000000  0.6110730000000 1.0
C      1  0.4977950000000  0.4994430000000  0.3764740000000 1.0
C      1  0.5004100000000  0.5004480000000  0.3507970000000 1.0
C      1  0.5012080000000  0.5095570000000  0.4894530000000 1.0
C      1  0.4989480000000  0.4987140000000  0.6361720000000 1.0
C      1  0.5002150000000  0.4995030000000  0.6601920000000 1.0
END
