TITL C-2441158-471-1416 0.0851393108968525 125000 -25552.7316160097 0 0 185 (C1) n - 1
REM
REM in /home/bkarasulu/work/CARBON/AIRSS/Generating-Clusters/ReaxFF-fromJPCA2015/Units_Real/with-SteepDescent/Higher-Symm
REM
REM
REM
REM
REM
REM ./C.cell (1df0a924f5614ab8850e4351716899ee)
REM
REM compiler GCC version 9.2.1 20190827 (Red Hat 9.2.1-1)
REM options -cpp -mtune=generic -march=x86-64 -g -O0 -fpre-include=/usr/include/finclude/math-vector-fortran.h
REM seed -437623965 -628101995 630308536 640350131 1095578785 1143625410 -938955694 -464508415 -873909768 -394129895 -245079790 1743574767 -1675501028 -934889091 1880032013 -81079778 -1766885174 -2105291926 -986163953 -1240879401 -706278206 269678970 -494584607 -2000138922 -1631531896 824058382 572395700 -1055816458 585316678 628231496 -2026077641 -697722761 483586324
REM
CELL 1.54180   50.00000   50.00000   50.00000   90.00000   90.00000   90.00000
LATT -1
SFAC C  
C      1  0.5348030000000  0.3884340000000  0.4803860000000 1.0
C      1  0.5189880000000  0.3910640000000  0.5350320000000 1.0
C      1  0.4634770000000  0.3899410000000  0.5221750000000 1.0
C      1  0.4797430000000  0.3899260000000  0.4676750000000 1.0
C      1  0.5331450000000  0.6083640000000  0.4788550000000 1.0
C      1  0.5227210000000  0.6094220000000  0.5342340000000 1.0
C      1  0.4680490000000  0.6102750000000  0.5205010000000 1.0
C      1  0.4772890000000  0.6048620000000  0.4641040000000 1.0
C      1  0.5314050000000  0.5920460000000  0.5567210000000 1.0
C      1  0.4492070000000  0.5909110000000  0.5340270000000 1.0
C      1  0.4621850000000  0.5864140000000  0.4437550000000 1.0
C      1  0.5554060000000  0.5897710000000  0.4703710000000 1.0
C      1  0.5299320000000  0.4102240000000  0.5549760000000 1.0
C      1  0.4431670000000  0.4095710000000  0.5310290000000 1.0
C      1  0.4712480000000  0.4086310000000  0.4462220000000 1.0
C      1  0.5553770000000  0.4078510000000  0.4696560000000 1.0
C      1  0.5793850000000  0.5220080000000  0.4442630000000 1.0
C      1  0.5477450000000  0.5272390000000  0.5802000000000 1.0
C      1  0.4228220000000  0.5231000000000  0.5516650000000 1.0
C      1  0.4465650000000  0.5262420000000  0.4222900000000 1.0
C      1  0.5814070000000  0.4721310000000  0.4516590000000 1.0
C      1  0.5556530000000  0.4777470000000  0.5742220000000 1.0
C      1  0.4116060000000  0.4692600000000  0.5620220000000 1.0
C      1  0.4414300000000  0.4758600000000  0.4233500000000 1.0
C      1  0.4423820000000  0.4851520000000  0.5268750000000 1.0
C      1  0.4695480000000  0.4834520000000  0.4411430000000 1.0
C      1  0.5643260000000  0.4865180000000  0.4706910000000 1.0
C      1  0.5293230000000  0.4878470000000  0.5575800000000 1.0
C      1  0.4423220000000  0.5138440000000  0.5270680000000 1.0
C      1  0.4685030000000  0.5139770000000  0.4404080000000 1.0
C      1  0.5588240000000  0.5134880000000  0.4681550000000 1.0
C      1  0.5282480000000  0.5180620000000  0.5590750000000 1.0
C      1  0.4655930000000  0.3955580000000  0.4929290000000 1.0
C      1  0.5092190000000  0.3912190000000  0.4661350000000 1.0
C      1  0.5313980000000  0.3960250000000  0.5087630000000 1.0
C      1  0.4900560000000  0.3959610000000  0.5343280000000 1.0
C      1  0.4673180000000  0.6035810000000  0.4916900000000 1.0
C      1  0.5067180000000  0.6042370000000  0.4662930000000 1.0
C      1  0.5335650000000  0.6022220000000  0.5075400000000 1.0
C      1  0.4939070000000  0.6058660000000  0.5325900000000 1.0
C      1  0.5192130000000  0.5120820000000  0.4333520000000 1.0
C      1  0.5580590000000  0.5166600000000  0.5184280000000 1.0
C      1  0.4637230000000  0.5128680000000  0.5703310000000 1.0
C      1  0.4325210000000  0.5161440000000  0.4788270000000 1.0
C      1  0.5195360000000  0.4816720000000  0.4291450000000 1.0
C      1  0.5717950000000  0.4911930000000  0.5195880000000 1.0
C      1  0.4776210000000  0.4869400000000  0.5658450000000 1.0
C      1  0.4248860000000  0.4886230000000  0.4802780000000 1.0
C      1  0.5711330000000  0.4466310000000  0.4408150000000 1.0
C      1  0.5641680000000  0.4501040000000  0.5625400000000 1.0
C      1  0.4330830000000  0.4493500000000  0.5632480000000 1.0
C      1  0.4394240000000  0.4447240000000  0.4276590000000 1.0
C      1  0.5700210000000  0.5498600000000  0.4354330000000 1.0
C      1  0.5574060000000  0.5536220000000  0.5739390000000 1.0
C      1  0.4339390000000  0.5515620000000  0.5623030000000 1.0
C      1  0.4385720000000  0.5542100000000  0.4318850000000 1.0
C      1  0.5254600000000  0.5609190000000  0.4396260000000 1.0
C      1  0.5605340000000  0.5610880000000  0.5251630000000 1.0
C      1  0.4857500000000  0.5495400000000  0.5581110000000 1.0
C      1  0.4404570000000  0.5626140000000  0.4803940000000 1.0
C      1  0.5244730000000  0.4466020000000  0.4414630000000 1.0
C      1  0.5529710000000  0.4358010000000  0.5163650000000 1.0
C      1  0.4780480000000  0.4356980000000  0.5573850000000 1.0
C      1  0.4406600000000  0.4390170000000  0.4768720000000 1.0
C      1  0.3990970000000  0.4658480000000  0.5059350000000 1.0
C      1  0.4902200000000  0.4650800000000  0.3986870000000 1.0
C      1  0.5976880000000  0.4664970000000  0.4976280000000 1.0
C      1  0.5078090000000  0.4669380000000  0.5988800000000 1.0
C      1  0.4011590000000  0.5338600000000  0.5076410000000 1.0
C      1  0.4899270000000  0.5324960000000  0.4024520000000 1.0
C      1  0.5967840000000  0.5325650000000  0.4934980000000 1.0
C      1  0.5071140000000  0.5299580000000  0.5976530000000 1.0
C      1  0.4266510000000  0.4753440000000  0.5053180000000 1.0
C      1  0.4918680000000  0.4738280000000  0.4260070000000 1.0
C      1  0.5673610000000  0.4737470000000  0.4948970000000 1.0
C      1  0.5063250000000  0.4749550000000  0.5704510000000 1.0
C      1  0.4283580000000  0.5240650000000  0.5050760000000 1.0
C      1  0.4926880000000  0.5222840000000  0.4292340000000 1.0
C      1  0.5654130000000  0.5296100000000  0.4928070000000 1.0
C      1  0.5019410000000  0.5264530000000  0.5692670000000 1.0
C      1  0.4723420000000  0.4237550000000  0.4997250000000 1.0
C      1  0.5091520000000  0.4196640000000  0.4735210000000 1.0
C      1  0.5157820000000  0.4194440000000  0.5015800000000 1.0
C      1  0.4934230000000  0.4202300000000  0.5182930000000 1.0
C      1  0.4779220000000  0.5765770000000  0.5000080000000 1.0
C      1  0.5035440000000  0.5770270000000  0.4786820000000 1.0
C      1  0.5232630000000  0.5746760000000  0.5018020000000 1.0
C      1  0.4987170000000  0.5774030000000  0.5223700000000 1.0
C      1  0.4431540000000  0.4631710000000  0.5881330000000 1.0
C      1  0.4121130000000  0.4466400000000  0.4256480000000 1.0
C      1  0.5670730000000  0.4591120000000  0.4157430000000 1.0
C      1  0.5866210000000  0.4630900000000  0.5497330000000 1.0
C      1  0.4369210000000  0.5424950000000  0.5896300000000 1.0
C      1  0.4122300000000  0.5407570000000  0.4382850000000 1.0
C      1  0.5603430000000  0.5373040000000  0.4104610000000 1.0
C      1  0.5849130000000  0.5428690000000  0.5717150000000 1.0
C      1  0.4537300000000  0.5604790000000  0.5061640000000 1.0
C      1  0.4997030000000  0.5604220000000  0.4541090000000 1.0
C      1  0.5516180000000  0.5579130000000  0.4972590000000 1.0
C      1  0.5052870000000  0.5642140000000  0.5461610000000 1.0
C      1  0.4499750000000  0.4396790000000  0.5035870000000 1.0
C      1  0.4992580000000  0.4384400000000  0.4537860000000 1.0
C      1  0.5434940000000  0.4506260000000  0.4908530000000 1.0
C      1  0.5034700000000  0.4495570000000  0.5534990000000 1.0
C      1  0.6094300000000  0.4824800000000  0.4531410000000 1.0
C      1  0.5510860000000  0.4860620000000  0.6030610000000 1.0
C      1  0.3930010000000  0.4848260000000  0.5473420000000 1.0
C      1  0.4481600000000  0.4872400000000  0.3954970000000 1.0
C      1  0.6076420000000  0.5116260000000  0.4521580000000 1.0
C      1  0.5489660000000  0.5140960000000  0.6047810000000 1.0
C      1  0.3953530000000  0.5130520000000  0.5478870000000 1.0
C      1  0.4499740000000  0.5161340000000  0.3949000000000 1.0
C      1  0.4874080000000  0.4293390000000  0.5841020000000 1.0
C      1  0.4143440000000  0.4307280000000  0.4860840000000 1.0
C      1  0.5153660000000  0.4328080000000  0.4166960000000 1.0
C      1  0.5817850000000  0.4298170000000  0.5122790000000 1.0
C      1  0.4874460000000  0.5654720000000  0.5833280000000 1.0
C      1  0.4162420000000  0.5749060000000  0.4907440000000 1.0
C      1  0.5113760000000  0.5709010000000  0.4160200000000 1.0
C      1  0.5861950000000  0.5696740000000  0.5152830000000 1.0
C      1  0.5717190000000  0.5114210000000  0.4161860000000 1.0
C      1  0.5929090000000  0.5152410000000  0.5608820000000 1.0
C      1  0.4339070000000  0.5103860000000  0.5745400000000 1.0
C      1  0.4178470000000  0.5138260000000  0.4292160000000 1.0
C      1  0.5620660000000  0.4849270000000  0.4051710000000 1.0
C      1  0.5814330000000  0.4879720000000  0.5630560000000 1.0
C      1  0.4235860000000  0.4844900000000  0.5832150000000 1.0
C      1  0.4136690000000  0.4857360000000  0.4350130000000 1.0
C      1  0.4679950000000  0.4784920000000  0.5931840000000 1.0
C      1  0.4066780000000  0.4762250000000  0.4625370000000 1.0
C      1  0.5330320000000  0.4774680000000  0.4026590000000 1.0
C      1  0.5991550000000  0.4949900000000  0.5250600000000 1.0
C      1  0.4675550000000  0.5191740000000  0.5980760000000 1.0
C      1  0.4085770000000  0.5337880000000  0.4660030000000 1.0
C      1  0.5329330000000  0.5277520000000  0.4096190000000 1.0
C      1  0.6066640000000  0.5208570000000  0.5348430000000 1.0
C      1  0.4880330000000  0.4652350000000  0.4867720000000 1.0
C      1  0.5185670000000  0.4648380000000  0.4829160000000 1.0
C      1  0.5100630000000  0.4590980000000  0.5278350000000 1.0
C      1  0.4853300000000  0.4646840000000  0.5151790000000 1.0
C      1  0.4846330000000  0.5343910000000  0.4818170000000 1.0
C      1  0.5137200000000  0.5343620000000  0.4810720000000 1.0
C      1  0.5132850000000  0.5291910000000  0.5107700000000 1.0
C      1  0.4839090000000  0.5345550000000  0.5113880000000 1.0
C      1  0.4513210000000  0.4349060000000  0.5451330000000 1.0
C      1  0.4538750000000  0.4313510000000  0.4514170000000 1.0
C      1  0.5491060000000  0.4362180000000  0.4598520000000 1.0
C      1  0.5478910000000  0.4326370000000  0.5455450000000 1.0
C      1  0.4554220000000  0.5648760000000  0.5466420000000 1.0
C      1  0.4500910000000  0.5641240000000  0.4540740000000 1.0
C      1  0.5520070000000  0.5685180000000  0.4489740000000 1.0
C      1  0.5442530000000  0.5660760000000  0.5493030000000 1.0
C      1  0.3972680000000  0.4535530000000  0.4795290000000 1.0
C      1  0.5170970000000  0.4537480000000  0.3958790000000 1.0
C      1  0.5978030000000  0.4532980000000  0.5235710000000 1.0
C      1  0.4820770000000  0.4537980000000  0.6011660000000 1.0
C      1  0.3977810000000  0.5528180000000  0.4851180000000 1.0
C      1  0.5147750000000  0.5473120000000  0.3984230000000 1.0
C      1  0.6039900000000  0.5461350000000  0.5175320000000 1.0
C      1  0.4818100000000  0.5441870000000  0.6034520000000 1.0
C      1  0.5181170000000  0.4935400000000  0.4833220000000 1.0
C      1  0.5239210000000  0.4837460000000  0.5283750000000 1.0
C      1  0.4704160000000  0.4834980000000  0.5318390000000 1.0
C      1  0.4723670000000  0.4836910000000  0.4709190000000 1.0
C      1  0.5279990000000  0.5150360000000  0.4644500000000 1.0
C      1  0.5347590000000  0.5248520000000  0.5310380000000 1.0
C      1  0.4731970000000  0.5120360000000  0.5249210000000 1.0
C      1  0.4651000000000  0.5127160000000  0.4714020000000 1.0
C      1  0.5071720000000  0.5819770000000  0.5701100000000 1.0
C      1  0.4293810000000  0.5770250000000  0.5170550000000 1.0
C      1  0.4880690000000  0.5786630000000  0.4327460000000 1.0
C      1  0.5740570000000  0.5766690000000  0.4889240000000 1.0
C      1  0.5146470000000  0.4253920000000  0.5742660000000 1.0
C      1  0.4257190000000  0.4257340000000  0.5134330000000 1.0
C      1  0.4892830000000  0.4249780000000  0.4293850000000 1.0
C      1  0.5755190000000  0.4179220000000  0.4870590000000 1.0
C      1  0.3825630000000  0.4847920000000  0.5207190000000 1.0
C      1  0.4746560000000  0.4848450000000  0.3833460000000 1.0
C      1  0.6158480000000  0.4835260000000  0.4819090000000 1.0
C      1  0.5245080000000  0.4835070000000  0.6151880000000 1.0
C      1  0.3833850000000  0.5148320000000  0.5213910000000 1.0
C      1  0.4766030000000  0.5149270000000  0.3830900000000 1.0
C      1  0.6150870000000  0.5139070000000  0.4802740000000 1.0
C      1  0.5230180000000  0.5131490000000  0.6160440000000 1.0
C      1  0.5084520000000  0.5003800000000  0.5096150000000 1.0
END
