TITL C-2441159-1093-1338 0.0842471566421755 125000 -20305.8722962279 0 0 153 (C1) n - 1
REM
REM in /home/bkarasulu/work/CARBON/AIRSS/Generating-Clusters/ReaxFF-fromJPCA2015/Units_Real/with-SteepDescent/Higher-Symm
REM
REM
REM
REM
REM
REM ./C.cell (1df0a924f5614ab8850e4351716899ee)
REM
REM compiler GCC version 9.2.1 20190827 (Red Hat 9.2.1-1)
REM options -cpp -mtune=generic -march=x86-64 -g -O0 -fpre-include=/usr/include/finclude/math-vector-fortran.h
REM seed 553535582 -1723792750 -441848763 -1058081266 1121050082 1482835312 209976194 2013113873 -905652222 -1456058862 -1539073600 -606090359 -1708798334 690446846 959405222 -818330431 1652429047 48806253 -1921171080 -959959318 2147214817 1703998204 2122133704 -1866237421 -140835846 -102037927 -39731597 392183646 1486533865 -1430946836 2028761806 -775434582 -1881849896
REM
CELL 1.54180   50.00000   50.00000   50.00000   90.00000   90.00000   90.00000
LATT -1
SFAC C  
C      1  0.4328650000000  0.5712300000000  0.4984040000000 1.0
C      1  0.5667530000000  0.5562120000000  0.5376770000000 1.0
C      1  0.4334380000000  0.5251880000000  0.5674530000000 1.0
C      1  0.5661030000000  0.4808780000000  0.5702040000000 1.0
C      1  0.4307660000000  0.4433420000000  0.5398810000000 1.0
C      1  0.5667390000000  0.4319680000000  0.5019630000000 1.0
C      1  0.4329250000000  0.4405090000000  0.4612060000000 1.0
C      1  0.5666140000000  0.4761560000000  0.4340970000000 1.0
C      1  0.4306710000000  0.5169410000000  0.4367420000000 1.0
C      1  0.5668230000000  0.5542420000000  0.4561560000000 1.0
C      1  0.4128530000000  0.4674250000000  0.4974130000000 1.0
C      1  0.5724550000000  0.4839060000000  0.4785040000000 1.0
C      1  0.4112530000000  0.4893390000000  0.4781420000000 1.0
C      1  0.5830330000000  0.5132730000000  0.4752420000000 1.0
C      1  0.4150040000000  0.5339150000000  0.4891240000000 1.0
C      1  0.5883460000000  0.5251780000000  0.5009640000000 1.0
C      1  0.4175340000000  0.5143540000000  0.5261910000000 1.0
C      1  0.5669140000000  0.5036660000000  0.5350650000000 1.0
C      1  0.4349400000000  0.4912420000000  0.5316800000000 1.0
C      1  0.5863480000000  0.4745270000000  0.5039800000000 1.0
C      1  0.5117740000000  0.4738960000000  0.4706110000000 1.0
C      1  0.4948430000000  0.4965160000000  0.4602340000000 1.0
C      1  0.5069300000000  0.5221140000000  0.4657780000000 1.0
C      1  0.4924720000000  0.5380400000000  0.4843220000000 1.0
C      1  0.5067600000000  0.5392940000000  0.5088760000000 1.0
C      1  0.4934500000000  0.5271670000000  0.5306880000000 1.0
C      1  0.5092790000000  0.5035280000000  0.5418700000000 1.0
C      1  0.4908460000000  0.4795980000000  0.5366470000000 1.0
C      1  0.5054810000000  0.4682650000000  0.5150810000000 1.0
C      1  0.4936640000000  0.4606810000000  0.4902830000000 1.0
C      1  0.4426680000000  0.4886440000000  0.6007880000000 1.0
C      1  0.5552900000000  0.4323760000000  0.5667820000000 1.0
C      1  0.4460630000000  0.4013660000000  0.5170530000000 1.0
C      1  0.5559960000000  0.4092460000000  0.4568890000000 1.0
C      1  0.4460990000000  0.4592610000000  0.4140600000000 1.0
C      1  0.5530940000000  0.5135650000000  0.4022360000000 1.0
C      1  0.4438920000000  0.5678710000000  0.4310530000000 1.0
C      1  0.5558880000000  0.5957480000000  0.4857380000000 1.0
C      1  0.4446200000000  0.5903710000000  0.5439140000000 1.0
C      1  0.5560170000000  0.5509710000000  0.5893010000000 1.0
C      1  0.4543790000000  0.5366410000000  0.5851860000000 1.0
C      1  0.5452430000000  0.4776700000000  0.5905280000000 1.0
C      1  0.4511020000000  0.4328200000000  0.5586550000000 1.0
C      1  0.5473790000000  0.4108020000000  0.5089580000000 1.0
C      1  0.4538920000000  0.4224440000000  0.4522050000000 1.0
C      1  0.5471040000000  0.4637770000000  0.4163460000000 1.0
C      1  0.4496530000000  0.5197770000000  0.4136000000000 1.0
C      1  0.5458140000000  0.5684460000000  0.4415830000000 1.0
C      1  0.4524760000000  0.5916610000000  0.4922240000000 1.0
C      1  0.5473450000000  0.5773460000000  0.5448070000000 1.0
C      1  0.5028750000000  0.5708160000000  0.5175400000000 1.0
C      1  0.4977600000000  0.5482360000000  0.5564630000000 1.0
C      1  0.5029450000000  0.5058250000000  0.5760280000000 1.0
C      1  0.4954650000000  0.4618540000000  0.5610850000000 1.0
C      1  0.5032230000000  0.4313290000000  0.5289780000000 1.0
C      1  0.4982740000000  0.4294700000000  0.4822380000000 1.0
C      1  0.5040550000000  0.4519470000000  0.4440510000000 1.0
C      1  0.5008530000000  0.4930520000000  0.4318690000000 1.0
C      1  0.5015940000000  0.5384240000000  0.4373990000000 1.0
C      1  0.4965370000000  0.5683300000000  0.4734220000000 1.0
C      1  0.5407140000000  0.5231640000000  0.5643440000000 1.0
C      1  0.4577110000000  0.4820200000000  0.5635040000000 1.0
C      1  0.5414020000000  0.4579270000000  0.5369210000000 1.0
C      1  0.4592790000000  0.4372800000000  0.5025050000000 1.0
C      1  0.5407810000000  0.4460000000000  0.4621370000000 1.0
C      1  0.4583110000000  0.4776810000000  0.4483380000000 1.0
C      1  0.5405900000000  0.5171100000000  0.4403220000000 1.0
C      1  0.4571080000000  0.5446400000000  0.4623490000000 1.0
C      1  0.5425220000000  0.5556920000000  0.4948780000000 1.0
C      1  0.4594160000000  0.5530570000000  0.5380990000000 1.0
C      1  0.4957070000000  0.4749060000000  0.4089970000000 1.0
C      1  0.5018400000000  0.5273520000000  0.4081720000000 1.0
C      1  0.4953520000000  0.5801850000000  0.4446200000000 1.0
C      1  0.5039040000000  0.5989010000000  0.5025730000000 1.0
C      1  0.4945990000000  0.5785640000000  0.5587750000000 1.0
C      1  0.5057190000000  0.5308690000000  0.5938380000000 1.0
C      1  0.4920420000000  0.4676310000000  0.5928760000000 1.0
C      1  0.5029080000000  0.4204340000000  0.5569500000000 1.0
C      1  0.4949190000000  0.4030550000000  0.4978430000000 1.0
C      1  0.5054870000000  0.4217630000000  0.4409850000000 1.0
C      1  0.4727200000000  0.5135770000000  0.5133310000000 1.0
C      1  0.5381030000000  0.5048150000000  0.5259330000000 1.0
C      1  0.4635400000000  0.4860540000000  0.5209310000000 1.0
C      1  0.5347750000000  0.4769130000000  0.5136590000000 1.0
C      1  0.4652730000000  0.4709460000000  0.4940770000000 1.0
C      1  0.5378390000000  0.4843670000000  0.4822560000000 1.0
C      1  0.4652110000000  0.4930500000000  0.4722960000000 1.0
C      1  0.5339390000000  0.5134480000000  0.4751950000000 1.0
C      1  0.4643770000000  0.5246060000000  0.4834110000000 1.0
C      1  0.5340140000000  0.5284600000000  0.5028810000000 1.0
C      1  0.5789960000000  0.4507990000000  0.5186600000000 1.0
C      1  0.4207080000000  0.4419740000000  0.4868610000000 1.0
C      1  0.5767230000000  0.4630480000000  0.4570820000000 1.0
C      1  0.4201610000000  0.4938310000000  0.4499310000000 1.0
C      1  0.5779210000000  0.5285120000000  0.4516650000000 1.0
C      1  0.4188620000000  0.5574880000000  0.4769650000000 1.0
C      1  0.5793190000000  0.5515550000000  0.5121320000000 1.0
C      1  0.4214910000000  0.5376200000000  0.5432820000000 1.0
C      1  0.5773590000000  0.5063700000000  0.5624540000000 1.0
C      1  0.4198200000000  0.4669150000000  0.5276230000000 1.0
C      1  0.5245830000000  0.4581850000000  0.5598410000000 1.0
C      1  0.4748500000000  0.4323200000000  0.5257950000000 1.0
C      1  0.5270580000000  0.4306250000000  0.4808480000000 1.0
C      1  0.4751160000000  0.4562420000000  0.4419160000000 1.0
C      1  0.5266570000000  0.4962040000000  0.4283950000000 1.0
C      1  0.4730780000000  0.5410540000000  0.4386990000000 1.0
C      1  0.5259790000000  0.5701300000000  0.4772950000000 1.0
C      1  0.4740560000000  0.5698730000000  0.5199660000000 1.0
C      1  0.5262220000000  0.5460140000000  0.5574350000000 1.0
C      1  0.4742560000000  0.5031210000000  0.5746850000000 1.0
C      1  0.4625970000000  0.4680250000000  0.5908510000000 1.0
C      1  0.5313790000000  0.4184260000000  0.5594400000000 1.0
C      1  0.4656200000000  0.4064250000000  0.4959000000000 1.0
C      1  0.5356310000000  0.4239710000000  0.4412090000000 1.0
C      1  0.4674390000000  0.4768270000000  0.4052040000000 1.0
C      1  0.5316190000000  0.5312280000000  0.4112890000000 1.0
C      1  0.4664280000000  0.5800710000000  0.4439290000000 1.0
C      1  0.5319630000000  0.6035210000000  0.4989120000000 1.0
C      1  0.4648410000000  0.5754360000000  0.5592870000000 1.0
C      1  0.5350190000000  0.5304930000000  0.5934110000000 1.0
C      1  0.4603330000000  0.4110620000000  0.5410050000000 1.0
C      1  0.5403520000000  0.4036600000000  0.4809970000000 1.0
C      1  0.4600680000000  0.4358160000000  0.4264360000000 1.0
C      1  0.5385860000000  0.4879950000000  0.4018790000000 1.0
C      1  0.4581910000000  0.5478980000000  0.4140790000000 1.0
C      1  0.5408920000000  0.5905480000000  0.4608160000000 1.0
C      1  0.4611690000000  0.5965940000000  0.5201840000000 1.0
C      1  0.5397020000000  0.5682300000000  0.5720400000000 1.0
C      1  0.4614680000000  0.5119930000000  0.5992210000000 1.0
C      1  0.5385680000000  0.4494640000000  0.5852370000000 1.0
C      1  0.4320400000000  0.5645940000000  0.5302820000000 1.0
C      1  0.5677390000000  0.5367390000000  0.5642020000000 1.0
C      1  0.4327280000000  0.4960440000000  0.5738380000000 1.0
C      1  0.5680710000000  0.4545560000000  0.5491830000000 1.0
C      1  0.4304180000000  0.4276030000000  0.5133220000000 1.0
C      1  0.5679830000000  0.4357710000000  0.4696260000000 1.0
C      1  0.4309490000000  0.4664260000000  0.4413840000000 1.0
C      1  0.5672300000000  0.5077270000000  0.4298120000000 1.0
C      1  0.4297910000000  0.5464760000000  0.4485160000000 1.0
C      1  0.5686260000000  0.5664010000000  0.4863860000000 1.0
C      1  0.5190180000000  0.4545110000000  0.4180160000000 1.0
C      1  0.4763850000000  0.5112840000000  0.4046270000000 1.0
C      1  0.5176150000000  0.5639910000000  0.4325050000000 1.0
C      1  0.4811830000000  0.5932500000000  0.4835910000000 1.0
C      1  0.5175510000000  0.5844640000000  0.5407960000000 1.0
C      1  0.4826330000000  0.5464260000000  0.5836160000000 1.0
C      1  0.5161660000000  0.4841970000000  0.5940610000000 1.0
C      1  0.4791890000000  0.4364750000000  0.5683950000000 1.0
C      1  0.5177260000000  0.4085410000000  0.5159590000000 1.0
C      1  0.4827460000000  0.4152780000000  0.4589970000000 1.0
C      1  0.4044740000000  0.5099030000000  0.4981320000000 1.0
C      1  0.5899830000000  0.5004770000000  0.5167520000000 1.0
C      1  0.4970920000000  0.4995660000000  0.5020180000000 1.0
END
