TITL C-2441161-5029-27 0.0321427225937805 125000 -14756.2413029436 0 0 104 (C1) n - 1
REM
REM in /home/bkarasulu/work/CARBON/AIRSS/Generating-Clusters/ReaxFF-fromJPCA2015/Units_Real/with-SteepDescent/Higher-Symm
REM
REM
REM
REM
REM
REM ./C.cell (1df0a924f5614ab8850e4351716899ee)
REM
REM compiler GCC version 9.2.1 20190827 (Red Hat 9.2.1-1)
REM options -cpp -mtune=generic -march=x86-64 -g -O0 -fpre-include=/usr/include/finclude/math-vector-fortran.h
REM seed -1682203416 -826678536 -241848839 1420031527 1932026353 -217584315 900346753 452314316 507487493 -524741581 2081010291 516080794 1709803314 -1968156010 913602858 -1844130880 1017011244 -1786393162 1234715643 222496927 1681377078 -1941758268 -1985064930 -371610334 -1320472542 1446753193 -1997393839 -1659446468 706360456 732887388 -1395710315 1880523140 -1585878226
REM
CELL 1.54180   50.00000   50.00000   50.00000   90.00000   90.00000   90.00000
LATT -1
SFAC C  
C      1  0.5056720000000  0.4417210000000  0.4393770000000 1.0
C      1  0.5159670000000  0.4713680000000  0.5081360000000 1.0
C      1  0.5427370000000  0.5160690000000  0.5776420000000 1.0
C      1  0.5000930000000  0.5074280000000  0.4164330000000 1.0
C      1  0.4850880000000  0.4533600000000  0.5701170000000 1.0
C      1  0.5635880000000  0.4678200000000  0.5205030000000 1.0
C      1  0.4479140000000  0.4304080000000  0.5358410000000 1.0
C      1  0.4845410000000  0.5803100000000  0.5350040000000 1.0
C      1  0.5431560000000  0.4969380000000  0.4232370000000 1.0
C      1  0.4923420000000  0.4735910000000  0.5251470000000 1.0
C      1  0.4590960000000  0.4175670000000  0.4967590000000 1.0
C      1  0.5184480000000  0.5056860000000  0.5054720000000 1.0
C      1  0.4251420000000  0.4668830000000  0.4764270000000 1.0
C      1  0.4979660000000  0.5259570000000  0.4627080000000 1.0
C      1  0.5945960000000  0.4974220000000  0.4975790000000 1.0
C      1  0.4998810000000  0.4230260000000  0.5327520000000 1.0
C      1  0.5159310000000  0.4202840000000  0.4561510000000 1.0
C      1  0.5367180000000  0.5712130000000  0.5423400000000 1.0
C      1  0.5556810000000  0.4625830000000  0.4385630000000 1.0
C      1  0.4925160000000  0.4781350000000  0.4118510000000 1.0
C      1  0.4339440000000  0.5103600000000  0.4460640000000 1.0
C      1  0.5310770000000  0.5214020000000  0.4195710000000 1.0
C      1  0.5823880000000  0.4709440000000  0.4991450000000 1.0
C      1  0.5285650000000  0.4151710000000  0.4955260000000 1.0
C      1  0.4674320000000  0.4785240000000  0.4259390000000 1.0
C      1  0.5136090000000  0.4596670000000  0.4178780000000 1.0
C      1  0.4979850000000  0.5853990000000  0.5109340000000 1.0
C      1  0.4223980000000  0.5339220000000  0.5331740000000 1.0
C      1  0.5048540000000  0.5442620000000  0.5806260000000 1.0
C      1  0.5424950000000  0.4915120000000  0.4763600000000 1.0
C      1  0.5583410000000  0.5642650000000  0.4754980000000 1.0
C      1  0.5200490000000  0.4861430000000  0.4600630000000 1.0
C      1  0.5255020000000  0.5592210000000  0.5663100000000 1.0
C      1  0.5946590000000  0.5118360000000  0.5230530000000 1.0
C      1  0.4414310000000  0.4565320000000  0.5481330000000 1.0
C      1  0.5078260000000  0.5679390000000  0.4624210000000 1.0
C      1  0.4323310000000  0.5007450000000  0.5731970000000 1.0
C      1  0.4344220000000  0.5386200000000  0.4520550000000 1.0
C      1  0.5126430000000  0.5187900000000  0.5309970000000 1.0
C      1  0.4392740000000  0.5543990000000  0.5206440000000 1.0
C      1  0.5273190000000  0.4253750000000  0.5224430000000 1.0
C      1  0.4369840000000  0.5612910000000  0.4923960000000 1.0
C      1  0.4266600000000  0.4722330000000  0.5278280000000 1.0
C      1  0.4448760000000  0.5069670000000  0.5105550000000 1.0
C      1  0.5570290000000  0.4964160000000  0.5267450000000 1.0
C      1  0.4120990000000  0.5152930000000  0.4872160000000 1.0
C      1  0.5443670000000  0.5347280000000  0.4858270000000 1.0
C      1  0.4588480000000  0.4957320000000  0.5789230000000 1.0
C      1  0.5418070000000  0.4227810000000  0.4698040000000 1.0
C      1  0.4888300000000  0.5521680000000  0.5373460000000 1.0
C      1  0.5400710000000  0.4719320000000  0.4216190000000 1.0
C      1  0.4933590000000  0.5018240000000  0.5448670000000 1.0
C      1  0.4721430000000  0.4173310000000  0.5239230000000 1.0
C      1  0.4547620000000  0.5050080000000  0.4261530000000 1.0
C      1  0.5783370000000  0.5046780000000  0.5460770000000 1.0
C      1  0.5032280000000  0.4942860000000  0.5723530000000 1.0
C      1  0.5573810000000  0.5318130000000  0.5141420000000 1.0
C      1  0.5858430000000  0.5372520000000  0.5101930000000 1.0
C      1  0.5342700000000  0.5329420000000  0.5536460000000 1.0
C      1  0.4741810000000  0.4846550000000  0.4779590000000 1.0
C      1  0.4612710000000  0.5683880000000  0.4769210000000 1.0
C      1  0.4513960000000  0.4850560000000  0.5198820000000 1.0
C      1  0.5339780000000  0.5654960000000  0.4524690000000 1.0
C      1  0.5375720000000  0.4537380000000  0.5266790000000 1.0
C      1  0.5154820000000  0.5166900000000  0.5865340000000 1.0
C      1  0.5022900000000  0.4235980000000  0.4827310000000 1.0
C      1  0.4210080000000  0.4948700000000  0.4683590000000 1.0
C      1  0.5350630000000  0.4622000000000  0.5576430000000 1.0
C      1  0.5164460000000  0.5267760000000  0.4858990000000 1.0
C      1  0.4830960000000  0.5451920000000  0.4393420000000 1.0
C      1  0.4659540000000  0.5234780000000  0.5008530000000 1.0
C      1  0.5572880000000  0.5140930000000  0.4692980000000 1.0
C      1  0.4345630000000  0.4301840000000  0.5098760000000 1.0
C      1  0.4919970000000  0.4492900000000  0.5425490000000 1.0
C      1  0.5071320000000  0.4605170000000  0.4619180000000 1.0
C      1  0.4647910000000  0.4325620000000  0.4733370000000 1.0
C      1  0.4346700000000  0.5238570000000  0.5579240000000 1.0
C      1  0.5860660000000  0.5147650000000  0.4746520000000 1.0
C      1  0.5280640000000  0.5845730000000  0.5170920000000 1.0
C      1  0.5592930000000  0.4942230000000  0.5671420000000 1.0
C      1  0.5295400000000  0.5448550000000  0.4352250000000 1.0
C      1  0.4806750000000  0.5453210000000  0.5655090000000 1.0
C      1  0.5605440000000  0.4690010000000  0.4790410000000 1.0
C      1  0.5391950000000  0.4880690000000  0.5472350000000 1.0
C      1  0.4588700000000  0.4672920000000  0.5692080000000 1.0
C      1  0.5114010000000  0.4661540000000  0.5751250000000 1.0
C      1  0.4208610000000  0.5416670000000  0.4774580000000 1.0
C      1  0.5838590000000  0.5426890000000  0.4818970000000 1.0
C      1  0.4721580000000  0.4744940000000  0.5047760000000 1.0
C      1  0.4165850000000  0.5105410000000  0.5160640000000 1.0
C      1  0.4459690000000  0.4503260000000  0.4617780000000 1.0
C      1  0.4778120000000  0.5129600000000  0.4786170000000 1.0
C      1  0.4670770000000  0.5196470000000  0.5605240000000 1.0
C      1  0.4680650000000  0.4684690000000  0.4540970000000 1.0
C      1  0.5526280000000  0.5480580000000  0.5376530000000 1.0
C      1  0.5586060000000  0.4457920000000  0.4605680000000 1.0
C      1  0.4677600000000  0.5471770000000  0.5171220000000 1.0
C      1  0.4755400000000  0.5251440000000  0.4203130000000 1.0
C      1  0.4893970000000  0.5749580000000  0.4829450000000 1.0
C      1  0.4588750000000  0.5558990000000  0.4508050000000 1.0
C      1  0.5051550000000  0.4527030000000  0.4881480000000 1.0
C      1  0.5050120000000  0.5049160000000  0.4457740000000 1.0
C      1  0.4221260000000  0.4560740000000  0.5033270000000 1.0
C      1  0.5441820000000  0.5761260000000  0.4960450000000 1.0
END
