TITL C-2441161-5029-1437 0.199727547637006 125000 -23787.2665936011 0 0 191 (C1) n - 1
REM
REM in /home/bkarasulu/work/CARBON/AIRSS/Generating-Clusters/ReaxFF-fromJPCA2015/Units_Real/with-SteepDescent/Higher-Symm
REM
REM
REM
REM
REM
REM ./C.cell (1df0a924f5614ab8850e4351716899ee)
REM
REM compiler GCC version 9.2.1 20190827 (Red Hat 9.2.1-1)
REM options -cpp -mtune=generic -march=x86-64 -g -O0 -fpre-include=/usr/include/finclude/math-vector-fortran.h
REM seed -1237442017 78187 63151339 1676691932 1298817677 930799956 466509466 865780459 1888000626 -932430871 1129925714 1574068790 -1334805808 877323363 -2077765352 400104723 1260314190 417381521 -914584792 -241268251 -854868725 -800679806 315624532 -955027407 -1976744820 -1722149325 593920097 -1750785629 472688509 1011573211 1497191309 -1499103676 425361636
REM
CELL 1.54180   50.00000   50.00000   50.00000   90.00000   90.00000   90.00000
LATT -1
SFAC C  
C      1  0.4679060000000  0.4137860000000  0.4443690000000 1.0
C      1  0.4607820000000  0.5879780000000  0.5539850000000 1.0
C      1  0.5261640000000  0.4125310000000  0.4460960000000 1.0
C      1  0.5280880000000  0.5827350000000  0.5526370000000 1.0
C      1  0.4655640000000  0.5844250000000  0.4445670000000 1.0
C      1  0.4685190000000  0.4121320000000  0.5553920000000 1.0
C      1  0.5311500000000  0.5836960000000  0.4457120000000 1.0
C      1  0.5306800000000  0.4146740000000  0.5482820000000 1.0
C      1  0.4821510000000  0.4375670000000  0.4299880000000 1.0
C      1  0.4844050000000  0.5609890000000  0.5713710000000 1.0
C      1  0.5151250000000  0.4377330000000  0.4288510000000 1.0
C      1  0.5113570000000  0.5628330000000  0.5677900000000 1.0
C      1  0.4805440000000  0.5627220000000  0.4304440000000 1.0
C      1  0.4828670000000  0.4391970000000  0.5706890000000 1.0
C      1  0.5172460000000  0.5628340000000  0.4300090000000 1.0
C      1  0.5104440000000  0.4409640000000  0.5728100000000 1.0
C      1  0.3921750000000  0.5161980000000  0.5170050000000 1.0
C      1  0.3883310000000  0.4870720000000  0.4859370000000 1.0
C      1  0.6110540000000  0.5121810000000  0.5139580000000 1.0
C      1  0.6131930000000  0.4863760000000  0.4813620000000 1.0
C      1  0.3892940000000  0.4871500000000  0.5163180000000 1.0
C      1  0.3885840000000  0.5159000000000  0.4855980000000 1.0
C      1  0.5998450000000  0.4845020000000  0.5138470000000 1.0
C      1  0.6141370000000  0.5144060000000  0.4843340000000 1.0
C      1  0.5243600000000  0.5134020000000  0.4347640000000 1.0
C      1  0.5244140000000  0.4852060000000  0.5646550000000 1.0
C      1  0.4763980000000  0.5130090000000  0.4347830000000 1.0
C      1  0.4767410000000  0.4879130000000  0.5671820000000 1.0
C      1  0.5244640000000  0.4854400000000  0.4355890000000 1.0
C      1  0.5238540000000  0.5135210000000  0.5643060000000 1.0
C      1  0.4758590000000  0.4849970000000  0.4349470000000 1.0
C      1  0.4659820000000  0.5111080000000  0.5763250000000 1.0
C      1  0.5485610000000  0.4080800000000  0.4830230000000 1.0
C      1  0.5493610000000  0.6007770000000  0.5148810000000 1.0
C      1  0.4518580000000  0.4031320000000  0.4860810000000 1.0
C      1  0.4521370000000  0.5947780000000  0.5129810000000 1.0
C      1  0.5433950000000  0.5991470000000  0.4869490000000 1.0
C      1  0.5507000000000  0.3976650000000  0.5103380000000 1.0
C      1  0.4480070000000  0.6023610000000  0.4853340000000 1.0
C      1  0.4497800000000  0.3984190000000  0.5141970000000 1.0
C      1  0.4843490000000  0.5549610000000  0.5274680000000 1.0
C      1  0.4900180000000  0.4524950000000  0.4777360000000 1.0
C      1  0.5145080000000  0.5454260000000  0.5193800000000 1.0
C      1  0.5184970000000  0.4469250000000  0.4730850000000 1.0
C      1  0.4845700000000  0.4512680000000  0.5320020000000 1.0
C      1  0.4856470000000  0.5502070000000  0.4664790000000 1.0
C      1  0.5102430000000  0.4552770000000  0.5223430000000 1.0
C      1  0.5130830000000  0.5467400000000  0.4754480000000 1.0
C      1  0.5525200000000  0.4438610000000  0.5152840000000 1.0
C      1  0.5512690000000  0.5714470000000  0.4880000000000 1.0
C      1  0.4649070000000  0.4398510000000  0.5155770000000 1.0
C      1  0.4651630000000  0.5606920000000  0.4826650000000 1.0
C      1  0.5405640000000  0.5583060000000  0.5134200000000 1.0
C      1  0.5376590000000  0.4355460000000  0.4918720000000 1.0
C      1  0.4652280000000  0.5665700000000  0.5098970000000 1.0
C      1  0.4651270000000  0.4359290000000  0.4868600000000 1.0
C      1  0.4211420000000  0.4878640000000  0.5457270000000 1.0
C      1  0.4210140000000  0.5134310000000  0.4531410000000 1.0
C      1  0.5783660000000  0.4886830000000  0.5540600000000 1.0
C      1  0.5777460000000  0.5135440000000  0.4545570000000 1.0
C      1  0.4208300000000  0.5140820000000  0.5570620000000 1.0
C      1  0.4214490000000  0.4851250000000  0.4539180000000 1.0
C      1  0.5795780000000  0.5180190000000  0.5492780000000 1.0
C      1  0.5792240000000  0.4853850000000  0.4533030000000 1.0
C      1  0.4794660000000  0.4790330000000  0.5407650000000 1.0
C      1  0.4809060000000  0.5227070000000  0.4610970000000 1.0
C      1  0.5253490000000  0.4730710000000  0.5384830000000 1.0
C      1  0.5195930000000  0.5215410000000  0.4619040000000 1.0
C      1  0.4829820000000  0.5275370000000  0.5347880000000 1.0
C      1  0.4827580000000  0.4764270000000  0.4619120000000 1.0
C      1  0.5147990000000  0.5198430000000  0.5364530000000 1.0
C      1  0.5203530000000  0.4736150000000  0.4624660000000 1.0
C      1  0.4732240000000  0.6009380000000  0.5313000000000 1.0
C      1  0.4722780000000  0.3979540000000  0.4676670000000 1.0
C      1  0.5230200000000  0.5992630000000  0.5267020000000 1.0
C      1  0.5143850000000  0.4053800000000  0.4702240000000 1.0
C      1  0.4739760000000  0.4016330000000  0.5292880000000 1.0
C      1  0.4711630000000  0.5988660000000  0.4694050000000 1.0
C      1  0.5255210000000  0.3998000000000  0.5247880000000 1.0
C      1  0.5206200000000  0.5970270000000  0.4701190000000 1.0
C      1  0.5819500000000  0.5539830000000  0.5156640000000 1.0
C      1  0.5858110000000  0.4444640000000  0.4843630000000 1.0
C      1  0.4214990000000  0.5551630000000  0.5131580000000 1.0
C      1  0.4115470000000  0.4358660000000  0.4861270000000 1.0
C      1  0.5818850000000  0.4367750000000  0.5186500000000 1.0
C      1  0.5939640000000  0.5596560000000  0.4865430000000 1.0
C      1  0.4072160000000  0.4329650000000  0.5154110000000 1.0
C      1  0.4081980000000  0.5664940000000  0.4820970000000 1.0
C      1  0.5127140000000  0.4090080000000  0.4207040000000 1.0
C      1  0.5099200000000  0.5899690000000  0.5766670000000 1.0
C      1  0.4840760000000  0.4097170000000  0.4212510000000 1.0
C      1  0.4805370000000  0.5882260000000  0.5756610000000 1.0
C      1  0.5133110000000  0.5904140000000  0.4236240000000 1.0
C      1  0.5169260000000  0.4149660000000  0.5735260000000 1.0
C      1  0.4850750000000  0.5907100000000  0.4241510000000 1.0
C      1  0.4879340000000  0.4082780000000  0.5747700000000 1.0
C      1  0.5583440000000  0.5419230000000  0.4180420000000 1.0
C      1  0.5567100000000  0.4570330000000  0.5845810000000 1.0
C      1  0.4393050000000  0.5420830000000  0.4178970000000 1.0
C      1  0.4398360000000  0.4543350000000  0.5830190000000 1.0
C      1  0.5586850000000  0.4585170000000  0.4195540000000 1.0
C      1  0.5598000000000  0.5490050000000  0.5771180000000 1.0
C      1  0.4403040000000  0.4578820000000  0.4184140000000 1.0
C      1  0.4435570000000  0.5486200000000  0.5741460000000 1.0
C      1  0.6057530000000  0.5261760000000  0.5394290000000 1.0
C      1  0.6052300000000  0.4730990000000  0.4570250000000 1.0
C      1  0.4011240000000  0.5315150000000  0.5405420000000 1.0
C      1  0.3966390000000  0.4720060000000  0.4614930000000 1.0
C      1  0.6011580000000  0.4735640000000  0.5416550000000 1.0
C      1  0.6025440000000  0.5286130000000  0.4598100000000 1.0
C      1  0.3979530000000  0.4721620000000  0.5399020000000 1.0
C      1  0.3967430000000  0.5281520000000  0.4601640000000 1.0
C      1  0.5750550000000  0.5847540000000  0.5188410000000 1.0
C      1  0.5774810000000  0.4157780000000  0.4833770000000 1.0
C      1  0.4245740000000  0.5853340000000  0.5141740000000 1.0
C      1  0.4226610000000  0.4093390000000  0.4854220000000 1.0
C      1  0.5778200000000  0.4075300000000  0.5116590000000 1.0
C      1  0.5818540000000  0.5859360000000  0.4901120000000 1.0
C      1  0.4222700000000  0.4079100000000  0.5142800000000 1.0
C      1  0.4207330000000  0.5919790000000  0.4860510000000 1.0
C      1  0.4631640000000  0.5181380000000  0.5133590000000 1.0
C      1  0.4639070000000  0.4860920000000  0.4819810000000 1.0
C      1  0.5363490000000  0.5125190000000  0.5175600000000 1.0
C      1  0.5399690000000  0.4824470000000  0.4818590000000 1.0
C      1  0.4628710000000  0.4888590000000  0.5184120000000 1.0
C      1  0.4628690000000  0.5131980000000  0.4808940000000 1.0
C      1  0.5412400000000  0.4845090000000  0.5163090000000 1.0
C      1  0.5382190000000  0.5109970000000  0.4824120000000 1.0
C      1  0.4060960000000  0.5557980000000  0.4557740000000 1.0
C      1  0.4058370000000  0.4445040000000  0.5427320000000 1.0
C      1  0.5896890000000  0.5544380000000  0.4579760000000 1.0
C      1  0.5923780000000  0.4470150000000  0.5454360000000 1.0
C      1  0.4076940000000  0.4453560000000  0.4585490000000 1.0
C      1  0.4118550000000  0.5585990000000  0.5417820000000 1.0
C      1  0.6008260000000  0.4434550000000  0.4586460000000 1.0
C      1  0.5979020000000  0.5540210000000  0.5402300000000 1.0
C      1  0.5644090000000  0.4848500000000  0.5828600000000 1.0
C      1  0.5601850000000  0.5132690000000  0.4133730000000 1.0
C      1  0.4356700000000  0.4819950000000  0.5864270000000 1.0
C      1  0.4399590000000  0.5137610000000  0.4139140000000 1.0
C      1  0.5560810000000  0.5093830000000  0.5956510000000 1.0
C      1  0.5572730000000  0.4865350000000  0.4104830000000 1.0
C      1  0.4366600000000  0.5089110000000  0.5849000000000 1.0
C      1  0.4413080000000  0.4862460000000  0.4128090000000 1.0
C      1  0.5480690000000  0.4364210000000  0.5425080000000 1.0
C      1  0.5499190000000  0.5524450000000  0.4663650000000 1.0
C      1  0.4443660000000  0.4504970000000  0.5321830000000 1.0
C      1  0.4442920000000  0.5508510000000  0.4667750000000 1.0
C      1  0.5473700000000  0.5623400000000  0.5406180000000 1.0
C      1  0.5568470000000  0.4502120000000  0.4480180000000 1.0
C      1  0.4458160000000  0.5295430000000  0.5496150000000 1.0
C      1  0.4471840000000  0.4485130000000  0.4674240000000 1.0
C      1  0.4846230000000  0.5251320000000  0.5935610000000 1.0
C      1  0.4857770000000  0.4765520000000  0.4082480000000 1.0
C      1  0.5131140000000  0.5250680000000  0.5884660000000 1.0
C      1  0.5156590000000  0.4779280000000  0.4080280000000 1.0
C      1  0.4856180000000  0.4756450000000  0.5920870000000 1.0
C      1  0.4852320000000  0.5233990000000  0.4085530000000 1.0
C      1  0.5147430000000  0.4753620000000  0.5905680000000 1.0
C      1  0.5144810000000  0.5239630000000  0.4088370000000 1.0
C      1  0.4690900000000  0.5487540000000  0.5893500000000 1.0
C      1  0.4673480000000  0.4541660000000  0.4085240000000 1.0
C      1  0.5413970000000  0.5356870000000  0.5950410000000 1.0
C      1  0.5317970000000  0.4537350000000  0.4088480000000 1.0
C      1  0.4679470000000  0.4530830000000  0.5915860000000 1.0
C      1  0.4664550000000  0.5454820000000  0.4090070000000 1.0
C      1  0.5282290000000  0.4498180000000  0.5904030000000 1.0
C      1  0.5310530000000  0.5474100000000  0.4102580000000 1.0
C      1  0.4384580000000  0.4773510000000  0.5272650000000 1.0
C      1  0.4395820000000  0.5245740000000  0.4710550000000 1.0
C      1  0.5688520000000  0.4912540000000  0.5209800000000 1.0
C      1  0.5595120000000  0.5262870000000  0.4723810000000 1.0
C      1  0.4406370000000  0.5343340000000  0.5219490000000 1.0
C      1  0.4402520000000  0.4743540000000  0.4721800000000 1.0
C      1  0.5642840000000  0.5210640000000  0.5235600000000 1.0
C      1  0.5638800000000  0.4683720000000  0.4711810000000 1.0
C      1  0.4312360000000  0.4413050000000  0.5568140000000 1.0
C      1  0.4326420000000  0.5598890000000  0.4416280000000 1.0
C      1  0.5690340000000  0.4427050000000  0.5624680000000 1.0
C      1  0.5643730000000  0.5594590000000  0.4419030000000 1.0
C      1  0.4363440000000  0.5707800000000  0.5574840000000 1.0
C      1  0.4326190000000  0.4419660000000  0.4429230000000 1.0
C      1  0.5729900000000  0.5636010000000  0.5551400000000 1.0
C      1  0.5778030000000  0.4320580000000  0.4460610000000 1.0
C      1  0.4989240000000  0.3957800000000  0.5151180000000 1.0
C      1  0.4962790000000  0.6018920000000  0.4842970000000 1.0
C      1  0.4974450000000  0.6028290000000  0.5142560000000 1.0
C      1  0.4952300000000  0.3923820000000  0.4855720000000 1.0
C      1  0.5006800000000  0.4712090000000  0.5000330000000 1.0
C      1  0.5061420000000  0.5287250000000  0.4980640000000 1.0
C      1  0.5020630000000  0.5000090000000  0.4988550000000 1.0
END
