TITL C-2441165-58-598 0.07008331511958 125000 -7205.79886565971 0 0 67 (C3) n - 1
REM
REM in /home/bkarasulu/work/CARBON/AIRSS/Generating-Clusters/ReaxFF-fromJPCA2015/Units_Real/with-SteepDescent/Higher-Symm
REM
REM
REM
REM
REM
REM ./C.cell (1df0a924f5614ab8850e4351716899ee)
REM
REM compiler GCC version 9.2.1 20190827 (Red Hat 9.2.1-1)
REM options -cpp -mtune=generic -march=x86-64 -g -O0 -fpre-include=/usr/include/finclude/math-vector-fortran.h
REM seed -2027488624 708063341 -2134053915 -592926429 -69615047 1032833081 -352802503 2014203590 945212479 327217307 -339814006 -1991938237 -1974068285 1310624173 408912637 1219507938 -2009506149 -651126098 1165172616 1565029060 -252103184 573701255 -1573939163 1507504274 -511665315 -132087348 1408307757 589571841 1894270383 359208429 968888368 1273256702 -747910990
REM
CELL 1.54180   50.00000   50.00000   50.00000   90.00000   90.00000   90.00000
LATT -1
SFAC C  
C      1  0.5602180000000  0.4557900000000  0.4847570000000 1.0
C      1  0.4561390000000  0.4558130000000  0.4540150000000 1.0
C      1  0.4815830000000  0.4559150000000  0.5600430000000 1.0
C      1  0.5602650000000  0.5445300000000  0.5146800000000 1.0
C      1  0.4565210000000  0.5437840000000  0.5445560000000 1.0
C      1  0.4819430000000  0.5440540000000  0.4397300000000 1.0
C      1  0.5322970000000  0.5214980000000  0.5343450000000 1.0
C      1  0.5124890000000  0.5220220000000  0.4535280000000 1.0
C      1  0.4524610000000  0.5219610000000  0.5112960000000 1.0
C      1  0.5323210000000  0.4783300000000  0.4649250000000 1.0
C      1  0.5128210000000  0.4789990000000  0.5443910000000 1.0
C      1  0.4530060000000  0.4786990000000  0.4886290000000 1.0
C      1  0.4707110000000  0.4599350000000  0.5306130000000 1.0
C      1  0.5398120000000  0.4601950000000  0.5091260000000 1.0
C      1  0.4866650000000  0.4600010000000  0.4592730000000 1.0
C      1  0.4705810000000  0.5399400000000  0.4678310000000 1.0
C      1  0.5408410000000  0.5401300000000  0.4905100000000 1.0
C      1  0.4858820000000  0.5400640000000  0.5406230000000 1.0
C      1  0.5620890000000  0.4740770000000  0.4623010000000 1.0
C      1  0.4357960000000  0.4740470000000  0.4642030000000 1.0
C      1  0.5002150000000  0.4741230000000  0.5724030000000 1.0
C      1  0.5619620000000  0.5261610000000  0.5371090000000 1.0
C      1  0.4354680000000  0.5262850000000  0.5354910000000 1.0
C      1  0.5003990000000  0.5263250000000  0.4264430000000 1.0
C      1  0.4695730000000  0.5651260000000  0.5287190000000 1.0
C      1  0.5394170000000  0.5651540000000  0.5106400000000 1.0
C      1  0.4886280000000  0.5649960000000  0.4594320000000 1.0
C      1  0.4695640000000  0.4350610000000  0.4702670000000 1.0
C      1  0.5396440000000  0.4351680000000  0.4885200000000 1.0
C      1  0.4886060000000  0.4351880000000  0.5401180000000 1.0
C      1  0.4451120000000  0.4509350000000  0.5161030000000 1.0
C      1  0.5408010000000  0.4506780000000  0.5384780000000 1.0
C      1  0.5120610000000  0.4507970000000  0.4444530000000 1.0
C      1  0.4458650000000  0.5491390000000  0.4831870000000 1.0
C      1  0.5402810000000  0.5492090000000  0.4615680000000 1.0
C      1  0.5116030000000  0.5489920000000  0.5542140000000 1.0
C      1  0.4358530000000  0.5216790000000  0.4865290000000 1.0
C      1  0.5195870000000  0.5217550000000  0.5610940000000 1.0
C      1  0.5422940000000  0.5216810000000  0.4514110000000 1.0
C      1  0.4358500000000  0.4786910000000  0.5128480000000 1.0
C      1  0.5195240000000  0.4785770000000  0.4381900000000 1.0
C      1  0.5427380000000  0.4786090000000  0.5477620000000 1.0
C      1  0.5151510000000  0.5611650000000  0.4612600000000 1.0
C      1  0.4581640000000  0.5611600000000  0.5049030000000 1.0
C      1  0.5245330000000  0.5611910000000  0.5326240000000 1.0
C      1  0.5153630000000  0.4386340000000  0.5385570000000 1.0
C      1  0.4575310000000  0.4391900000000  0.4938440000000 1.0
C      1  0.5251180000000  0.4388820000000  0.4661970000000 1.0
C      1  0.4903260000000  0.5008000000000  0.4562510000000 1.0
C      1  0.4660130000000  0.5007620000000  0.5288790000000 1.0
C      1  0.5412770000000  0.5006850000000  0.5136070000000 1.0
C      1  0.4901900000000  0.4998630000000  0.5430600000000 1.0
C      1  0.4660430000000  0.4996020000000  0.4709550000000 1.0
C      1  0.5408820000000  0.4994250000000  0.4854990000000 1.0
C      1  0.4976160000000  0.4954830000000  0.4283220000000 1.0
C      1  0.4380020000000  0.4956670000000  0.5368900000000 1.0
C      1  0.5621290000000  0.4955340000000  0.5337430000000 1.0
C      1  0.4976690000000  0.5047470000000  0.5712520000000 1.0
C      1  0.4381990000000  0.5047640000000  0.4624670000000 1.0
C      1  0.5619490000000  0.5048720000000  0.4656170000000 1.0
C      1  0.5006130000000  0.4691800000000  0.4840330000000 1.0
C      1  0.4850840000000  0.4690780000000  0.5068270000000 1.0
C      1  0.5122210000000  0.4690050000000  0.5090050000000 1.0
C      1  0.5024980000000  0.5306250000000  0.5162840000000 1.0
C      1  0.4834880000000  0.5303700000000  0.4933560000000 1.0
C      1  0.5125620000000  0.5313230000000  0.4892260000000 1.0
C      1  0.4989260000000  0.5049830000000  0.5000190000000 1.0
END
