TITL C-2441155-8282-93 0.0076995150797301 125000 -6372.95146174282 0 0 50 (C1) n - 1
REM
REM in /home/bkarasulu/work/CARBON/AIRSS/Generating-Clusters/ReaxFF-fromJPCA2015/Units_Real/with-SteepDescent/Higher-Symm
REM
REM
REM
REM
REM
REM ./C.cell (1df0a924f5614ab8850e4351716899ee)
REM
REM compiler GCC version 9.2.1 20190827 (Red Hat 9.2.1-1)
REM options -cpp -mtune=generic -march=x86-64 -g -O0 -fpre-include=/usr/include/finclude/math-vector-fortran.h
REM seed -2093510682 -1935550371 -1947330817 506714559 -1418297286 -225864773 1102801684 -1916239970 1514319433 -85890908 -1416744102 -1713169814 -1206364313 1517476211 -1550660666 -1946823781 -821261015 1199585454 -569448149 -1232253560 2015664030 376707250 -1559157482 -729236332 79616486 1272708395 -1033792497 491373617 846448003 1588860510 -2026581607 804369203 -1851938221
REM
CELL 1.54180   50.00000   50.00000   50.00000   90.00000   90.00000   90.00000
LATT -1
SFAC C  
C      1  0.5075900000000  0.4847470000000  0.4707290000000 1.0
C      1  0.4791080000000  0.4841120000000  0.4773980000000 1.0
C      1  0.4704010000000  0.4834690000000  0.5078760000000 1.0
C      1  0.4903580000000  0.4847780000000  0.5305250000000 1.0
C      1  0.5204440000000  0.4837350000000  0.5222450000000 1.0
C      1  0.5282910000000  0.4851840000000  0.4915090000000 1.0
C      1  0.5072730000000  0.5126880000000  0.4705100000000 1.0
C      1  0.4788360000000  0.5132810000000  0.4769430000000 1.0
C      1  0.4697070000000  0.5144550000000  0.5071780000000 1.0
C      1  0.4919960000000  0.5138710000000  0.5305870000000 1.0
C      1  0.5200520000000  0.5123050000000  0.5235470000000 1.0
C      1  0.5277520000000  0.5134950000000  0.4920740000000 1.0
C      1  0.4767940000000  0.4845690000000  0.5567590000000 1.0
C      1  0.5362870000000  0.4842910000000  0.5474900000000 1.0
C      1  0.5579370000000  0.4836260000000  0.4913280000000 1.0
C      1  0.5203020000000  0.4842950000000  0.4437220000000 1.0
C      1  0.4614430000000  0.4846780000000  0.4533170000000 1.0
C      1  0.4403300000000  0.4841880000000  0.5093690000000 1.0
C      1  0.4776890000000  0.5131030000000  0.5565420000000 1.0
C      1  0.5362050000000  0.5135180000000  0.5482220000000 1.0
C      1  0.5575630000000  0.5143690000000  0.4914060000000 1.0
C      1  0.5201610000000  0.5133370000000  0.4436220000000 1.0
C      1  0.4612880000000  0.5131780000000  0.4528400000000 1.0
C      1  0.4397350000000  0.5129830000000  0.5087070000000 1.0
C      1  0.5257850000000  0.5430590000000  0.5465650000000 1.0
C      1  0.5527590000000  0.5428290000000  0.4986690000000 1.0
C      1  0.5224960000000  0.5424790000000  0.4518920000000 1.0
C      1  0.4699050000000  0.5443670000000  0.4551300000000 1.0
C      1  0.4455850000000  0.5458540000000  0.5017480000000 1.0
C      1  0.4728950000000  0.5439660000000  0.5466340000000 1.0
C      1  0.5261920000000  0.4541250000000  0.5472950000000 1.0
C      1  0.5523460000000  0.4555320000000  0.4984650000000 1.0
C      1  0.5224610000000  0.4550330000000  0.4516760000000 1.0
C      1  0.4698290000000  0.4533190000000  0.4551800000000 1.0
C      1  0.4459730000000  0.4524590000000  0.5018210000000 1.0
C      1  0.4729190000000  0.4538560000000  0.5465040000000 1.0
C      1  0.4991590000000  0.5523130000000  0.5428920000000 1.0
C      1  0.5344430000000  0.5538350000000  0.5205260000000 1.0
C      1  0.5341080000000  0.5543330000000  0.4772820000000 1.0
C      1  0.4967780000000  0.5526140000000  0.4579160000000 1.0
C      1  0.4630030000000  0.5538240000000  0.4807360000000 1.0
C      1  0.4642850000000  0.5538180000000  0.5215270000000 1.0
C      1  0.4991570000000  0.4457410000000  0.5428200000000 1.0
C      1  0.5345340000000  0.4434030000000  0.5205170000000 1.0
C      1  0.5339580000000  0.4438540000000  0.4772790000000 1.0
C      1  0.4966620000000  0.4452150000000  0.4578660000000 1.0
C      1  0.4628160000000  0.4439780000000  0.4808200000000 1.0
C      1  0.4641470000000  0.4439850000000  0.5213910000000 1.0
C      1  0.5124330000000  0.4420950000000  0.4990660000000 1.0
C      1  0.5124010000000  0.5555940000000  0.4986470000000 1.0
END
