TITL C-2441160-1326-1296 0.120626659003604 125000 -26210.5026398576 0 0 193 (C1) n - 1
REM
REM in /home/bkarasulu/work/CARBON/AIRSS/Generating-Clusters/ReaxFF-fromJPCA2015/Units_Real/with-SteepDescent/Higher-Symm
REM
REM
REM
REM
REM
REM ./C.cell (1df0a924f5614ab8850e4351716899ee)
REM
REM compiler GCC version 9.2.1 20190827 (Red Hat 9.2.1-1)
REM options -cpp -mtune=generic -march=x86-64 -g -O0 -fpre-include=/usr/include/finclude/math-vector-fortran.h
REM seed -1123744076 2001581362 1414207466 643632694 360898758 187036209 -1205535275 -1262065998 1374068590 -1388454460 440595140 -1169123249 -43811283 1575190787 -272999064 -397724215 -662435455 -1161638827 135751726 1827267410 622193153 -63502399 1678916384 -1206102031 1503321536 -238528342 1634824957 -942649959 -672325079 -199482209 -220616869 -652432108 1957726537
REM
CELL 1.54180   50.00000   50.00000   50.00000   90.00000   90.00000   90.00000
LATT -1
SFAC C  
C      1  0.5523230000000  0.4329380000000  0.4356270000000 1.0
C      1  0.5804260000000  0.4702370000000  0.4405260000000 1.0
C      1  0.5824440000000  0.5187240000000  0.4364130000000 1.0
C      1  0.5591790000000  0.5610450000000  0.4365430000000 1.0
C      1  0.5167440000000  0.5833810000000  0.4389050000000 1.0
C      1  0.4682350000000  0.5781460000000  0.4364050000000 1.0
C      1  0.4287830000000  0.5516970000000  0.4418210000000 1.0
C      1  0.4140420000000  0.5046290000000  0.4358010000000 1.0
C      1  0.4247010000000  0.4583090000000  0.4387160000000 1.0
C      1  0.4609240000000  0.4245000000000  0.4344170000000 1.0
C      1  0.5082370000000  0.4140360000000  0.4398060000000 1.0
C      1  0.5645260000000  0.4504600000000  0.5787690000000 1.0
C      1  0.5783950000000  0.4945290000000  0.5786860000000 1.0
C      1  0.5690630000000  0.5380310000000  0.5784740000000 1.0
C      1  0.5380230000000  0.5688970000000  0.5798590000000 1.0
C      1  0.4944220000000  0.5792280000000  0.5773670000000 1.0
C      1  0.4518720000000  0.5636080000000  0.5797480000000 1.0
C      1  0.4249050000000  0.5271620000000  0.5779190000000 1.0
C      1  0.4231830000000  0.4815320000000  0.5787980000000 1.0
C      1  0.4435190000000  0.4425510000000  0.5792510000000 1.0
C      1  0.4831780000000  0.4214000000000  0.5779120000000 1.0
C      1  0.5281590000000  0.4247840000000  0.5800050000000 1.0
C      1  0.4829530000000  0.5415800000000  0.4675690000000 1.0
C      1  0.4616880000000  0.5253290000000  0.4619520000000 1.0
C      1  0.4574240000000  0.5014520000000  0.4753000000000 1.0
C      1  0.4605470000000  0.4783880000000  0.4593870000000 1.0
C      1  0.4816590000000  0.4622280000000  0.4697390000000 1.0
C      1  0.5054620000000  0.4597080000000  0.4550850000000 1.0
C      1  0.5279390000000  0.4681600000000  0.4690130000000 1.0
C      1  0.5423110000000  0.4894270000000  0.4599950000000 1.0
C      1  0.5455960000000  0.5131930000000  0.4741410000000 1.0
C      1  0.5269690000000  0.5321700000000  0.4753880000000 1.0
C      1  0.5078940000000  0.5391060000000  0.4556120000000 1.0
C      1  0.5079710000000  0.3997140000000  0.4862460000000 1.0
C      1  0.5520600000000  0.4320070000000  0.4919360000000 1.0
C      1  0.5857090000000  0.4702630000000  0.4892020000000 1.0
C      1  0.5956670000000  0.5199290000000  0.4891440000000 1.0
C      1  0.5578610000000  0.5609250000000  0.4916700000000 1.0
C      1  0.5226710000000  0.5910700000000  0.4851200000000 1.0
C      1  0.4655060000000  0.5790430000000  0.4903780000000 1.0
C      1  0.4325970000000  0.5483550000000  0.4878270000000 1.0
C      1  0.4144740000000  0.5036680000000  0.4916700000000 1.0
C      1  0.4210980000000  0.4517720000000  0.4882530000000 1.0
C      1  0.4624570000000  0.4242640000000  0.4913650000000 1.0
C      1  0.5613550000000  0.5107850000000  0.4971440000000 1.0
C      1  0.5305390000000  0.5508780000000  0.4973930000000 1.0
C      1  0.5067120000000  0.5677100000000  0.5003430000000 1.0
C      1  0.4805890000000  0.5546890000000  0.4918400000000 1.0
C      1  0.4576920000000  0.5417160000000  0.5014470000000 1.0
C      1  0.4414570000000  0.4943420000000  0.4987440000000 1.0
C      1  0.4434070000000  0.4658960000000  0.5006050000000 1.0
C      1  0.4825830000000  0.4447170000000  0.4914780000000 1.0
C      1  0.5087190000000  0.4430830000000  0.5044060000000 1.0
C      1  0.5325810000000  0.4520530000000  0.4912540000000 1.0
C      1  0.5639190000000  0.4849560000000  0.5011870000000 1.0
C      1  0.5849990000000  0.4672250000000  0.5670210000000 1.0
C      1  0.5883440000000  0.5196500000000  0.5663920000000 1.0
C      1  0.5640720000000  0.5638100000000  0.5671470000000 1.0
C      1  0.5205180000000  0.5884400000000  0.5671270000000 1.0
C      1  0.4675910000000  0.5848290000000  0.5672650000000 1.0
C      1  0.4257260000000  0.5541150000000  0.5677450000000 1.0
C      1  0.4095460000000  0.5050450000000  0.5663930000000 1.0
C      1  0.4206890000000  0.4549130000000  0.5659910000000 1.0
C      1  0.4557660000000  0.4188590000000  0.5671120000000 1.0
C      1  0.5072540000000  0.4088370000000  0.5665230000000 1.0
C      1  0.5553790000000  0.4255960000000  0.5675990000000 1.0
C      1  0.4268670000000  0.4115840000000  0.4681430000000 1.0
C      1  0.4717900000000  0.3813170000000  0.4589480000000 1.0
C      1  0.5485290000000  0.3943880000000  0.4684650000000 1.0
C      1  0.5900200000000  0.4265250000000  0.4683750000000 1.0
C      1  0.6210680000000  0.4935650000000  0.4585530000000 1.0
C      1  0.5969960000000  0.5606120000000  0.4681370000000 1.0
C      1  0.5602550000000  0.6009900000000  0.4665260000000 1.0
C      1  0.4839380000000  0.6160970000000  0.4669270000000 1.0
C      1  0.4332300000000  0.5962700000000  0.4684050000000 1.0
C      1  0.3842850000000  0.5381390000000  0.4604620000000 1.0
C      1  0.3850870000000  0.4832410000000  0.4690950000000 1.0
C      1  0.5538840000000  0.5242490000000  0.5232140000000 1.0
C      1  0.5383800000000  0.5469180000000  0.5240550000000 1.0
C      1  0.5030430000000  0.5780470000000  0.5278090000000 1.0
C      1  0.4537710000000  0.5476950000000  0.5289900000000 1.0
C      1  0.4341490000000  0.5281850000000  0.5318780000000 1.0
C      1  0.4449670000000  0.5042450000000  0.5259330000000 1.0
C      1  0.4566640000000  0.4565920000000  0.5241480000000 1.0
C      1  0.4773520000000  0.4376450000000  0.5314430000000 1.0
C      1  0.5225070000000  0.4443490000000  0.5294180000000 1.0
C      1  0.5503730000000  0.4510870000000  0.5284470000000 1.0
C      1  0.5529690000000  0.4781180000000  0.5247850000000 1.0
C      1  0.5480700000000  0.5014320000000  0.3988400000000 1.0
C      1  0.5413460000000  0.5298350000000  0.3968010000000 1.0
C      1  0.5172510000000  0.5411380000000  0.3891840000000 1.0
C      1  0.4924290000000  0.5447990000000  0.3904490000000 1.0
C      1  0.4665710000000  0.5397260000000  0.3989420000000 1.0
C      1  0.4512230000000  0.5137050000000  0.3984470000000 1.0
C      1  0.4596210000000  0.4893270000000  0.3912850000000 1.0
C      1  0.4688340000000  0.4665360000000  0.3901410000000 1.0
C      1  0.4893710000000  0.4492090000000  0.3975950000000 1.0
C      1  0.5176370000000  0.4559240000000  0.3985810000000 1.0
C      1  0.5384490000000  0.4743360000000  0.3970050000000 1.0
C      1  0.5212270000000  0.6146880000000  0.4727110000000 1.0
C      1  0.4555750000000  0.6129670000000  0.4650670000000 1.0
C      1  0.3995880000000  0.5611270000000  0.4700010000000 1.0
C      1  0.3802230000000  0.5103600000000  0.4673100000000 1.0
C      1  0.4014820000000  0.4444910000000  0.4665520000000 1.0
C      1  0.4474390000000  0.3930210000000  0.4658550000000 1.0
C      1  0.5000430000000  0.3761120000000  0.4721000000000 1.0
C      1  0.5744920000000  0.4038700000000  0.4677610000000 1.0
C      1  0.6152090000000  0.4689730000000  0.4723310000000 1.0
C      1  0.6167510000000  0.5230960000000  0.4685660000000 1.0
C      1  0.5832550000000  0.5847230000000  0.4649280000000 1.0
C      1  0.4268310000000  0.4255810000000  0.5280090000000 1.0
C      1  0.4797850000000  0.4069630000000  0.5285910000000 1.0
C      1  0.5371490000000  0.4031700000000  0.5281110000000 1.0
C      1  0.5778850000000  0.4396480000000  0.5280440000000 1.0
C      1  0.6002310000000  0.4924120000000  0.5301610000000 1.0
C      1  0.5905260000000  0.5487520000000  0.5271600000000 1.0
C      1  0.5538230000000  0.5882710000000  0.5275570000000 1.0
C      1  0.4823720000000  0.6012090000000  0.5244990000000 1.0
C      1  0.4366810000000  0.5783880000000  0.5279570000000 1.0
C      1  0.4076130000000  0.5327380000000  0.5265160000000 1.0
C      1  0.4008610000000  0.4763630000000  0.5274730000000 1.0
C      1  0.5959850000000  0.4937640000000  0.4425650000000 1.0
C      1  0.5833970000000  0.5472400000000  0.4453700000000 1.0
C      1  0.5459210000000  0.5857150000000  0.4453500000000 1.0
C      1  0.4903930000000  0.5945940000000  0.4453660000000 1.0
C      1  0.4401270000000  0.5786600000000  0.4456350000000 1.0
C      1  0.4080260000000  0.5318190000000  0.4423770000000 1.0
C      1  0.4041810000000  0.4794730000000  0.4458110000000 1.0
C      1  0.4348730000000  0.4298430000000  0.4457560000000 1.0
C      1  0.4801010000000  0.4040950000000  0.4424950000000 1.0
C      1  0.5369200000000  0.4105820000000  0.4455750000000 1.0
C      1  0.5778470000000  0.4419110000000  0.4458020000000 1.0
C      1  0.5248070000000  0.5465330000000  0.5930460000000 1.0
C      1  0.4957760000000  0.5535020000000  0.5918130000000 1.0
C      1  0.4678560000000  0.5443590000000  0.5940410000000 1.0
C      1  0.4511920000000  0.5185890000000  0.5905360000000 1.0
C      1  0.4474770000000  0.4860810000000  0.5932170000000 1.0
C      1  0.4613890000000  0.4608930000000  0.5934910000000 1.0
C      1  0.4886110000000  0.4456940000000  0.5928540000000 1.0
C      1  0.5175240000000  0.4470170000000  0.5946270000000 1.0
C      1  0.5421830000000  0.4671120000000  0.5915360000000 1.0
C      1  0.5540750000000  0.4974170000000  0.5929720000000 1.0
C      1  0.5461310000000  0.5253840000000  0.5924620000000 1.0
C      1  0.5375290000000  0.4554210000000  0.4204150000000 1.0
C      1  0.5541890000000  0.4815370000000  0.4358700000000 1.0
C      1  0.5597580000000  0.5056480000000  0.4240410000000 1.0
C      1  0.5402030000000  0.5429770000000  0.4234160000000 1.0
C      1  0.5154360000000  0.5551700000000  0.4328470000000 1.0
C      1  0.4715290000000  0.5509320000000  0.4250550000000 1.0
C      1  0.4516090000000  0.5336580000000  0.4373910000000 1.0
C      1  0.4403210000000  0.5029120000000  0.4249100000000 1.0
C      1  0.4469240000000  0.4766060000000  0.4345970000000 1.0
C      1  0.4777060000000  0.4447210000000  0.4224870000000 1.0
C      1  0.5017570000000  0.4414440000000  0.4354950000000 1.0
C      1  0.4697580000000  0.5160370000000  0.5640880000000 1.0
C      1  0.4582160000000  0.4968740000000  0.5477090000000 1.0
C      1  0.4628430000000  0.4702070000000  0.5492120000000 1.0
C      1  0.4855890000000  0.4538860000000  0.5522050000000 1.0
C      1  0.5121900000000  0.4570760000000  0.5516470000000 1.0
C      1  0.5281730000000  0.4748400000000  0.5664940000000 1.0
C      1  0.5418510000000  0.4896910000000  0.5473890000000 1.0
C      1  0.5435850000000  0.5168280000000  0.5491460000000 1.0
C      1  0.5249980000000  0.5394300000000  0.5477030000000 1.0
C      1  0.4988830000000  0.5509160000000  0.5444380000000 1.0
C      1  0.4745320000000  0.5393310000000  0.5478360000000 1.0
C      1  0.5930290000000  0.4649770000000  0.5397940000000 1.0
C      1  0.5969550000000  0.5225770000000  0.5391380000000 1.0
C      1  0.5727780000000  0.5693230000000  0.5394860000000 1.0
C      1  0.5281400000000  0.5924960000000  0.5392940000000 1.0
C      1  0.4594390000000  0.5940440000000  0.5404940000000 1.0
C      1  0.4160900000000  0.5615570000000  0.5410390000000 1.0
C      1  0.4005750000000  0.5027030000000  0.5392270000000 1.0
C      1  0.4130770000000  0.4502770000000  0.5385740000000 1.0
C      1  0.4484150000000  0.4113120000000  0.5403730000000 1.0
C      1  0.5105740000000  0.4010090000000  0.5392750000000 1.0
C      1  0.5609040000000  0.4147040000000  0.5409580000000 1.0
C      1  0.4324710000000  0.4250460000000  0.4970730000000 1.0
C      1  0.4811380000000  0.4043550000000  0.4993430000000 1.0
C      1  0.5380170000000  0.4058950000000  0.4957320000000 1.0
C      1  0.5803530000000  0.4399170000000  0.4947380000000 1.0
C      1  0.6032360000000  0.4931280000000  0.5024220000000 1.0
C      1  0.5851610000000  0.5511080000000  0.4973070000000 1.0
C      1  0.5524740000000  0.5891260000000  0.4960730000000 1.0
C      1  0.4811260000000  0.6026170000000  0.4959310000000 1.0
C      1  0.4365710000000  0.5782110000000  0.4935490000000 1.0
C      1  0.4090840000000  0.5319340000000  0.4958790000000 1.0
C      1  0.3998530000000  0.4789670000000  0.4973340000000 1.0
C      1  0.4993300000000  0.5000830000000  0.4379210000000 1.0
C      1  0.4994690000000  0.4991320000000  0.4888260000000 1.0
C      1  0.4988920000000  0.4992330000000  0.4627890000000 1.0
C      1  0.5015580000000  0.5002900000000  0.5386240000000 1.0
C      1  0.5007510000000  0.4995390000000  0.5136880000000 1.0
C      1  0.5000740000000  0.5026140000000  0.5679180000000 1.0
END
