TITL C-2441165-58-878 0.0740632969546346 125000 -16775.2630818581 0 0 128 (C1) n - 1
REM
REM in /home/bkarasulu/work/CARBON/AIRSS/Generating-Clusters/ReaxFF-fromJPCA2015/Units_Real/with-SteepDescent/Higher-Symm
REM
REM
REM
REM
REM
REM ./C.cell (1df0a924f5614ab8850e4351716899ee)
REM
REM compiler GCC version 9.2.1 20190827 (Red Hat 9.2.1-1)
REM options -cpp -mtune=generic -march=x86-64 -g -O0 -fpre-include=/usr/include/finclude/math-vector-fortran.h
REM seed -620688416 378170621 -1951691913 266652804 -790192713 -1847621173 214870418 750182039 -1066243082 1787459512 -289583254 -1448616321 683668246 -535096292 -1944907217 257582080 -48294947 2001214589 -282661819 -1792860771 -1843013721 -144261744 -2073516376 -1937972237 -15651068 -1562011341 -1342304801 -1833206930 1418489801 -1798432483 785283769 324137825 -135486389
REM
CELL 1.54180   50.00000   50.00000   50.00000   90.00000   90.00000   90.00000
LATT -1
SFAC C  
C      1  0.4747350000000  0.4995510000000  0.5384980000000 1.0
C      1  0.5139210000000  0.4727780000000  0.5426530000000 1.0
C      1  0.5129400000000  0.5204470000000  0.5384150000000 1.0
C      1  0.5268850000000  0.5010120000000  0.4574700000000 1.0
C      1  0.4860530000000  0.4756330000000  0.4575830000000 1.0
C      1  0.4845370000000  0.5244170000000  0.4585190000000 1.0
C      1  0.4858430000000  0.4732590000000  0.5460300000000 1.0
C      1  0.5292160000000  0.4968970000000  0.5452730000000 1.0
C      1  0.4862640000000  0.5243870000000  0.5510620000000 1.0
C      1  0.5138160000000  0.4760690000000  0.4511410000000 1.0
C      1  0.4712230000000  0.4996330000000  0.4546850000000 1.0
C      1  0.5130510000000  0.5257920000000  0.4547590000000 1.0
C      1  0.4433650000000  0.5054460000000  0.4465200000000 1.0
C      1  0.5227840000000  0.4482270000000  0.4469380000000 1.0
C      1  0.5324620000000  0.5461240000000  0.4470180000000 1.0
C      1  0.5553770000000  0.5053790000000  0.5533320000000 1.0
C      1  0.4767350000000  0.4471090000000  0.5542020000000 1.0
C      1  0.4657150000000  0.5443360000000  0.5535020000000 1.0
C      1  0.4212890000000  0.4975230000000  0.4655490000000 1.0
C      1  0.5426170000000  0.4332120000000  0.4643350000000 1.0
C      1  0.5375610000000  0.5692290000000  0.4635920000000 1.0
C      1  0.5776680000000  0.4981690000000  0.5349810000000 1.0
C      1  0.4581800000000  0.4323860000000  0.5353580000000 1.0
C      1  0.4638550000000  0.5695870000000  0.5370760000000 1.0
C      1  0.4663310000000  0.4330490000000  0.4421530000000 1.0
C      1  0.5761330000000  0.5041220000000  0.4414370000000 1.0
C      1  0.4591590000000  0.5648720000000  0.4390220000000 1.0
C      1  0.5356000000000  0.4323440000000  0.5617270000000 1.0
C      1  0.4263670000000  0.5042650000000  0.5589830000000 1.0
C      1  0.5418630000000  0.5618790000000  0.5583040000000 1.0
C      1  0.4436790000000  0.5573440000000  0.4632650000000 1.0
C      1  0.4798890000000  0.4277180000000  0.4677920000000 1.0
C      1  0.5745950000000  0.5188680000000  0.4672690000000 1.0
C      1  0.5573620000000  0.5530380000000  0.5341680000000 1.0
C      1  0.5216090000000  0.4213400000000  0.5376760000000 1.0
C      1  0.4282790000000  0.5187670000000  0.5333050000000 1.0
C      1  0.5033240000000  0.4442880000000  0.4256090000000 1.0
C      1  0.5463650000000  0.5293680000000  0.4275060000000 1.0
C      1  0.4513370000000  0.5257540000000  0.4267670000000 1.0
C      1  0.4978470000000  0.4437680000000  0.5749520000000 1.0
C      1  0.4536700000000  0.5301010000000  0.5762370000000 1.0
C      1  0.5489660000000  0.5242940000000  0.5748660000000 1.0
C      1  0.5333780000000  0.4766290000000  0.5915210000000 1.0
C      1  0.5040510000000  0.5408200000000  0.5911550000000 1.0
C      1  0.4642240000000  0.4825890000000  0.5905630000000 1.0
C      1  0.4657610000000  0.4769630000000  0.4102840000000 1.0
C      1  0.4973740000000  0.5404930000000  0.4096300000000 1.0
C      1  0.5376480000000  0.4821100000000  0.4099850000000 1.0
C      1  0.5588660000000  0.4261150000000  0.5154610000000 1.0
C      1  0.5353160000000  0.5888060000000  0.5151390000000 1.0
C      1  0.4064350000000  0.4860270000000  0.5154520000000 1.0
C      1  0.4407020000000  0.4256320000000  0.4858320000000 1.0
C      1  0.4657860000000  0.5881630000000  0.4849910000000 1.0
C      1  0.5932140000000  0.4873060000000  0.4864680000000 1.0
C      1  0.4570640000000  0.4594640000000  0.4308130000000 1.0
C      1  0.5582370000000  0.4829510000000  0.4296750000000 1.0
C      1  0.4866850000000  0.5579690000000  0.4293470000000 1.0
C      1  0.5441960000000  0.4591970000000  0.5715490000000 1.0
C      1  0.4444640000000  0.4831400000000  0.5701970000000 1.0
C      1  0.5147530000000  0.5578570000000  0.5712840000000 1.0
C      1  0.5345550000000  0.4108170000000  0.5126990000000 1.0
C      1  0.5596610000000  0.5725910000000  0.5117270000000 1.0
C      1  0.4085480000000  0.5149450000000  0.5112880000000 1.0
C      1  0.4666630000000  0.4125270000000  0.4896760000000 1.0
C      1  0.4408140000000  0.5741560000000  0.4879520000000 1.0
C      1  0.5909740000000  0.5157100000000  0.4918720000000 1.0
C      1  0.4313230000000  0.4444130000000  0.5059450000000 1.0
C      1  0.5818300000000  0.4687120000000  0.5061070000000 1.0
C      1  0.4855420000000  0.5871970000000  0.5066850000000 1.0
C      1  0.5679440000000  0.4448120000000  0.4948850000000 1.0
C      1  0.4175770000000  0.4684240000000  0.4950840000000 1.0
C      1  0.5125950000000  0.5892120000000  0.4972700000000 1.0
C      1  0.4832830000000  0.5361480000000  0.5088230000000 1.0
C      1  0.4761170000000  0.4608590000000  0.5043990000000 1.0
C      1  0.5429710000000  0.4978640000000  0.5020430000000 1.0
C      1  0.5203500000000  0.5417740000000  0.4961300000000 1.0
C      1  0.5206790000000  0.4654890000000  0.4906660000000 1.0
C      1  0.4544340000000  0.4984210000000  0.4962140000000 1.0
C      1  0.4499640000000  0.5035630000000  0.5234910000000 1.0
C      1  0.5133160000000  0.4466830000000  0.5309390000000 1.0
C      1  0.5319580000000  0.5394830000000  0.5238970000000 1.0
C      1  0.5505100000000  0.5040270000000  0.4741570000000 1.0
C      1  0.4783490000000  0.4550770000000  0.4765120000000 1.0
C      1  0.4615330000000  0.5371990000000  0.4695040000000 1.0
C      1  0.4400520000000  0.4340470000000  0.4577740000000 1.0
C      1  0.5882530000000  0.4816190000000  0.4578070000000 1.0
C      1  0.4733070000000  0.5856150000000  0.4565700000000 1.0
C      1  0.5606930000000  0.4340210000000  0.5438770000000 1.0
C      1  0.4137320000000  0.4809850000000  0.5432790000000 1.0
C      1  0.5286830000000  0.5842960000000  0.5432400000000 1.0
C      1  0.5477990000000  0.5387250000000  0.4882740000000 1.0
C      1  0.4456740000000  0.5247680000000  0.4885650000000 1.0
C      1  0.5110830000000  0.4395060000000  0.4916430000000 1.0
C      1  0.4551530000000  0.5401640000000  0.5087790000000 1.0
C      1  0.5528720000000  0.5234540000000  0.5105530000000 1.0
C      1  0.4936520000000  0.4395240000000  0.5127700000000 1.0
C      1  0.5808000000000  0.5234200000000  0.5185860000000 1.0
C      1  0.4431840000000  0.5651380000000  0.5157110000000 1.0
C      1  0.4739770000000  0.4162870000000  0.5171050000000 1.0
C      1  0.4158320000000  0.5193680000000  0.4840070000000 1.0
C      1  0.5592440000000  0.5652990000000  0.4833090000000 1.0
C      1  0.5276660000000  0.4170830000000  0.4849550000000 1.0
C      1  0.4395910000000  0.4782480000000  0.4793240000000 1.0
C      1  0.5503000000000  0.4577900000000  0.4766430000000 1.0
C      1  0.5116020000000  0.5655850000000  0.4790450000000 1.0
C      1  0.5605560000000  0.4786730000000  0.5217510000000 1.0
C      1  0.4512210000000  0.4582250000000  0.5216770000000 1.0
C      1  0.4892850000000  0.5641000000000  0.5247280000000 1.0
C      1  0.4836360000000  0.4617170000000  0.5944510000000 1.0
C      1  0.5409450000000  0.5039940000000  0.5951910000000 1.0
C      1  0.4760330000000  0.5341470000000  0.5955470000000 1.0
C      1  0.5187160000000  0.4605790000000  0.4053460000000 1.0
C      1  0.4562110000000  0.5040550000000  0.4069000000000 1.0
C      1  0.5255370000000  0.5353100000000  0.4073950000000 1.0
C      1  0.4931240000000  0.4700840000000  0.4139900000000 1.0
C      1  0.5289600000000  0.5086020000000  0.4158440000000 1.0
C      1  0.4779990000000  0.5202890000000  0.4146440000000 1.0
C      1  0.5075340000000  0.4685990000000  0.5856130000000 1.0
C      1  0.4720490000000  0.5089210000000  0.5849550000000 1.0
C      1  0.5226830000000  0.5209230000000  0.5860780000000 1.0
C      1  0.5026590000000  0.5732470000000  0.5504090000000 1.0
C      1  0.4369890000000  0.4652480000000  0.5490290000000 1.0
C      1  0.5616530000000  0.4623600000000  0.5485830000000 1.0
C      1  0.4983400000000  0.5728210000000  0.4511190000000 1.0
C      1  0.5652060000000  0.4651030000000  0.4510250000000 1.0
C      1  0.4381350000000  0.4621060000000  0.4521010000000 1.0
C      1  0.4948260000000  0.5093380000000  0.5138200000000 1.0
C      1  0.5138100000000  0.4916750000000  0.4981960000000 1.0
END
