TITL C-2441166-8118-1029 0.0077832231913355 125000 -10560.7168633567 0 0 75 (C1) n - 1
REM
REM in /home/bkarasulu/work/CARBON/AIRSS/Generating-Clusters/ReaxFF-fromJPCA2015/Units_Real/with-SteepDescent/Higher-Symm
REM
REM
REM
REM
REM
REM ./C.cell (1df0a924f5614ab8850e4351716899ee)
REM
REM compiler GCC version 9.2.1 20190827 (Red Hat 9.2.1-1)
REM options -cpp -mtune=generic -march=x86-64 -g -O0 -fpre-include=/usr/include/finclude/math-vector-fortran.h
REM seed -1327379485 -1601746922 1744086663 719151647 601661207 1346826654 1929519764 -1970152186 673586009 627017107 1141428236 -1818442407 -1837092605 982143234 981714855 -1332074993 1086099368 568631163 1276979777 595609217 -541321029 862397028 -258758438 680914775 1479108053 -1722813740 1847849153 67955293 -252653108 -1682890949 142288076 -483950967 -274843706
REM
CELL 1.54180   50.00000   50.00000   50.00000   90.00000   90.00000   90.00000
LATT -1
SFAC C  
C      1  0.5197880000000  0.4337250000000  0.5338860000000 1.0
C      1  0.5157660000000  0.5642850000000  0.5440230000000 1.0
C      1  0.5200440000000  0.5050720000000  0.4222290000000 1.0
C      1  0.4829600000000  0.4323670000000  0.4660450000000 1.0
C      1  0.4841390000000  0.5649590000000  0.4539600000000 1.0
C      1  0.4814880000000  0.5034890000000  0.5769800000000 1.0
C      1  0.4769770000000  0.4785000000000  0.4861620000000 1.0
C      1  0.4868030000000  0.5073190000000  0.5249010000000 1.0
C      1  0.4740570000000  0.5054190000000  0.4988850000000 1.0
C      1  0.5235910000000  0.4782800000000  0.5142640000000 1.0
C      1  0.5159260000000  0.5060810000000  0.4754250000000 1.0
C      1  0.5280300000000  0.5044620000000  0.5017710000000 1.0
C      1  0.5122860000000  0.4289630000000  0.4652830000000 1.0
C      1  0.5104050000000  0.5060930000000  0.5813650000000 1.0
C      1  0.5135900000000  0.5652930000000  0.4530890000000 1.0
C      1  0.4909270000000  0.4285540000000  0.5324820000000 1.0
C      1  0.4906830000000  0.5063120000000  0.4192970000000 1.0
C      1  0.4872020000000  0.5672970000000  0.5475120000000 1.0
C      1  0.4723190000000  0.4785560000000  0.5654430000000 1.0
C      1  0.4707290000000  0.5674810000000  0.4792370000000 1.0
C      1  0.4700430000000  0.4507340000000  0.4474900000000 1.0
C      1  0.5272350000000  0.4780400000000  0.4319060000000 1.0
C      1  0.5285990000000  0.5684820000000  0.5186920000000 1.0
C      1  0.5296450000000  0.4523760000000  0.5540740000000 1.0
C      1  0.5393160000000  0.5583770000000  0.4652810000000 1.0
C      1  0.5393600000000  0.4433700000000  0.4642590000000 1.0
C      1  0.5374790000000  0.5002450000000  0.5712740000000 1.0
C      1  0.4605720000000  0.5608580000000  0.5384410000000 1.0
C      1  0.4640630000000  0.4400450000000  0.5338380000000 1.0
C      1  0.4637410000000  0.5008160000000  0.4318430000000 1.0
C      1  0.4713260000000  0.4239400000000  0.5132260000000 1.0
C      1  0.4698110000000  0.5510060000000  0.5623260000000 1.0
C      1  0.4705270000000  0.5271310000000  0.4209550000000 1.0
C      1  0.5326720000000  0.4230510000000  0.4848100000000 1.0
C      1  0.5324860000000  0.5508280000000  0.4390300000000 1.0
C      1  0.5282130000000  0.5253770000000  0.5732570000000 1.0
C      1  0.5303750000000  0.5380100000000  0.5480000000000 1.0
C      1  0.5380560000000  0.5229950000000  0.4367350000000 1.0
C      1  0.5384220000000  0.4342390000000  0.5116000000000 1.0
C      1  0.4645040000000  0.5458390000000  0.4431500000000 1.0
C      1  0.4643610000000  0.5229430000000  0.5642230000000 1.0
C      1  0.4647990000000  0.4357150000000  0.4886600000000 1.0
C      1  0.5581770000000  0.4557010000000  0.5077700000000 1.0
C      1  0.5570180000000  0.5324320000000  0.5327840000000 1.0
C      1  0.5559870000000  0.5148620000000  0.4581180000000 1.0
C      1  0.4424860000000  0.4544370000000  0.4872500000000 1.0
C      1  0.4436730000000  0.5327670000000  0.4603200000000 1.0
C      1  0.4451650000000  0.5152980000000  0.5443800000000 1.0
C      1  0.4371670000000  0.5395460000000  0.4999660000000 1.0
C      1  0.4363870000000  0.4797520000000  0.4704070000000 1.0
C      1  0.4362680000000  0.4888740000000  0.5374620000000 1.0
C      1  0.5657280000000  0.5366710000000  0.5046740000000 1.0
C      1  0.5656620000000  0.4733660000000  0.5297720000000 1.0
C      1  0.5649560000000  0.4863190000000  0.4617650000000 1.0
C      1  0.4841900000000  0.4739220000000  0.4576310000000 1.0
C      1  0.4883710000000  0.4830880000000  0.5412250000000 1.0
C      1  0.4877100000000  0.5478520000000  0.4930250000000 1.0
C      1  0.5147290000000  0.4739820000000  0.5419660000000 1.0
C      1  0.5115140000000  0.4827580000000  0.4574330000000 1.0
C      1  0.5138740000000  0.5476730000000  0.5041890000000 1.0
C      1  0.4425380000000  0.4545860000000  0.4578730000000 1.0
C      1  0.4468150000000  0.4716780000000  0.5549410000000 1.0
C      1  0.4423310000000  0.5559070000000  0.4789850000000 1.0
C      1  0.5548580000000  0.4658290000000  0.5531780000000 1.0
C      1  0.5537300000000  0.4724840000000  0.4400540000000 1.0
C      1  0.5567450000000  0.5589530000000  0.5210190000000 1.0
C      1  0.5562630000000  0.4625810000000  0.4795030000000 1.0
C      1  0.5550260000000  0.4941530000000  0.5485740000000 1.0
C      1  0.5555250000000  0.5368450000000  0.4767430000000 1.0
C      1  0.4462800000000  0.4623480000000  0.5277960000000 1.0
C      1  0.4475110000000  0.5032160000000  0.4564780000000 1.0
C      1  0.4426080000000  0.5394290000000  0.5272280000000 1.0
C      1  0.5002230000000  0.4726120000000  0.5000110000000 1.0
C      1  0.4911940000000  0.5211820000000  0.4804570000000 1.0
C      1  0.5129330000000  0.5219740000000  0.5217150000000 1.0
END
