TITL C-2441156-4686-1341 0.0834733498901701 125000 -17845.2096245858 0 0 130 (C1) n - 1
REM
REM in /home/bkarasulu/work/CARBON/AIRSS/Generating-Clusters/ReaxFF-fromJPCA2015/Units_Real/with-SteepDescent/Higher-Symm
REM
REM
REM
REM
REM
REM ./C.cell (1df0a924f5614ab8850e4351716899ee)
REM
REM compiler GCC version 9.2.1 20190827 (Red Hat 9.2.1-1)
REM options -cpp -mtune=generic -march=x86-64 -g -O0 -fpre-include=/usr/include/finclude/math-vector-fortran.h
REM seed 309954681 1400087510 519379442 -1149948280 1467906057 -1249485688 853435915 1931474687 -1294430205 -350246826 -322853296 471179681 -1524355787 290649638 -2118004990 1706193653 1921791336 -119529925 -1004612811 742409740 357178673 -29867203 297774351 -1782512011 -1523581345 -1996652646 1385296008 2060088553 -253775379 -1043769143 -482614231 -1717704665 1297771462
REM
CELL 1.54180   50.00000   50.00000   50.00000   90.00000   90.00000   90.00000
LATT -1
SFAC C  
C      1  0.5427240000000  0.5788570000000  0.4811860000000 1.0
C      1  0.4877310000000  0.5754900000000  0.4649920000000 1.0
C      1  0.4627400000000  0.5756620000000  0.4848030000000 1.0
C      1  0.4904750000000  0.5754530000000  0.5353550000000 1.0
C      1  0.5209720000000  0.5752680000000  0.5341380000000 1.0
C      1  0.5433550000000  0.4224710000000  0.4821800000000 1.0
C      1  0.4884230000000  0.4221210000000  0.4711790000000 1.0
C      1  0.4641940000000  0.4221700000000  0.4852810000000 1.0
C      1  0.4898520000000  0.4231430000000  0.5358440000000 1.0
C      1  0.5202680000000  0.4254030000000  0.5324800000000 1.0
C      1  0.4401380000000  0.5659700000000  0.5411080000000 1.0
C      1  0.5227090000000  0.5686730000000  0.5629730000000 1.0
C      1  0.5678630000000  0.5701680000000  0.4958040000000 1.0
C      1  0.5220970000000  0.5627930000000  0.4335980000000 1.0
C      1  0.4432450000000  0.5684240000000  0.4625870000000 1.0
C      1  0.4384120000000  0.4337750000000  0.5399990000000 1.0
C      1  0.5228640000000  0.4323990000000  0.5626430000000 1.0
C      1  0.5677820000000  0.4306190000000  0.4988620000000 1.0
C      1  0.5188060000000  0.4376790000000  0.4415950000000 1.0
C      1  0.4448670000000  0.4312800000000  0.4618090000000 1.0
C      1  0.4972570000000  0.6033560000000  0.4768790000000 1.0
C      1  0.4750420000000  0.6021110000000  0.4953610000000 1.0
C      1  0.4889310000000  0.6035450000000  0.5204220000000 1.0
C      1  0.5175310000000  0.6019080000000  0.5175900000000 1.0
C      1  0.5228870000000  0.6029630000000  0.4895520000000 1.0
C      1  0.4982470000000  0.3958750000000  0.4778350000000 1.0
C      1  0.4759450000000  0.3935680000000  0.4966830000000 1.0
C      1  0.4897860000000  0.3949300000000  0.5214520000000 1.0
C      1  0.5181030000000  0.3986740000000  0.5170770000000 1.0
C      1  0.5247390000000  0.3986590000000  0.4893400000000 1.0
C      1  0.4609510000000  0.5500580000000  0.5038190000000 1.0
C      1  0.4837750000000  0.5519290000000  0.5203360000000 1.0
C      1  0.5324410000000  0.5496050000000  0.5176530000000 1.0
C      1  0.5257960000000  0.5563520000000  0.4901000000000 1.0
C      1  0.5022260000000  0.5534500000000  0.4757150000000 1.0
C      1  0.4629510000000  0.4437230000000  0.5045370000000 1.0
C      1  0.4838390000000  0.4468550000000  0.5212340000000 1.0
C      1  0.5291810000000  0.4506140000000  0.5144800000000 1.0
C      1  0.5278320000000  0.4483450000000  0.4854020000000 1.0
C      1  0.5051620000000  0.4441300000000  0.4680480000000 1.0
C      1  0.5161890000000  0.5106190000000  0.5108040000000 1.0
C      1  0.5180310000000  0.5137530000000  0.4831690000000 1.0
C      1  0.4929310000000  0.5270520000000  0.4746780000000 1.0
C      1  0.4798280000000  0.5144670000000  0.4992190000000 1.0
C      1  0.4917010000000  0.5251310000000  0.5244550000000 1.0
C      1  0.5201990000000  0.4788750000000  0.5195430000000 1.0
C      1  0.5122200000000  0.4868210000000  0.4774890000000 1.0
C      1  0.4880700000000  0.4720530000000  0.4744080000000 1.0
C      1  0.4771630000000  0.4856360000000  0.5012510000000 1.0
C      1  0.4909920000000  0.4738970000000  0.5258210000000 1.0
C      1  0.4733020000000  0.4357890000000  0.4330390000000 1.0
C      1  0.4222450000000  0.4326020000000  0.5051310000000 1.0
C      1  0.4813140000000  0.4310970000000  0.5644130000000 1.0
C      1  0.5642310000000  0.4364850000000  0.5391310000000 1.0
C      1  0.5568100000000  0.4311100000000  0.4562230000000 1.0
C      1  0.4762720000000  0.5692360000000  0.4373050000000 1.0
C      1  0.4211810000000  0.5644210000000  0.5063190000000 1.0
C      1  0.4811180000000  0.5698340000000  0.5643360000000 1.0
C      1  0.5647880000000  0.5608090000000  0.5451490000000 1.0
C      1  0.5550810000000  0.5699480000000  0.4555850000000 1.0
C      1  0.5478840000000  0.5241550000000  0.4353510000000 1.0
C      1  0.4553540000000  0.5263340000000  0.4384120000000 1.0
C      1  0.4208680000000  0.5273750000000  0.5245830000000 1.0
C      1  0.5002110000000  0.5252480000000  0.5846390000000 1.0
C      1  0.5781180000000  0.5280500000000  0.5248090000000 1.0
C      1  0.5491230000000  0.4735760000000  0.4327830000000 1.0
C      1  0.4547120000000  0.4759640000000  0.4369100000000 1.0
C      1  0.4268550000000  0.4766690000000  0.5211350000000 1.0
C      1  0.4985410000000  0.4741160000000  0.5759190000000 1.0
C      1  0.5777500000000  0.4732270000000  0.5249340000000 1.0
C      1  0.4169430000000  0.5279190000000  0.4749860000000 1.0
C      1  0.4571840000000  0.5264720000000  0.5633450000000 1.0
C      1  0.5520020000000  0.5280400000000  0.5678640000000 1.0
C      1  0.5796800000000  0.5274330000000  0.4724100000000 1.0
C      1  0.4991510000000  0.5279130000000  0.4152140000000 1.0
C      1  0.4188430000000  0.4716430000000  0.4756070000000 1.0
C      1  0.4509900000000  0.4722050000000  0.5678670000000 1.0
C      1  0.5505030000000  0.4740060000000  0.5648700000000 1.0
C      1  0.5811040000000  0.4725130000000  0.4724350000000 1.0
C      1  0.4984710000000  0.4722650000000  0.4159120000000 1.0
C      1  0.4213830000000  0.5570250000000  0.4786500000000 1.0
C      1  0.4550150000000  0.5578890000000  0.5628200000000 1.0
C      1  0.5494860000000  0.5573520000000  0.5678290000000 1.0
C      1  0.5751620000000  0.5564760000000  0.4719810000000 1.0
C      1  0.4985850000000  0.5572880000000  0.4214930000000 1.0
C      1  0.4234050000000  0.4428760000000  0.4784300000000 1.0
C      1  0.4543540000000  0.4433530000000  0.5613890000000 1.0
C      1  0.5497940000000  0.4435540000000  0.5621870000000 1.0
C      1  0.5766840000000  0.4439470000000  0.4741150000000 1.0
C      1  0.4973480000000  0.4431980000000  0.4219070000000 1.0
C      1  0.5014590000000  0.4458730000000  0.5744600000000 1.0
C      1  0.5616600000000  0.4487030000000  0.5185720000000 1.0
C      1  0.5442890000000  0.4465050000000  0.4370940000000 1.0
C      1  0.4538950000000  0.4462520000000  0.4408740000000 1.0
C      1  0.4372220000000  0.4457820000000  0.5186570000000 1.0
C      1  0.5015990000000  0.5519810000000  0.5736530000000 1.0
C      1  0.5655330000000  0.5545010000000  0.5200540000000 1.0
C      1  0.5429440000000  0.5519100000000  0.4399150000000 1.0
C      1  0.4538620000000  0.5545500000000  0.4408890000000 1.0
C      1  0.4359530000000  0.5529550000000  0.5212800000000 1.0
C      1  0.5370860000000  0.5190830000000  0.5282050000000 1.0
C      1  0.5454150000000  0.5070340000000  0.4722080000000 1.0
C      1  0.4788800000000  0.5151780000000  0.4528790000000 1.0
C      1  0.4514860000000  0.5201600000000  0.4960830000000 1.0
C      1  0.4799410000000  0.5132240000000  0.5473610000000 1.0
C      1  0.5384840000000  0.4927360000000  0.5369100000000 1.0
C      1  0.5387260000000  0.4793920000000  0.4740060000000 1.0
C      1  0.4786340000000  0.4875590000000  0.4518290000000 1.0
C      1  0.4486940000000  0.4925630000000  0.5037860000000 1.0
C      1  0.4878880000000  0.4867690000000  0.5506320000000 1.0
C      1  0.5267980000000  0.5140350000000  0.5778900000000 1.0
C      1  0.5807940000000  0.5144670000000  0.4992470000000 1.0
C      1  0.5237270000000  0.5135150000000  0.4237680000000 1.0
C      1  0.4324400000000  0.5135390000000  0.4545340000000 1.0
C      1  0.4335350000000  0.5146400000000  0.5471840000000 1.0
C      1  0.5266070000000  0.4865440000000  0.5773740000000 1.0
C      1  0.5812980000000  0.4861380000000  0.4990760000000 1.0
C      1  0.5236300000000  0.4854670000000  0.4235260000000 1.0
C      1  0.4328650000000  0.4862390000000  0.4549770000000 1.0
C      1  0.4341840000000  0.4868500000000  0.5486370000000 1.0
C      1  0.4734790000000  0.5144190000000  0.4123590000000 1.0
C      1  0.4097980000000  0.5146760000000  0.5006160000000 1.0
C      1  0.4730850000000  0.5138040000000  0.5880450000000 1.0
C      1  0.5725310000000  0.5153480000000  0.5509140000000 1.0
C      1  0.5728460000000  0.5138530000000  0.4459840000000 1.0
C      1  0.4726380000000  0.4855960000000  0.4114620000000 1.0
C      1  0.4081330000000  0.4857810000000  0.4992280000000 1.0
C      1  0.4692170000000  0.4852410000000  0.5868590000000 1.0
C      1  0.5755610000000  0.4863730000000  0.5514600000000 1.0
C      1  0.5718760000000  0.4845770000000  0.4473230000000 1.0
END
