TITL C-2441161-5029-934 0.0455774791003522 125000 -23053.9053743741 0 0 162 (C1) n - 1
REM
REM in /home/bkarasulu/work/CARBON/AIRSS/Generating-Clusters/ReaxFF-fromJPCA2015/Units_Real/with-SteepDescent/Higher-Symm
REM
REM
REM
REM
REM
REM ./C.cell (1df0a924f5614ab8850e4351716899ee)
REM
REM compiler GCC version 9.2.1 20190827 (Red Hat 9.2.1-1)
REM options -cpp -mtune=generic -march=x86-64 -g -O0 -fpre-include=/usr/include/finclude/math-vector-fortran.h
REM seed 670487072 -2123879925 -1426179242 -1457106054 691485961 -124680602 -991645908 1601938280 588714369 -1769901510 -502805943 851564009 -1252198355 934401991 1207434077 -2029695571 2014123948 -1335173481 1598370521 -178179575 1759677086 -1583207772 -198273872 654310179 1273215635 -1951138921 1906566590 674431433 -933486203 1155785605 1125281021 1114596185 139015920
REM
CELL 1.54180   50.00000   50.00000   50.00000   90.00000   90.00000   90.00000
LATT -1
SFAC C  
C      1  0.6121170000000  0.4618550000000  0.5357250000000 1.0
C      1  0.6142550000000  0.4537590000000  0.4769140000000 1.0
C      1  0.6060100000000  0.5111310000000  0.4531460000000 1.0
C      1  0.5991110000000  0.5522710000000  0.4967380000000 1.0
C      1  0.6065680000000  0.5221980000000  0.5468300000000 1.0
C      1  0.5429000000000  0.5413620000000  0.4870260000000 1.0
C      1  0.5265660000000  0.5222400000000  0.5383900000000 1.0
C      1  0.5404660000000  0.4695420000000  0.5314960000000 1.0
C      1  0.5363010000000  0.4553870000000  0.4801700000000 1.0
C      1  0.5430770000000  0.5046660000000  0.4706120000000 1.0
C      1  0.5137290000000  0.5805100000000  0.4213840000000 1.0
C      1  0.5084870000000  0.6057660000000  0.5450310000000 1.0
C      1  0.5145850000000  0.4885280000000  0.6138640000000 1.0
C      1  0.5138650000000  0.3928090000000  0.5253150000000 1.0
C      1  0.5146290000000  0.4469060000000  0.4092810000000 1.0
C      1  0.4912790000000  0.3987970000000  0.5423770000000 1.0
C      1  0.4920550000000  0.4306590000000  0.4174400000000 1.0
C      1  0.4886600000000  0.5667120000000  0.4155300000000 1.0
C      1  0.4788490000000  0.6018480000000  0.5388150000000 1.0
C      1  0.4761990000000  0.5006520000000  0.6060900000000 1.0
C      1  0.4290890000000  0.5117530000000  0.4056370000000 1.0
C      1  0.4364560000000  0.5901280000000  0.4764800000000 1.0
C      1  0.4359000000000  0.5460370000000  0.5809400000000 1.0
C      1  0.4350490000000  0.4449920000000  0.5633130000000 1.0
C      1  0.4274240000000  0.4161540000000  0.4607210000000 1.0
C      1  0.4515460000000  0.5054020000000  0.5930450000000 1.0
C      1  0.4653830000000  0.4079630000000  0.5311200000000 1.0
C      1  0.4664500000000  0.4445360000000  0.4252260000000 1.0
C      1  0.4451680000000  0.5497920000000  0.4313750000000 1.0
C      1  0.4679920000000  0.6041670000000  0.5138480000000 1.0
C      1  0.5451930000000  0.4277820000000  0.4720890000000 1.0
C      1  0.5476490000000  0.5122090000000  0.4066630000000 1.0
C      1  0.5563050000000  0.5738380000000  0.4902350000000 1.0
C      1  0.5377960000000  0.5392600000000  0.5698280000000 1.0
C      1  0.5423580000000  0.4497060000000  0.5611020000000 1.0
C      1  0.4005200000000  0.5110870000000  0.4525380000000 1.0
C      1  0.4000620000000  0.5498620000000  0.4930100000000 1.0
C      1  0.4051860000000  0.5219470000000  0.5434500000000 1.0
C      1  0.3994180000000  0.4676160000000  0.5304810000000 1.0
C      1  0.3975060000000  0.4598540000000  0.4764660000000 1.0
C      1  0.5379210000000  0.4767230000000  0.4628330000000 1.0
C      1  0.5309770000000  0.5299380000000  0.4621510000000 1.0
C      1  0.5227810000000  0.5344650000000  0.5069780000000 1.0
C      1  0.5340010000000  0.4953710000000  0.5339260000000 1.0
C      1  0.5285660000000  0.4661700000000  0.5052080000000 1.0
C      1  0.5355260000000  0.5606130000000  0.4165490000000 1.0
C      1  0.5331750000000  0.6004650000000  0.5295520000000 1.0
C      1  0.5354490000000  0.5058820000000  0.6062290000000 1.0
C      1  0.5386540000000  0.4042560000000  0.5356660000000 1.0
C      1  0.5387860000000  0.4409880000000  0.4251970000000 1.0
C      1  0.5445990000000  0.5432370000000  0.4395160000000 1.0
C      1  0.5383870000000  0.5714130000000  0.5345300000000 1.0
C      1  0.5413440000000  0.4877510000000  0.5819090000000 1.0
C      1  0.5561970000000  0.4113630000000  0.5135880000000 1.0
C      1  0.5504970000000  0.4639140000000  0.4400700000000 1.0
C      1  0.4030360000000  0.4826850000000  0.4596060000000 1.0
C      1  0.4045550000000  0.5374060000000  0.4663640000000 1.0
C      1  0.4068540000000  0.5417040000000  0.5215970000000 1.0
C      1  0.4032590000000  0.4926670000000  0.5448360000000 1.0
C      1  0.4045020000000  0.4589430000000  0.5039280000000 1.0
C      1  0.5775210000000  0.5673290000000  0.5109960000000 1.0
C      1  0.5814630000000  0.5148180000000  0.5617820000000 1.0
C      1  0.5871040000000  0.4466670000000  0.5349510000000 1.0
C      1  0.5910650000000  0.4470510000000  0.4592880000000 1.0
C      1  0.5867820000000  0.5246030000000  0.4341040000000 1.0
C      1  0.4505660000000  0.5863140000000  0.4518860000000 1.0
C      1  0.4509890000000  0.5710330000000  0.5708440000000 1.0
C      1  0.4586170000000  0.4575500000000  0.5929300000000 1.0
C      1  0.4400040000000  0.4002200000000  0.4842070000000 1.0
C      1  0.4448500000000  0.4858940000000  0.3987900000000 1.0
C      1  0.5997340000000  0.4837670000000  0.5170020000000 1.0
C      1  0.5967100000000  0.4762680000000  0.4892780000000 1.0
C      1  0.5870770000000  0.4904190000000  0.4642570000000 1.0
C      1  0.5886430000000  0.5240110000000  0.4951500000000 1.0
C      1  0.6035250000000  0.5121940000000  0.5185810000000 1.0
C      1  0.5664190000000  0.5399450000000  0.5584270000000 1.0
C      1  0.5710800000000  0.4605900000000  0.5575850000000 1.0
C      1  0.5760550000000  0.4336380000000  0.4808410000000 1.0
C      1  0.5703750000000  0.5039130000000  0.4224080000000 1.0
C      1  0.5674860000000  0.5739360000000  0.4606780000000 1.0
C      1  0.5361020000000  0.4889290000000  0.4086190000000 1.0
C      1  0.5434880000000  0.5842620000000  0.4507890000000 1.0
C      1  0.5241220000000  0.5643070000000  0.5729880000000 1.0
C      1  0.5328820000000  0.4613050000000  0.5856760000000 1.0
C      1  0.5399230000000  0.4077250000000  0.4910170000000 1.0
C      1  0.5124200000000  0.4024290000000  0.4976620000000 1.0
C      1  0.5110290000000  0.4766910000000  0.4119980000000 1.0
C      1  0.5149970000000  0.5860800000000  0.4504850000000 1.0
C      1  0.5158080000000  0.5872560000000  0.5649580000000 1.0
C      1  0.5102870000000  0.4632790000000  0.6037750000000 1.0
C      1  0.5030920000000  0.4162710000000  0.4402540000000 1.0
C      1  0.4980330000000  0.5404180000000  0.4072230000000 1.0
C      1  0.5090890000000  0.5818650000000  0.5014810000000 1.0
C      1  0.5002980000000  0.5149960000000  0.5872380000000 1.0
C      1  0.5035710000000  0.4187430000000  0.5596160000000 1.0
C      1  0.4951850000000  0.4895050000000  0.4338180000000 1.0
C      1  0.4969820000000  0.5668740000000  0.4634240000000 1.0
C      1  0.4974230000000  0.5274910000000  0.5416430000000 1.0
C      1  0.4970090000000  0.4732020000000  0.5550190000000 1.0
C      1  0.4953420000000  0.4254090000000  0.4922350000000 1.0
C      1  0.4852710000000  0.4732610000000  0.4838940000000 1.0
C      1  0.4878090000000  0.5126480000000  0.4678700000000 1.0
C      1  0.5006680000000  0.5153010000000  0.4958510000000 1.0
C      1  0.4833670000000  0.5237540000000  0.5183240000000 1.0
C      1  0.4890450000000  0.4737690000000  0.5263010000000 1.0
C      1  0.5724880000000  0.5496490000000  0.4442460000000 1.0
C      1  0.5656510000000  0.5592770000000  0.5371450000000 1.0
C      1  0.5686530000000  0.4880030000000  0.5660450000000 1.0
C      1  0.5768830000000  0.4308910000000  0.5096030000000 1.0
C      1  0.5780660000000  0.4721870000000  0.4424360000000 1.0
C      1  0.4238230000000  0.4685150000000  0.4461570000000 1.0
C      1  0.4302310000000  0.5481030000000  0.4573640000000 1.0
C      1  0.4262250000000  0.5639660000000  0.5220860000000 1.0
C      1  0.4250610000000  0.4932980000000  0.5652680000000 1.0
C      1  0.4247930000000  0.4419300000000  0.5108630000000 1.0
C      1  0.4602460000000  0.5006700000000  0.4667470000000 1.0
C      1  0.4458390000000  0.5145850000000  0.4886050000000 1.0
C      1  0.4555090000000  0.5158000000000  0.5160130000000 1.0
C      1  0.4580370000000  0.4856630000000  0.5224200000000 1.0
C      1  0.4601060000000  0.4682830000000  0.4961840000000 1.0
C      1  0.4481520000000  0.4841490000000  0.4464240000000 1.0
C      1  0.4481960000000  0.5425050000000  0.4804030000000 1.0
C      1  0.4556530000000  0.5569050000000  0.5245820000000 1.0
C      1  0.4500120000000  0.4896200000000  0.5505730000000 1.0
C      1  0.4489120000000  0.4414470000000  0.4938670000000 1.0
C      1  0.4574870000000  0.4358790000000  0.5767250000000 1.0
C      1  0.4540900000000  0.4050770000000  0.4594200000000 1.0
C      1  0.4576680000000  0.5109640000000  0.3977030000000 1.0
C      1  0.4597660000000  0.6034660000000  0.4881190000000 1.0
C      1  0.4642410000000  0.5490190000000  0.5825820000000 1.0
C      1  0.4182500000000  0.5729560000000  0.4952320000000 1.0
C      1  0.4212420000000  0.5230400000000  0.5688590000000 1.0
C      1  0.4191780000000  0.4469280000000  0.5399020000000 1.0
C      1  0.4160170000000  0.4431910000000  0.4599940000000 1.0
C      1  0.4165010000000  0.5191620000000  0.4303020000000 1.0
C      1  0.4837730000000  0.5286340000000  0.5671170000000 1.0
C      1  0.4866810000000  0.4429890000000  0.5623300000000 1.0
C      1  0.4818680000000  0.4196160000000  0.4636960000000 1.0
C      1  0.4811700000000  0.5149090000000  0.4166480000000 1.0
C      1  0.4843950000000  0.5779810000000  0.4857960000000 1.0
C      1  0.4697200000000  0.4460060000000  0.4539010000000 1.0
C      1  0.4688220000000  0.5326890000000  0.4369820000000 1.0
C      1  0.4659770000000  0.5575140000000  0.4976430000000 1.0
C      1  0.4628170000000  0.5078370000000  0.5669950000000 1.0
C      1  0.4737410000000  0.4353910000000  0.5365000000000 1.0
C      1  0.5349740000000  0.5943740000000  0.5005930000000 1.0
C      1  0.5253840000000  0.5299210000000  0.5943810000000 1.0
C      1  0.5316990000000  0.4222170000000  0.5568320000000 1.0
C      1  0.5307390000000  0.4210640000000  0.4440530000000 1.0
C      1  0.5262740000000  0.5372800000000  0.4025810000000 1.0
C      1  0.4646540000000  0.5761720000000  0.5454110000000 1.0
C      1  0.4786200000000  0.4707290000000  0.6070780000000 1.0
C      1  0.4559320000000  0.4137470000000  0.5042000000000 1.0
C      1  0.4567980000000  0.4720090000000  0.4211000000000 1.0
C      1  0.4614910000000  0.5743250000000  0.4283980000000 1.0
C      1  0.4872480000000  0.4709810000000  0.4549900000000 1.0
C      1  0.4914830000000  0.5391750000000  0.4546600000000 1.0
C      1  0.5173740000000  0.5607460000000  0.5176880000000 1.0
C      1  0.5108630000000  0.4922430000000  0.5707940000000 1.0
C      1  0.4898760000000  0.4430550000000  0.5144230000000 1.0
C      1  0.5603740000000  0.5184670000000  0.4889040000000 1.0
C      1  0.5045500000000  0.4834610000000  0.5031750000000 1.0
END
