TITL C-2441156-4686-283 0.00793836485302932 125000 -1656.00851746161 0 0 15 (D2) n - 1
REM
REM in /home/bkarasulu/work/CARBON/AIRSS/Generating-Clusters/ReaxFF-fromJPCA2015/Units_Real/with-SteepDescent/Higher-Symm
REM
REM
REM
REM
REM
REM ./C.cell (1df0a924f5614ab8850e4351716899ee)
REM
REM compiler GCC version 9.2.1 20190827 (Red Hat 9.2.1-1)
REM options -cpp -mtune=generic -march=x86-64 -g -O0 -fpre-include=/usr/include/finclude/math-vector-fortran.h
REM seed 1497564999 1718321445 1223914023 -1185255566 1949079299 1060680139 -1535590941 784798125 -1449363150 -2045154891 551844913 755051655 -966695461 417777902 -287241741 544152977 1207264529 1546680628 -1560541059 -1570097460 -1875359524 1747825116 668256980 -104919481 -2139567612 92699215 1707199026 -2106383449 -615974230 148523236 -1461458210 2083033555 1981372893
REM
CELL 1.54180   50.00000   50.00000   50.00000   90.00000   90.00000   90.00000
LATT -1
SFAC C  
C      1  0.5289420000000  0.4394350000000  0.5079260000000 1.0
C      1  0.4735630000000  0.4394370000000  0.4940130000000 1.0
C      1  0.5289330000000  0.5510380000000  0.4940150000000 1.0
C      1  0.4735460000000  0.5510370000000  0.5079210000000 1.0
C      1  0.5348900000000  0.4509570000000  0.4825850000000 1.0
C      1  0.4676080000000  0.4509760000000  0.5193650000000 1.0
C      1  0.5348920000000  0.5395010000000  0.5193630000000 1.0
C      1  0.4676020000000  0.5395100000000  0.4825840000000 1.0
C      1  0.4907450000000  0.4739950000000  0.5190240000000 1.0
C      1  0.5117280000000  0.4740460000000  0.4829310000000 1.0
C      1  0.4907700000000  0.5164210000000  0.4829280000000 1.0
C      1  0.5117500000000  0.5164570000000  0.5190120000000 1.0
C      1  0.5012380000000  0.4563710000000  0.5009650000000 1.0
C      1  0.5012470000000  0.5341130000000  0.5009640000000 1.0
C      1  0.5012440000000  0.4952400000000  0.5009750000000 1.0
END
