TITL C-2441163-1170-1308 0.0492683119010257 125000 -17467.7502092863 0 0 130 (C1) n - 1
REM
REM in /home/bkarasulu/work/CARBON/AIRSS/Generating-Clusters/ReaxFF-fromJPCA2015/Units_Real/with-SteepDescent/Higher-Symm
REM
REM
REM
REM
REM
REM ./C.cell (1df0a924f5614ab8850e4351716899ee)
REM
REM compiler GCC version 9.2.1 20190827 (Red Hat 9.2.1-1)
REM options -cpp -mtune=generic -march=x86-64 -g -O0 -fpre-include=/usr/include/finclude/math-vector-fortran.h
REM seed 1241159226 1619679518 1192777864 404232067 -982698974 1844072764 -881878504 339449302 -1193401647 692014536 1299610612 789324302 642778691 -997058618 -350427010 -1874784176 -247325980 -1977223843 -1437093104 418950270 2100328546 -1181495740 -1081132329 -1567643106 718132669 -39471733 -1030274817 -228853404 1754685774 -518369194 -401780396 -618658376 1736559822
REM
CELL 1.54180   50.00000   50.00000   50.00000   90.00000   90.00000   90.00000
LATT -1
SFAC C  
C      1  0.4080280000000  0.4723140000000  0.5407170000000 1.0
C      1  0.5931520000000  0.5264900000000  0.5438480000000 1.0
C      1  0.5894160000000  0.4695200000000  0.4601250000000 1.0
C      1  0.4085030000000  0.5281990000000  0.4613970000000 1.0
C      1  0.4658300000000  0.5742750000000  0.4460020000000 1.0
C      1  0.5327780000000  0.4240260000000  0.4459470000000 1.0
C      1  0.5315970000000  0.5729260000000  0.5539270000000 1.0
C      1  0.4647300000000  0.4221840000000  0.5529120000000 1.0
C      1  0.5190530000000  0.5463040000000  0.5521710000000 1.0
C      1  0.4749900000000  0.4517440000000  0.5541320000000 1.0
C      1  0.4803540000000  0.5463330000000  0.4508550000000 1.0
C      1  0.5198890000000  0.4528530000000  0.4489500000000 1.0
C      1  0.5152750000000  0.5189050000000  0.4879510000000 1.0
C      1  0.4803980000000  0.4850230000000  0.4840630000000 1.0
C      1  0.4770580000000  0.5154780000000  0.5159480000000 1.0
C      1  0.5138750000000  0.4784210000000  0.5174480000000 1.0
C      1  0.5534320000000  0.5391720000000  0.4348780000000 1.0
C      1  0.4457190000000  0.4597070000000  0.4348310000000 1.0
C      1  0.4457540000000  0.5417750000000  0.5670240000000 1.0
C      1  0.5549120000000  0.4598320000000  0.5673270000000 1.0
C      1  0.4381930000000  0.4360320000000  0.4690970000000 1.0
C      1  0.5602250000000  0.5622140000000  0.4694480000000 1.0
C      1  0.5599640000000  0.4372100000000  0.5324050000000 1.0
C      1  0.4408090000000  0.5643440000000  0.5310230000000 1.0
C      1  0.4795850000000  0.4783320000000  0.4046980000000 1.0
C      1  0.5188320000000  0.5207900000000  0.4054540000000 1.0
C      1  0.5208120000000  0.4777150000000  0.5969420000000 1.0
C      1  0.4798570000000  0.5229970000000  0.5967130000000 1.0
C      1  0.4288650000000  0.5404940000000  0.5443590000000 1.0
C      1  0.5729720000000  0.4607610000000  0.5453000000000 1.0
C      1  0.5722980000000  0.5375950000000  0.4565450000000 1.0
C      1  0.4272050000000  0.4612580000000  0.4565630000000 1.0
C      1  0.5935600000000  0.4829650000000  0.5058990000000 1.0
C      1  0.4147320000000  0.5176840000000  0.5111790000000 1.0
C      1  0.4121870000000  0.4826410000000  0.4898870000000 1.0
C      1  0.5919100000000  0.5266790000000  0.4912830000000 1.0
C      1  0.4298820000000  0.4869010000000  0.5541600000000 1.0
C      1  0.5683430000000  0.5117210000000  0.5484950000000 1.0
C      1  0.5686270000000  0.4888720000000  0.4510730000000 1.0
C      1  0.4286580000000  0.5108300000000  0.4484270000000 1.0
C      1  0.4921920000000  0.4809430000000  0.5865610000000 1.0
C      1  0.5054660000000  0.5208930000000  0.5811220000000 1.0
C      1  0.5056720000000  0.4794010000000  0.4198090000000 1.0
C      1  0.4931540000000  0.5188890000000  0.4204790000000 1.0
C      1  0.5030390000000  0.5550050000000  0.4400990000000 1.0
C      1  0.4955650000000  0.4431380000000  0.4383980000000 1.0
C      1  0.4946020000000  0.5579040000000  0.5630200000000 1.0
C      1  0.5023410000000  0.4426850000000  0.5626300000000 1.0
C      1  0.4596590000000  0.4072080000000  0.5105580000000 1.0
C      1  0.5402510000000  0.5912040000000  0.5123960000000 1.0
C      1  0.5426020000000  0.4115740000000  0.4895290000000 1.0
C      1  0.4585460000000  0.5910590000000  0.4881950000000 1.0
C      1  0.3983170000000  0.5047260000000  0.4756890000000 1.0
C      1  0.6024130000000  0.4905410000000  0.4752440000000 1.0
C      1  0.6058880000000  0.5041210000000  0.5320790000000 1.0
C      1  0.4005720000000  0.4969320000000  0.5267760000000 1.0
C      1  0.5959450000000  0.5180850000000  0.4654800000000 1.0
C      1  0.4054910000000  0.4793460000000  0.4629770000000 1.0
C      1  0.4070070000000  0.5224940000000  0.5373750000000 1.0
C      1  0.5968700000000  0.4769580000000  0.5349030000000 1.0
C      1  0.4679880000000  0.4711890000000  0.5756640000000 1.0
C      1  0.5416190000000  0.5372620000000  0.5713190000000 1.0
C      1  0.5414760000000  0.4615240000000  0.4274710000000 1.0
C      1  0.4570570000000  0.5363760000000  0.4291480000000 1.0
C      1  0.5527630000000  0.5103830000000  0.5731200000000 1.0
C      1  0.4474380000000  0.4904780000000  0.5774460000000 1.0
C      1  0.4446240000000  0.5103610000000  0.4238180000000 1.0
C      1  0.5530500000000  0.4883730000000  0.4259440000000 1.0
C      1  0.4790800000000  0.5482610000000  0.4793790000000 1.0
C      1  0.5205430000000  0.4523310000000  0.4786820000000 1.0
C      1  0.5225480000000  0.5463090000000  0.5219520000000 1.0
C      1  0.4760180000000  0.4516080000000  0.5230160000000 1.0
C      1  0.5208070000000  0.5193730000000  0.5153810000000 1.0
C      1  0.4854450000000  0.4751040000000  0.5096240000000 1.0
C      1  0.4874070000000  0.5244460000000  0.4913840000000 1.0
C      1  0.5201490000000  0.4774270000000  0.4897350000000 1.0
C      1  0.5055350000000  0.5679990000000  0.5129050000000 1.0
C      1  0.4936160000000  0.4312520000000  0.5136400000000 1.0
C      1  0.4986190000000  0.5701220000000  0.4823200000000 1.0
C      1  0.5004710000000  0.4302450000000  0.4831400000000 1.0
C      1  0.4459500000000  0.4915690000000  0.5304220000000 1.0
C      1  0.5593060000000  0.5085870000000  0.5208090000000 1.0
C      1  0.5533720000000  0.4937810000000  0.4744200000000 1.0
C      1  0.4472810000000  0.5071310000000  0.4708690000000 1.0
C      1  0.5155760000000  0.5732840000000  0.4562360000000 1.0
C      1  0.4833020000000  0.4257350000000  0.4563070000000 1.0
C      1  0.4822810000000  0.5792570000000  0.5502710000000 1.0
C      1  0.5161070000000  0.4234120000000  0.5490270000000 1.0
C      1  0.5212090000000  0.4111660000000  0.4695250000000 1.0
C      1  0.4787600000000  0.5894090000000  0.4674750000000 1.0
C      1  0.4822630000000  0.4108560000000  0.5309780000000 1.0
C      1  0.5173910000000  0.5871480000000  0.5318600000000 1.0
C      1  0.5709820000000  0.5331350000000  0.5098280000000 1.0
C      1  0.4340010000000  0.4745880000000  0.5086950000000 1.0
C      1  0.4361730000000  0.5242220000000  0.4916750000000 1.0
C      1  0.5646870000000  0.4884870000000  0.5006690000000 1.0
C      1  0.4284490000000  0.5497350000000  0.4716780000000 1.0
C      1  0.5758040000000  0.4432540000000  0.4629390000000 1.0
C      1  0.5749820000000  0.5548820000000  0.5332570000000 1.0
C      1  0.4241020000000  0.4504090000000  0.5249890000000 1.0
C      1  0.4580550000000  0.5663110000000  0.5061970000000 1.0
C      1  0.5465000000000  0.4363690000000  0.5057180000000 1.0
C      1  0.5460620000000  0.5667100000000  0.4958930000000 1.0
C      1  0.4558630000000  0.4320980000000  0.4932140000000 1.0
C      1  0.4931180000000  0.4542510000000  0.4123450000000 1.0
C      1  0.5056350000000  0.5450350000000  0.4142380000000 1.0
C      1  0.5060300000000  0.4556690000000  0.5879890000000 1.0
C      1  0.4946240000000  0.5463100000000  0.5894270000000 1.0
C      1  0.4428790000000  0.5568340000000  0.4444720000000 1.0
C      1  0.5566720000000  0.4396020000000  0.4407470000000 1.0
C      1  0.5563090000000  0.5584870000000  0.5568110000000 1.0
C      1  0.4391140000000  0.4338220000000  0.5471490000000 1.0
C      1  0.5449030000000  0.4831640000000  0.5817950000000 1.0
C      1  0.4542130000000  0.5190490000000  0.5832760000000 1.0
C      1  0.4543590000000  0.4828200000000  0.4183870000000 1.0
C      1  0.5439600000000  0.5155670000000  0.4192430000000 1.0
C      1  0.4562880000000  0.5696050000000  0.5556730000000 1.0
C      1  0.5420800000000  0.4325490000000  0.5553180000000 1.0
C      1  0.5421610000000  0.5650450000000  0.4474000000000 1.0
C      1  0.4570080000000  0.4339660000000  0.4470030000000 1.0
C      1  0.5244560000000  0.4991470000000  0.4695960000000 1.0
C      1  0.4752200000000  0.4939590000000  0.4625740000000 1.0
C      1  0.4718280000000  0.5065120000000  0.5386330000000 1.0
C      1  0.5177080000000  0.4990520000000  0.5367180000000 1.0
C      1  0.4349800000000  0.5739040000000  0.4896490000000 1.0
C      1  0.5671080000000  0.4277500000000  0.4862260000000 1.0
C      1  0.5657170000000  0.5770400000000  0.5151010000000 1.0
C      1  0.4340720000000  0.4208210000000  0.5085020000000 1.0
C      1  0.4976250000000  0.5026240000000  0.5583710000000 1.0
C      1  0.4993730000000  0.4988390000000  0.4421040000000 1.0
END
