TITL C-2441164-471-9 0.0656117030834737 125000 -15864.4641004299 0 0 114 (C1) n - 1
REM
REM in /home/bkarasulu/work/CARBON/AIRSS/Generating-Clusters/ReaxFF-fromJPCA2015/Units_Real/with-SteepDescent/Higher-Symm
REM
REM
REM
REM
REM
REM ./C.cell (1df0a924f5614ab8850e4351716899ee)
REM
REM compiler GCC version 9.2.1 20190827 (Red Hat 9.2.1-1)
REM options -cpp -mtune=generic -march=x86-64 -g -O0 -fpre-include=/usr/include/finclude/math-vector-fortran.h
REM seed 1820647429 -106693720 -168354406 -1977693133 -119569081 -29756064 799429504 548419507 -1945449254 1421958427 -1084045295 -1868934839 -542957280 2115852536 1539988549 152399471 -1233809897 938952363 600443073 -205103497 9810585 -1883813221 255036153 -1414562737 1041622363 -746636246 -1057689681 794252294 474252053 -1351554935 1363473553 -552492602 1439737074
REM
CELL 1.54180   50.00000   50.00000   50.00000   90.00000   90.00000   90.00000
LATT -1
SFAC C  
C      1  0.5003110000000  0.4737040000000  0.4437920000000 1.0
C      1  0.5249530000000  0.5131370000000  0.4434690000000 1.0
C      1  0.4776370000000  0.5140760000000  0.4460930000000 1.0
C      1  0.5012060000000  0.5276610000000  0.4534570000000 1.0
C      1  0.5246520000000  0.4863640000000  0.4433060000000 1.0
C      1  0.4757930000000  0.4864220000000  0.4531990000000 1.0
C      1  0.4787790000000  0.5133280000000  0.4924010000000 1.0
C      1  0.4990470000000  0.4699840000000  0.4901390000000 1.0
C      1  0.5225470000000  0.5151450000000  0.4937770000000 1.0
C      1  0.4757170000000  0.4857820000000  0.4860000000000 1.0
C      1  0.5009260000000  0.5285080000000  0.4830270000000 1.0
C      1  0.5232100000000  0.4853890000000  0.4911700000000 1.0
C      1  0.4980450000000  0.4019090000000  0.5089260000000 1.0
C      1  0.5862930000000  0.5390930000000  0.5086040000000 1.0
C      1  0.4214460000000  0.5572060000000  0.5095900000000 1.0
C      1  0.4957730000000  0.5956120000000  0.5053850000000 1.0
C      1  0.5866310000000  0.4555430000000  0.5066730000000 1.0
C      1  0.4198930000000  0.4455420000000  0.5068450000000 1.0
C      1  0.4856770000000  0.5935040000000  0.4743990000000 1.0
C      1  0.4268450000000  0.4434360000000  0.4649650000000 1.0
C      1  0.5878710000000  0.4682300000000  0.4708730000000 1.0
C      1  0.4893110000000  0.4031140000000  0.4798670000000 1.0
C      1  0.4296790000000  0.5575460000000  0.4627510000000 1.0
C      1  0.5869280000000  0.5305060000000  0.4660220000000 1.0
C      1  0.5337200000000  0.5831810000000  0.4846140000000 1.0
C      1  0.4125990000000  0.4873620000000  0.4851180000000 1.0
C      1  0.5555390000000  0.4317600000000  0.4846580000000 1.0
C      1  0.5320110000000  0.4182050000000  0.4843170000000 1.0
C      1  0.4125780000000  0.5153770000000  0.4852550000000 1.0
C      1  0.5560270000000  0.5676730000000  0.4853850000000 1.0
C      1  0.4610230000000  0.5824860000000  0.4881710000000 1.0
C      1  0.4366670000000  0.4274000000000  0.4884520000000 1.0
C      1  0.5950810000000  0.4884160000000  0.4907980000000 1.0
C      1  0.4635910000000  0.4090410000000  0.4883620000000 1.0
C      1  0.4332100000000  0.5724750000000  0.4870430000000 1.0
C      1  0.5972820000000  0.5174510000000  0.4901790000000 1.0
C      1  0.5248080000000  0.5133110000000  0.5343570000000 1.0
C      1  0.4770890000000  0.5158670000000  0.5344580000000 1.0
C      1  0.4973540000000  0.4730540000000  0.5323770000000 1.0
C      1  0.5232160000000  0.4844460000000  0.5391680000000 1.0
C      1  0.4736550000000  0.4877530000000  0.5399190000000 1.0
C      1  0.5007100000000  0.5287410000000  0.5314560000000 1.0
C      1  0.4850490000000  0.4460320000000  0.4795910000000 1.0
C      1  0.5486930000000  0.5169300000000  0.4827760000000 1.0
C      1  0.4596610000000  0.5342300000000  0.4925850000000 1.0
C      1  0.4765530000000  0.5577100000000  0.4913060000000 1.0
C      1  0.5521050000000  0.4884030000000  0.4884490000000 1.0
C      1  0.4600120000000  0.4498190000000  0.4922660000000 1.0
C      1  0.5003510000000  0.4248120000000  0.5534570000000 1.0
C      1  0.5640100000000  0.5381890000000  0.5548710000000 1.0
C      1  0.4361490000000  0.5365790000000  0.5538850000000 1.0
C      1  0.5007940000000  0.5741410000000  0.5524890000000 1.0
C      1  0.5661140000000  0.4648460000000  0.5517780000000 1.0
C      1  0.4358170000000  0.4633600000000  0.5536410000000 1.0
C      1  0.5214530000000  0.5837910000000  0.5100430000000 1.0
C      1  0.4191740000000  0.4748740000000  0.5093400000000 1.0
C      1  0.5620070000000  0.4417150000000  0.5106200000000 1.0
C      1  0.5218410000000  0.4181650000000  0.5106380000000 1.0
C      1  0.4172850000000  0.5280240000000  0.5108730000000 1.0
C      1  0.5632610000000  0.5570840000000  0.5100270000000 1.0
C      1  0.5220700000000  0.4314970000000  0.4406290000000 1.0
C      1  0.5454580000000  0.5521210000000  0.4420150000000 1.0
C      1  0.4319440000000  0.5154790000000  0.4400130000000 1.0
C      1  0.5204930000000  0.5674140000000  0.4418910000000 1.0
C      1  0.5482060000000  0.4460000000000  0.4410530000000 1.0
C      1  0.4294530000000  0.4862540000000  0.4400370000000 1.0
C      1  0.4568210000000  0.5295470000000  0.4355290000000 1.0
C      1  0.4979000000000  0.4466050000000  0.4355620000000 1.0
C      1  0.5492830000000  0.5247780000000  0.4351350000000 1.0
C      1  0.4533580000000  0.4709540000000  0.4382700000000 1.0
C      1  0.4947140000000  0.5554020000000  0.4374370000000 1.0
C      1  0.5497750000000  0.4743150000000  0.4368740000000 1.0
C      1  0.5780160000000  0.5253450000000  0.5328950000000 1.0
C      1  0.4372830000000  0.5572450000000  0.5337170000000 1.0
C      1  0.4848840000000  0.4190460000000  0.5296490000000 1.0
C      1  0.5821750000000  0.4741220000000  0.5279050000000 1.0
C      1  0.4351660000000  0.4439300000000  0.5319240000000 1.0
C      1  0.4850480000000  0.5835920000000  0.5296400000000 1.0
C      1  0.4594040000000  0.4591990000000  0.5188590000000 1.0
C      1  0.5560840000000  0.4858790000000  0.5173080000000 1.0
C      1  0.4858050000000  0.5554700000000  0.5192110000000 1.0
C      1  0.4598660000000  0.5389260000000  0.5220590000000 1.0
C      1  0.5526600000000  0.5124710000000  0.5257460000000 1.0
C      1  0.4846850000000  0.4484380000000  0.5248040000000 1.0
C      1  0.5502250000000  0.5570030000000  0.5364460000000 1.0
C      1  0.4258870000000  0.5150450000000  0.5362670000000 1.0
C      1  0.5249240000000  0.4297940000000  0.5371180000000 1.0
C      1  0.5500670000000  0.4445610000000  0.5372550000000 1.0
C      1  0.4268660000000  0.4858510000000  0.5356670000000 1.0
C      1  0.5256010000000  0.5714810000000  0.5364670000000 1.0
C      1  0.4498380000000  0.4436770000000  0.4460020000000 1.0
C      1  0.5742510000000  0.4847630000000  0.4487420000000 1.0
C      1  0.4763350000000  0.5740200000000  0.4482660000000 1.0
C      1  0.4528550000000  0.5581540000000  0.4439020000000 1.0
C      1  0.5752970000000  0.5133210000000  0.4455840000000 1.0
C      1  0.4772790000000  0.4348280000000  0.4526590000000 1.0
C      1  0.5531360000000  0.5151210000000  0.5707710000000 1.0
C      1  0.4609210000000  0.5387630000000  0.5706170000000 1.0
C      1  0.4860770000000  0.4453910000000  0.5699340000000 1.0
C      1  0.5556300000000  0.4851050000000  0.5698300000000 1.0
C      1  0.4592130000000  0.4594940000000  0.5708220000000 1.0
C      1  0.4881790000000  0.5539400000000  0.5695850000000 1.0
C      1  0.5663580000000  0.4463670000000  0.4633070000000 1.0
C      1  0.5134010000000  0.5852420000000  0.4644210000000 1.0
C      1  0.4181430000000  0.4710960000000  0.4624260000000 1.0
C      1  0.5600690000000  0.5459140000000  0.4680790000000 1.0
C      1  0.5132080000000  0.4154610000000  0.4628020000000 1.0
C      1  0.4193600000000  0.5303710000000  0.4615280000000 1.0
C      1  0.4988830000000  0.4687240000000  0.5796620000000 1.0
C      1  0.5262780000000  0.5137940000000  0.5800180000000 1.0
C      1  0.4748920000000  0.5163910000000  0.5817430000000 1.0
C      1  0.5011950000000  0.5296490000000  0.5807240000000 1.0
C      1  0.5249160000000  0.4836200000000  0.5715240000000 1.0
C      1  0.4745040000000  0.4855830000000  0.5722140000000 1.0
END
