TITL C-2441160-1326-229 0.156296988191761 125000 -23624.2966504232 0 0 183 (C1) n - 1
REM
REM in /home/bkarasulu/work/CARBON/AIRSS/Generating-Clusters/ReaxFF-fromJPCA2015/Units_Real/with-SteepDescent/Higher-Symm
REM
REM
REM
REM
REM
REM ./C.cell (1df0a924f5614ab8850e4351716899ee)
REM
REM compiler GCC version 9.2.1 20190827 (Red Hat 9.2.1-1)
REM options -cpp -mtune=generic -march=x86-64 -g -O0 -fpre-include=/usr/include/finclude/math-vector-fortran.h
REM seed -230985979 -1407225561 1279169231 -75888169 -697676538 713932735 -1708984413 -320368837 -91991482 -1173319880 1999649239 -2090689417 1299367804 1241489470 356735371 1197324254 -1718851746 -340804839 -765364678 -998440558 1069303263 -1951398958 1927572058 354507573 406479793 -736072139 -1199237751 393984706 1691130527 -1797026937 -772904844 545340277 909813979
REM
CELL 1.54180   50.00000   50.00000   50.00000   90.00000   90.00000   90.00000
LATT -1
SFAC C  
C      1  0.5257740000000  0.5362460000000  0.4251590000000 1.0
C      1  0.4304940000000  0.5605010000000  0.4504150000000 1.0
C      1  0.4530560000000  0.4928300000000  0.5966660000000 1.0
C      1  0.5891230000000  0.5545160000000  0.4843270000000 1.0
C      1  0.6045970000000  0.4619150000000  0.4987580000000 1.0
C      1  0.5668780000000  0.4533380000000  0.5768180000000 1.0
C      1  0.3966900000000  0.4960920000000  0.4695520000000 1.0
C      1  0.5636090000000  0.5672030000000  0.4455250000000 1.0
C      1  0.5204840000000  0.5975200000000  0.4507980000000 1.0
C      1  0.4897300000000  0.4784590000000  0.5417580000000 1.0
C      1  0.5554870000000  0.4087610000000  0.4651620000000 1.0
C      1  0.4887100000000  0.5212390000000  0.4547220000000 1.0
C      1  0.5816140000000  0.4964600000000  0.5653540000000 1.0
C      1  0.5011790000000  0.4755680000000  0.4947800000000 1.0
C      1  0.4229460000000  0.5159480000000  0.4297530000000 1.0
C      1  0.5734170000000  0.5405300000000  0.4416090000000 1.0
C      1  0.4419150000000  0.4747650000000  0.5206590000000 1.0
C      1  0.4570610000000  0.4979520000000  0.5206840000000 1.0
C      1  0.5652100000000  0.4388940000000  0.5076140000000 1.0
C      1  0.5347450000000  0.4506750000000  0.5456000000000 1.0
C      1  0.4928580000000  0.5347930000000  0.5187320000000 1.0
C      1  0.4728890000000  0.4618430000000  0.4099520000000 1.0
C      1  0.5485320000000  0.4682140000000  0.5929930000000 1.0
C      1  0.5235570000000  0.4387070000000  0.5220590000000 1.0
C      1  0.4373950000000  0.5920610000000  0.4867690000000 1.0
C      1  0.5728470000000  0.4840330000000  0.5127530000000 1.0
C      1  0.4505860000000  0.4341360000000  0.5533410000000 1.0
C      1  0.5673260000000  0.5150570000000  0.4835180000000 1.0
C      1  0.5474210000000  0.4726070000000  0.4682560000000 1.0
C      1  0.4190840000000  0.5267180000000  0.5612500000000 1.0
C      1  0.4934550000000  0.4267760000000  0.4988840000000 1.0
C      1  0.5862120000000  0.5452360000000  0.5440500000000 1.0
C      1  0.5963430000000  0.4515990000000  0.4730210000000 1.0
C      1  0.4968850000000  0.5967260000000  0.5424280000000 1.0
C      1  0.5484250000000  0.4148480000000  0.4363940000000 1.0
C      1  0.4893660000000  0.5647700000000  0.4283350000000 1.0
C      1  0.4037750000000  0.4445160000000  0.5163800000000 1.0
C      1  0.5033080000000  0.5604870000000  0.5125040000000 1.0
C      1  0.5440100000000  0.4818970000000  0.4003750000000 1.0
C      1  0.4524510000000  0.4192470000000  0.4667800000000 1.0
C      1  0.5606700000000  0.5014000000000  0.4352260000000 1.0
C      1  0.4467060000000  0.4261580000000  0.4392450000000 1.0
C      1  0.4564750000000  0.6146940000000  0.4830940000000 1.0
C      1  0.4677880000000  0.5367790000000  0.4654740000000 1.0
C      1  0.5640070000000  0.5973110000000  0.5173790000000 1.0
C      1  0.6044760000000  0.4998100000000  0.4697240000000 1.0
C      1  0.5405360000000  0.5633080000000  0.4271070000000 1.0
C      1  0.4587070000000  0.5638070000000  0.5185330000000 1.0
C      1  0.5096950000000  0.3924270000000  0.4692730000000 1.0
C      1  0.4854200000000  0.4653580000000  0.5167070000000 1.0
C      1  0.5309550000000  0.4991770000000  0.4346800000000 1.0
C      1  0.5720210000000  0.4333630000000  0.4756040000000 1.0
C      1  0.4404810000000  0.5369770000000  0.5785220000000 1.0
C      1  0.4958940000000  0.5038320000000  0.3994470000000 1.0
C      1  0.5318720000000  0.5689930000000  0.5558390000000 1.0
C      1  0.5335030000000  0.4020370000000  0.4823250000000 1.0
C      1  0.4744420000000  0.4731580000000  0.5923300000000 1.0
C      1  0.4081990000000  0.4710240000000  0.4760880000000 1.0
C      1  0.4214230000000  0.5107970000000  0.4603950000000 1.0
C      1  0.5381830000000  0.5160600000000  0.4743250000000 1.0
C      1  0.4885570000000  0.4026680000000  0.4493040000000 1.0
C      1  0.4002490000000  0.4745830000000  0.5030950000000 1.0
C      1  0.4807680000000  0.4114490000000  0.5681950000000 1.0
C      1  0.4416540000000  0.5782700000000  0.5384490000000 1.0
C      1  0.4584190000000  0.5642550000000  0.4605160000000 1.0
C      1  0.4301200000000  0.4519770000000  0.5647170000000 1.0
C      1  0.4176170000000  0.4310170000000  0.4942910000000 1.0
C      1  0.5100240000000  0.4102730000000  0.5653230000000 1.0
C      1  0.5942780000000  0.5035070000000  0.5195670000000 1.0
C      1  0.4554140000000  0.5133120000000  0.5422850000000 1.0
C      1  0.5439770000000  0.4780080000000  0.5457910000000 1.0
C      1  0.5169820000000  0.5791370000000  0.4281590000000 1.0
C      1  0.5809320000000  0.5236400000000  0.5072320000000 1.0
C      1  0.4615260000000  0.4463140000000  0.4766650000000 1.0
C      1  0.5281240000000  0.4785720000000  0.5031930000000 1.0
C      1  0.4144280000000  0.4482210000000  0.5419530000000 1.0
C      1  0.5901390000000  0.5309720000000  0.4654800000000 1.0
C      1  0.4716540000000  0.5850690000000  0.4433770000000 1.0
C      1  0.4568960000000  0.4055160000000  0.5521150000000 1.0
C      1  0.5432540000000  0.4962140000000  0.5204870000000 1.0
C      1  0.4169500000000  0.5680200000000  0.5267260000000 1.0
C      1  0.5071340000000  0.5360360000000  0.6016210000000 1.0
C      1  0.5282660000000  0.4334860000000  0.4468360000000 1.0
C      1  0.5476640000000  0.5285000000000  0.5776270000000 1.0
C      1  0.4749950000000  0.4725280000000  0.4374170000000 1.0
C      1  0.3826360000000  0.4977800000000  0.4944530000000 1.0
C      1  0.5556260000000  0.4989170000000  0.5845030000000 1.0
C      1  0.4413070000000  0.4258000000000  0.5105980000000 1.0
C      1  0.5411610000000  0.5786310000000  0.5251720000000 1.0
C      1  0.5268430000000  0.4916120000000  0.4614620000000 1.0
C      1  0.5048800000000  0.5790390000000  0.5640920000000 1.0
C      1  0.4785360000000  0.6015760000000  0.4962610000000 1.0
C      1  0.5184820000000  0.4813700000000  0.4138670000000 1.0
C      1  0.5498830000000  0.5690690000000  0.5797690000000 1.0
C      1  0.4752210000000  0.4208760000000  0.4307730000000 1.0
C      1  0.5640440000000  0.4630660000000  0.4129660000000 1.0
C      1  0.5070210000000  0.5519850000000  0.4835750000000 1.0
C      1  0.4860080000000  0.5568480000000  0.5649410000000 1.0
C      1  0.4338700000000  0.5019680000000  0.5582270000000 1.0
C      1  0.5637440000000  0.4376360000000  0.4268410000000 1.0
C      1  0.5353740000000  0.5439170000000  0.4800780000000 1.0
C      1  0.4153370000000  0.4452440000000  0.4674670000000 1.0
C      1  0.4789740000000  0.4384700000000  0.5534290000000 1.0
C      1  0.4899070000000  0.4390120000000  0.4143140000000 1.0
C      1  0.4793650000000  0.4652690000000  0.5638790000000 1.0
C      1  0.4674920000000  0.3938830000000  0.4673220000000 1.0
C      1  0.4828760000000  0.4017200000000  0.5086140000000 1.0
C      1  0.4990690000000  0.5036510000000  0.5427590000000 1.0
C      1  0.4294330000000  0.4494980000000  0.4419910000000 1.0
C      1  0.4571450000000  0.5223890000000  0.5971330000000 1.0
C      1  0.3867710000000  0.5145760000000  0.5179810000000 1.0
C      1  0.5344950000000  0.5363880000000  0.5517310000000 1.0
C      1  0.5543800000000  0.4079870000000  0.5488390000000 1.0
C      1  0.4651080000000  0.5453090000000  0.4184710000000 1.0
C      1  0.5040220000000  0.5428290000000  0.4439720000000 1.0
C      1  0.4711380000000  0.5192540000000  0.4110080000000 1.0
C      1  0.4948690000000  0.4406520000000  0.5235990000000 1.0
C      1  0.5797020000000  0.4791010000000  0.4321570000000 1.0
C      1  0.5662080000000  0.5238450000000  0.4178240000000 1.0
C      1  0.5127980000000  0.4344160000000  0.5811720000000 1.0
C      1  0.4499200000000  0.5751260000000  0.5670320000000 1.0
C      1  0.4991280000000  0.4655530000000  0.4517490000000 1.0
C      1  0.5347520000000  0.5468210000000  0.5952450000000 1.0
C      1  0.5508960000000  0.4475790000000  0.4582980000000 1.0
C      1  0.5837500000000  0.4582700000000  0.5208330000000 1.0
C      1  0.4924330000000  0.4483530000000  0.4769380000000 1.0
C      1  0.4482930000000  0.4952830000000  0.4580450000000 1.0
C      1  0.5298060000000  0.5992280000000  0.4786610000000 1.0
C      1  0.4512840000000  0.4674970000000  0.4526720000000 1.0
C      1  0.6114190000000  0.4899050000000  0.4957560000000 1.0
C      1  0.4140490000000  0.5405210000000  0.5355990000000 1.0
C      1  0.4145300000000  0.5584740000000  0.4749470000000 1.0
C      1  0.4930050000000  0.5015450000000  0.4790720000000 1.0
C      1  0.4567830000000  0.4038160000000  0.5229410000000 1.0
C      1  0.4929230000000  0.5968590000000  0.4587090000000 1.0
C      1  0.5746700000000  0.5622190000000  0.5649700000000 1.0
C      1  0.4281510000000  0.4877950000000  0.4207610000000 1.0
C      1  0.4658310000000  0.4949840000000  0.4790620000000 1.0
C      1  0.4254490000000  0.5327080000000  0.4859880000000 1.0
C      1  0.5349200000000  0.4930660000000  0.5652160000000 1.0
C      1  0.4510760000000  0.4975770000000  0.4029210000000 1.0
C      1  0.4841820000000  0.5728820000000  0.5294320000000 1.0
C      1  0.4155090000000  0.5768020000000  0.4981030000000 1.0
C      1  0.5277360000000  0.3988240000000  0.5428720000000 1.0
C      1  0.5387870000000  0.4523030000000  0.5012570000000 1.0
C      1  0.5505060000000  0.4339750000000  0.5619010000000 1.0
C      1  0.5009090000000  0.4826770000000  0.5994200000000 1.0
C      1  0.3957710000000  0.4988450000000  0.5418620000000 1.0
C      1  0.4353460000000  0.4801740000000  0.5771740000000 1.0
C      1  0.5160910000000  0.5102920000000  0.5624180000000 1.0
C      1  0.5412130000000  0.5281450000000  0.5241280000000 1.0
C      1  0.4736080000000  0.4833190000000  0.3907290000000 1.0
C      1  0.5904750000000  0.5489720000000  0.5131000000000 1.0
C      1  0.4377130000000  0.5426380000000  0.4283350000000 1.0
C      1  0.5082430000000  0.6050790000000  0.4978240000000 1.0
C      1  0.5016050000000  0.5102510000000  0.5895780000000 1.0
C      1  0.4602710000000  0.5096700000000  0.4991060000000 1.0
C      1  0.5599720000000  0.4126080000000  0.5207820000000 1.0
C      1  0.5981960000000  0.4748020000000  0.4549080000000 1.0
C      1  0.5117790000000  0.4510330000000  0.4296070000000 1.0
C      1  0.5433980000000  0.5503440000000  0.5078870000000 1.0
C      1  0.5577790000000  0.5960720000000  0.4879940000000 1.0
C      1  0.4817900000000  0.5223070000000  0.5397330000000 1.0
C      1  0.5010640000000  0.5247190000000  0.4945640000000 1.0
C      1  0.4588240000000  0.5484810000000  0.5580910000000 1.0
C      1  0.4631560000000  0.5762050000000  0.4921910000000 1.0
C      1  0.4160320000000  0.5222840000000  0.5133070000000 1.0
C      1  0.5913380000000  0.5164590000000  0.5481750000000 1.0
C      1  0.5186620000000  0.6001350000000  0.5240410000000 1.0
C      1  0.5206660000000  0.4601800000000  0.5935710000000 1.0
C      1  0.4551490000000  0.5360480000000  0.4919050000000 1.0
C      1  0.5723060000000  0.5752940000000  0.4725640000000 1.0
C      1  0.4554300000000  0.4530640000000  0.5069300000000 1.0
C      1  0.4783480000000  0.5430710000000  0.6021870000000 1.0
C      1  0.4181300000000  0.4898420000000  0.5199250000000 1.0
C      1  0.5191940000000  0.5224610000000  0.3996610000000 1.0
C      1  0.5318180000000  0.4088880000000  0.5147000000000 1.0
C      1  0.5686990000000  0.4851410000000  0.4829450000000 1.0
C      1  0.5764810000000  0.4704270000000  0.5538780000000 1.0
C      1  0.5463110000000  0.5117530000000  0.3982920000000 1.0
C      1  0.4694350000000  0.6120680000000  0.4575000000000 1.0
C      1  0.4874910000000  0.3831570000000  0.4864860000000 1.0
C      1  0.4728740000000  0.5698450000000  0.5880580000000 1.0
END
