TITL C-2441168-9922-843 7.40116818925263e-07 125000 -2684.07881653149 0 0 20 (Ci) n - 1
REM
REM in /home/bkarasulu/work/CARBON/AIRSS/Generating-Clusters/ReaxFF-fromJPCA2015/Units_Real/with-SteepDescent/Higher-Symm
REM
REM
REM
REM
REM
REM ./C.cell (1df0a924f5614ab8850e4351716899ee)
REM
REM compiler GCC version 9.2.1 20190827 (Red Hat 9.2.1-1)
REM options -cpp -mtune=generic -march=x86-64 -g -O0 -fpre-include=/usr/include/finclude/math-vector-fortran.h
REM seed 564706925 613523403 1702541482 1221476109 -820366969 -173263047 1684769400 -1432991717 -656233679 1820238988 1878197701 -890333865 934343161 -857374462 584696850 -144027653 1857785741 1528240253 -755912264 -1620457908 658786783 114829905 699524376 -129247815 227477694 -2115637940 1875679940 1472421126 -1239913463 1324331678 -1640362336 -1485533207 -644583325
REM
CELL 1.54180   50.00000   50.00000   50.00000   90.00000   90.00000   90.00000
LATT -1
SFAC C  
C      1  0.5329610000000  0.4844920000000  0.5165760000000 1.0
C      1  0.4670390000000  0.5155080000000  0.4834240000000 1.0
C      1  0.4996200000000  0.5318590000000  0.4391480000000 1.0
C      1  0.5003800000000  0.4681410000000  0.5608520000000 1.0
C      1  0.4895800000000  0.4552410000000  0.5811530000000 1.0
C      1  0.5104200000000  0.5447590000000  0.4188470000000 1.0
C      1  0.4945290000000  0.4801460000000  0.4589370000000 1.0
C      1  0.5054710000000  0.5198540000000  0.5410630000000 1.0
C      1  0.5262620000000  0.4423240000000  0.4863230000000 1.0
C      1  0.4737380000000  0.5576760000000  0.5136770000000 1.0
C      1  0.5043750000000  0.5000330000000  0.4436480000000 1.0
C      1  0.4956250000000  0.4999670000000  0.5563520000000 1.0
C      1  0.4694620000000  0.4885730000000  0.4777770000000 1.0
C      1  0.5305380000000  0.5114270000000  0.5222230000000 1.0
C      1  0.4890010000000  0.5445690000000  0.5334900000000 1.0
C      1  0.5109990000000  0.4554310000000  0.4665100000000 1.0
C      1  0.5155640000000  0.4534500000000  0.5381590000000 1.0
C      1  0.4844360000000  0.5465500000000  0.4618410000000 1.0
C      1  0.5314020000000  0.4566670000000  0.5143170000000 1.0
C      1  0.4685980000000  0.5433330000000  0.4856830000000 1.0
END
