TITL C-2441157-2117-1125 0.148405299620006 125000 -17717.5616804594 0 0 146 (C1) n - 1
REM
REM in /home/bkarasulu/work/CARBON/AIRSS/Generating-Clusters/ReaxFF-fromJPCA2015/Units_Real/with-SteepDescent/Higher-Symm
REM
REM
REM
REM
REM
REM ./C.cell (1df0a924f5614ab8850e4351716899ee)
REM
REM compiler GCC version 9.2.1 20190827 (Red Hat 9.2.1-1)
REM options -cpp -mtune=generic -march=x86-64 -g -O0 -fpre-include=/usr/include/finclude/math-vector-fortran.h
REM seed -1062558323 -1655281076 1474968151 -638433890 -1539223204 1376887869 1573320650 368187962 1022107435 192468466 -913433986 -2076509992 -2029674034 527220413 578494068 -761077141 -1383408533 -1646590429 566823408 2032700761 -716823441 238325131 959824471 -339288074 1280039614 -454596600 851310503 368313216 -1829987293 -747605991 1064942830 -1983805529 1335955076
REM
CELL 1.54180   50.00000   50.00000   50.00000   90.00000   90.00000   90.00000
LATT -1
SFAC C  
C      1  0.4274910000000  0.5464270000000  0.5640460000000 1.0
C      1  0.4280960000000  0.4531350000000  0.4357800000000 1.0
C      1  0.5739770000000  0.5397420000000  0.5606500000000 1.0
C      1  0.5744860000000  0.4594520000000  0.4392970000000 1.0
C      1  0.4266980000000  0.5448650000000  0.4379780000000 1.0
C      1  0.4281850000000  0.4524770000000  0.5642190000000 1.0
C      1  0.5713720000000  0.5458630000000  0.4358710000000 1.0
C      1  0.5725810000000  0.4588230000000  0.5623710000000 1.0
C      1  0.5866410000000  0.5150920000000  0.4790870000000 1.0
C      1  0.5857210000000  0.4856920000000  0.5227600000000 1.0
C      1  0.4120670000000  0.5150960000000  0.4812290000000 1.0
C      1  0.4134550000000  0.4849720000000  0.5220910000000 1.0
C      1  0.5868530000000  0.5150730000000  0.5224250000000 1.0
C      1  0.5857740000000  0.4854630000000  0.4778460000000 1.0
C      1  0.4122040000000  0.5147890000000  0.5191160000000 1.0
C      1  0.4130000000000  0.4849690000000  0.4787600000000 1.0
C      1  0.4821480000000  0.4860600000000  0.3943830000000 1.0
C      1  0.4817730000000  0.5108670000000  0.6016620000000 1.0
C      1  0.5177190000000  0.4857580000000  0.3939050000000 1.0
C      1  0.5204620000000  0.5143820000000  0.6018410000000 1.0
C      1  0.4842900000000  0.4840500000000  0.6045230000000 1.0
C      1  0.4819080000000  0.5140230000000  0.3985440000000 1.0
C      1  0.5159460000000  0.4865000000000  0.6034920000000 1.0
C      1  0.5139050000000  0.5134260000000  0.3945240000000 1.0
C      1  0.4455000000000  0.4725120000000  0.4503260000000 1.0
C      1  0.4459880000000  0.5277990000000  0.5489780000000 1.0
C      1  0.5508600000000  0.4714650000000  0.4545330000000 1.0
C      1  0.5520030000000  0.5272550000000  0.5462830000000 1.0
C      1  0.4449670000000  0.4767100000000  0.5549640000000 1.0
C      1  0.4460330000000  0.5264290000000  0.4503230000000 1.0
C      1  0.5508370000000  0.4732640000000  0.5478750000000 1.0
C      1  0.5534400000000  0.5257360000000  0.4506110000000 1.0
C      1  0.4412960000000  0.4860930000000  0.4735220000000 1.0
C      1  0.4417280000000  0.5145320000000  0.5242320000000 1.0
C      1  0.5566920000000  0.4863180000000  0.4757250000000 1.0
C      1  0.5576980000000  0.5138670000000  0.5235720000000 1.0
C      1  0.4416210000000  0.4861990000000  0.5270810000000 1.0
C      1  0.4406370000000  0.5135590000000  0.4738350000000 1.0
C      1  0.5565940000000  0.4863700000000  0.5244220000000 1.0
C      1  0.5576520000000  0.5137870000000  0.4755350000000 1.0
C      1  0.5270210000000  0.5367090000000  0.5543710000000 1.0
C      1  0.5255230000000  0.4639690000000  0.4442570000000 1.0
C      1  0.4705480000000  0.5352730000000  0.5569080000000 1.0
C      1  0.4713930000000  0.4648040000000  0.4444110000000 1.0
C      1  0.5280590000000  0.5344880000000  0.4431760000000 1.0
C      1  0.5258740000000  0.4642840000000  0.5554350000000 1.0
C      1  0.4715120000000  0.5393980000000  0.4486470000000 1.0
C      1  0.4719660000000  0.4645690000000  0.5554690000000 1.0
C      1  0.5615810000000  0.5609520000000  0.5269770000000 1.0
C      1  0.5629350000000  0.4371160000000  0.4728760000000 1.0
C      1  0.4375170000000  0.5634590000000  0.5270620000000 1.0
C      1  0.4408910000000  0.4399710000000  0.4733450000000 1.0
C      1  0.5607070000000  0.5603410000000  0.4734770000000 1.0
C      1  0.5611040000000  0.4381930000000  0.5274180000000 1.0
C      1  0.4388580000000  0.5620660000000  0.4744170000000 1.0
C      1  0.4408890000000  0.4405770000000  0.5259720000000 1.0
C      1  0.5639360000000  0.4340050000000  0.4447450000000 1.0
C      1  0.5625350000000  0.5657170000000  0.5559170000000 1.0
C      1  0.4459250000000  0.4327550000000  0.4459870000000 1.0
C      1  0.4447310000000  0.5678970000000  0.5547820000000 1.0
C      1  0.5635380000000  0.4329450000000  0.5553020000000 1.0
C      1  0.5533220000000  0.5659360000000  0.4463060000000 1.0
C      1  0.4462900000000  0.4330980000000  0.5530090000000 1.0
C      1  0.4391070000000  0.5688590000000  0.4470070000000 1.0
C      1  0.5548720000000  0.5401470000000  0.4132890000000 1.0
C      1  0.5553000000000  0.4504020000000  0.5846830000000 1.0
C      1  0.4460390000000  0.5522750000000  0.4165740000000 1.0
C      1  0.4433130000000  0.4538330000000  0.5883750000000 1.0
C      1  0.5577660000000  0.5510470000000  0.5825520000000 1.0
C      1  0.5580070000000  0.4588880000000  0.4157910000000 1.0
C      1  0.4436860000000  0.5438500000000  0.5869800000000 1.0
C      1  0.4443640000000  0.4536920000000  0.4122050000000 1.0
C      1  0.4830390000000  0.4412280000000  0.5710540000000 1.0
C      1  0.4852870000000  0.5596850000000  0.4293290000000 1.0
C      1  0.5132880000000  0.4414830000000  0.5696100000000 1.0
C      1  0.5158920000000  0.5580680000000  0.4295690000000 1.0
C      1  0.4826760000000  0.4408510000000  0.4295530000000 1.0
C      1  0.4827080000000  0.5582070000000  0.5704820000000 1.0
C      1  0.5125960000000  0.4406970000000  0.4308280000000 1.0
C      1  0.5132330000000  0.5586430000000  0.5701050000000 1.0
C      1  0.5340840000000  0.5568380000000  0.5152950000000 1.0
C      1  0.5323640000000  0.4381580000000  0.4785160000000 1.0
C      1  0.4667180000000  0.5599900000000  0.5205020000000 1.0
C      1  0.4687570000000  0.4440830000000  0.4851030000000 1.0
C      1  0.5309280000000  0.5534850000000  0.4857940000000 1.0
C      1  0.5317800000000  0.4380480000000  0.5201830000000 1.0
C      1  0.4703710000000  0.5541950000000  0.4787770000000 1.0
C      1  0.4692220000000  0.4468560000000  0.5144700000000 1.0
C      1  0.4781950000000  0.4188770000000  0.4730990000000 1.0
C      1  0.4730970000000  0.5872140000000  0.5306590000000 1.0
C      1  0.5245270000000  0.4118860000000  0.4682280000000 1.0
C      1  0.5210080000000  0.5800150000000  0.5276880000000 1.0
C      1  0.4788750000000  0.4217870000000  0.5268800000000 1.0
C      1  0.4781700000000  0.5821530000000  0.4707060000000 1.0
C      1  0.5236180000000  0.4138720000000  0.5316060000000 1.0
C      1  0.5223930000000  0.5797210000000  0.4729880000000 1.0
C      1  0.4166760000000  0.4565360000000  0.5145530000000 1.0
C      1  0.4179200000000  0.5446230000000  0.4864190000000 1.0
C      1  0.5819890000000  0.4569770000000  0.5143900000000 1.0
C      1  0.5827890000000  0.5434920000000  0.4859580000000 1.0
C      1  0.4172420000000  0.4565710000000  0.4856230000000 1.0
C      1  0.4166680000000  0.5450270000000  0.5148190000000 1.0
C      1  0.5820190000000  0.4569870000000  0.4862120000000 1.0
C      1  0.5830700000000  0.5434670000000  0.5145800000000 1.0
C      1  0.5124570000000  0.5149890000000  0.4409510000000 1.0
C      1  0.5121340000000  0.4873440000000  0.5603660000000 1.0
C      1  0.4862270000000  0.5148760000000  0.4485440000000 1.0
C      1  0.4862270000000  0.4853000000000  0.5572920000000 1.0
C      1  0.5132310000000  0.5146090000000  0.5590610000000 1.0
C      1  0.5119890000000  0.4877980000000  0.4386720000000 1.0
C      1  0.4862190000000  0.5139860000000  0.5485810000000 1.0
C      1  0.4850380000000  0.4872580000000  0.4386190000000 1.0
C      1  0.5151460000000  0.4802230000000  0.4875650000000 1.0
C      1  0.5150330000000  0.5191070000000  0.5133530000000 1.0
C      1  0.4851010000000  0.4823460000000  0.4853110000000 1.0
C      1  0.4843970000000  0.5164940000000  0.5187620000000 1.0
C      1  0.5132100000000  0.4884850000000  0.5154230000000 1.0
C      1  0.5154590000000  0.5228460000000  0.4849860000000 1.0
C      1  0.4837380000000  0.4831910000000  0.5143690000000 1.0
C      1  0.4906270000000  0.5107230000000  0.4772910000000 1.0
C      1  0.5127040000000  0.5837970000000  0.5556630000000 1.0
C      1  0.5123510000000  0.4138690000000  0.4417140000000 1.0
C      1  0.4825490000000  0.5854850000000  0.5585720000000 1.0
C      1  0.4816790000000  0.4148710000000  0.4440450000000 1.0
C      1  0.5186290000000  0.5837240000000  0.4442880000000 1.0
C      1  0.5121250000000  0.4152670000000  0.5568960000000 1.0
C      1  0.4873100000000  0.5851210000000  0.4432490000000 1.0
C      1  0.4813600000000  0.4162220000000  0.5553510000000 1.0
C      1  0.5143960000000  0.3929340000000  0.5157760000000 1.0
C      1  0.5156890000000  0.6050770000000  0.4854990000000 1.0
C      1  0.4847850000000  0.3956060000000  0.5158470000000 1.0
C      1  0.4855010000000  0.6066430000000  0.4848210000000 1.0
C      1  0.5142800000000  0.3913620000000  0.4864390000000 1.0
C      1  0.5147470000000  0.6057220000000  0.5148290000000 1.0
C      1  0.4847680000000  0.3937120000000  0.4866760000000 1.0
C      1  0.4850860000000  0.6085240000000  0.5140630000000 1.0
C      1  0.4631180000000  0.5327330000000  0.4070920000000 1.0
C      1  0.4603310000000  0.4744750000000  0.5930970000000 1.0
C      1  0.5398290000000  0.5184520000000  0.4045510000000 1.0
C      1  0.5356000000000  0.4668060000000  0.5949460000000 1.0
C      1  0.4617680000000  0.5278610000000  0.5951900000000 1.0
C      1  0.4624470000000  0.4686480000000  0.4015970000000 1.0
C      1  0.5380590000000  0.5333510000000  0.5937100000000 1.0
C      1  0.5410660000000  0.4767540000000  0.4047070000000 1.0
C      1  0.5165520000000  0.4515060000000  0.4986730000000 1.0
C      1  0.4817130000000  0.5417860000000  0.5040430000000 1.0
END
