TITL C-2441166-8118-523 0.061802654266017 125000 -17828.8007366199 0 0 134 (C1) n - 1
REM
REM in /home/bkarasulu/work/CARBON/AIRSS/Generating-Clusters/ReaxFF-fromJPCA2015/Units_Real/with-SteepDescent/Higher-Symm
REM
REM
REM
REM
REM
REM ./C.cell (1df0a924f5614ab8850e4351716899ee)
REM
REM compiler GCC version 9.2.1 20190827 (Red Hat 9.2.1-1)
REM options -cpp -mtune=generic -march=x86-64 -g -O0 -fpre-include=/usr/include/finclude/math-vector-fortran.h
REM seed 1385079258 -2004137918 580817236 201580115 -850286842 1140506119 1348691867 1609090895 1964733537 -1238179839 -2024095755 -455664431 -2081964402 865400901 -108264411 -447250220 245802005 -922269505 1953570072 125132059 -838178965 539190316 -179569937 -420751754 -1717149376 1745939873 -332977892 -1192360614 793344949 -314045633 316576919 -1764789465 514634384
REM
CELL 1.54180   50.00000   50.00000   50.00000   90.00000   90.00000   90.00000
LATT -1
SFAC C  
C      1  0.5142830000000  0.4018460000000  0.4844700000000 1.0
C      1  0.5151120000000  0.4499820000000  0.5861560000000 1.0
C      1  0.5153050000000  0.5658130000000  0.5724920000000 1.0
C      1  0.5147240000000  0.5900000000000  0.4597230000000 1.0
C      1  0.5145710000000  0.4768190000000  0.4023400000000 1.0
C      1  0.5096040000000  0.4242270000000  0.5641060000000 1.0
C      1  0.5079600000000  0.5400940000000  0.5910040000000 1.0
C      1  0.5084220000000  0.5981370000000  0.4885550000000 1.0
C      1  0.5165810000000  0.5298880000000  0.4073820000000 1.0
C      1  0.5100200000000  0.4130430000000  0.4505040000000 1.0
C      1  0.4395600000000  0.4215590000000  0.5099020000000 1.0
C      1  0.4415370000000  0.4827400000000  0.5785610000000 1.0
C      1  0.4344890000000  0.5680400000000  0.5466050000000 1.0
C      1  0.4368730000000  0.5590820000000  0.4454000000000 1.0
C      1  0.4409550000000  0.4702210000000  0.4300740000000 1.0
C      1  0.5177740000000  0.4273630000000  0.5216890000000 1.0
C      1  0.5191090000000  0.4962460000000  0.5831560000000 1.0
C      1  0.5101650000000  0.5722910000000  0.5247110000000 1.0
C      1  0.5060180000000  0.5490130000000  0.4458950000000 1.0
C      1  0.5201310000000  0.4551300000000  0.4366070000000 1.0
C      1  0.4692660000000  0.4799440000000  0.5860060000000 1.0
C      1  0.4655280000000  0.5727060000000  0.5435360000000 1.0
C      1  0.4653170000000  0.5636500000000  0.4421430000000 1.0
C      1  0.4689040000000  0.4649990000000  0.4247570000000 1.0
C      1  0.4669400000000  0.4133660000000  0.5081000000000 1.0
C      1  0.5736840000000  0.5259820000000  0.5596070000000 1.0
C      1  0.5729310000000  0.5631220000000  0.4929050000000 1.0
C      1  0.5669510000000  0.5114280000000  0.4359800000000 1.0
C      1  0.5746500000000  0.4450120000000  0.4691700000000 1.0
C      1  0.5737120000000  0.4544960000000  0.5411080000000 1.0
C      1  0.5207250000000  0.4093720000000  0.5425520000000 1.0
C      1  0.5214140000000  0.5165230000000  0.5974300000000 1.0
C      1  0.5264410000000  0.5902390000000  0.5090340000000 1.0
C      1  0.5231110000000  0.5532260000000  0.4204990000000 1.0
C      1  0.5224030000000  0.4263790000000  0.4284730000000 1.0
C      1  0.4376320000000  0.5292700000000  0.5632530000000 1.0
C      1  0.4414420000000  0.5716220000000  0.4915290000000 1.0
C      1  0.4408310000000  0.4971380000000  0.4212620000000 1.0
C      1  0.4495810000000  0.4434370000000  0.4749930000000 1.0
C      1  0.4498640000000  0.4571130000000  0.5402040000000 1.0
C      1  0.5430690000000  0.4574300000000  0.5741440000000 1.0
C      1  0.5443060000000  0.5576940000000  0.5643430000000 1.0
C      1  0.5407230000000  0.5767500000000  0.4643530000000 1.0
C      1  0.5390470000000  0.4877620000000  0.4135200000000 1.0
C      1  0.5415780000000  0.4152500000000  0.4836840000000 1.0
C      1  0.5660270000000  0.5082070000000  0.5776280000000 1.0
C      1  0.5651140000000  0.5746450000000  0.5172150000000 1.0
C      1  0.5609140000000  0.5380490000000  0.4312630000000 1.0
C      1  0.5645090000000  0.4465850000000  0.4439340000000 1.0
C      1  0.5649690000000  0.4300570000000  0.5321370000000 1.0
C      1  0.5146270000000  0.5410920000000  0.5186850000000 1.0
C      1  0.5122230000000  0.5288800000000  0.4674610000000 1.0
C      1  0.5089690000000  0.4839870000000  0.4680670000000 1.0
C      1  0.5124550000000  0.4665770000000  0.5075710000000 1.0
C      1  0.5149730000000  0.4973210000000  0.5380680000000 1.0
C      1  0.4675790000000  0.5049870000000  0.4086430000000 1.0
C      1  0.4654600000000  0.4198990000000  0.4670120000000 1.0
C      1  0.4652480000000  0.4452600000000  0.5623600000000 1.0
C      1  0.4626950000000  0.5421060000000  0.5750670000000 1.0
C      1  0.4637230000000  0.5878520000000  0.4808700000000 1.0
C      1  0.5292580000000  0.5222990000000  0.5353500000000 1.0
C      1  0.5282670000000  0.5354200000000  0.4915420000000 1.0
C      1  0.5239450000000  0.5054000000000  0.4567060000000 1.0
C      1  0.5272940000000  0.4584270000000  0.4790560000000 1.0
C      1  0.5287500000000  0.4738770000000  0.5301640000000 1.0
C      1  0.5593050000000  0.4386220000000  0.5595100000000 1.0
C      1  0.5592430000000  0.5375030000000  0.5791650000000 1.0
C      1  0.5524680000000  0.5856020000000  0.4916150000000 1.0
C      1  0.5459860000000  0.5162550000000  0.4120780000000 1.0
C      1  0.5581300000000  0.4236210000000  0.4610430000000 1.0
C      1  0.4208760000000  0.4478880000000  0.4739790000000 1.0
C      1  0.4209390000000  0.4602420000000  0.5376470000000 1.0
C      1  0.4203270000000  0.5429520000000  0.5444800000000 1.0
C      1  0.4245700000000  0.5592830000000  0.4716590000000 1.0
C      1  0.4240010000000  0.5080950000000  0.4431380000000 1.0
C      1  0.4878610000000  0.5003650000000  0.5744640000000 1.0
C      1  0.4822170000000  0.5792680000000  0.5213100000000 1.0
C      1  0.4805450000000  0.5391480000000  0.4380020000000 1.0
C      1  0.4871800000000  0.4564100000000  0.4446000000000 1.0
C      1  0.4884180000000  0.4328230000000  0.5233370000000 1.0
C      1  0.5164530000000  0.3989160000000  0.5146290000000 1.0
C      1  0.5156390000000  0.4768040000000  0.5976510000000 1.0
C      1  0.5149090000000  0.5802740000000  0.5478060000000 1.0
C      1  0.5124710000000  0.5757880000000  0.4347230000000 1.0
C      1  0.5162520000000  0.4483570000000  0.4080510000000 1.0
C      1  0.4825750000000  0.5264610000000  0.5889980000000 1.0
C      1  0.4823390000000  0.5954430000000  0.4994960000000 1.0
C      1  0.4877980000000  0.5261140000000  0.4127660000000 1.0
C      1  0.4855480000000  0.4262210000000  0.4477600000000 1.0
C      1  0.4845160000000  0.4266780000000  0.5523300000000 1.0
C      1  0.4871140000000  0.4979630000000  0.5461180000000 1.0
C      1  0.4888990000000  0.5290490000000  0.5165130000000 1.0
C      1  0.4796280000000  0.5238040000000  0.4754210000000 1.0
C      1  0.4812150000000  0.4757610000000  0.4642170000000 1.0
C      1  0.4862160000000  0.4582230000000  0.5137150000000 1.0
C      1  0.4165890000000  0.4883810000000  0.5297850000000 1.0
C      1  0.4180650000000  0.5308540000000  0.5130610000000 1.0
C      1  0.4246040000000  0.5314920000000  0.4786100000000 1.0
C      1  0.4185140000000  0.4934930000000  0.4681720000000 1.0
C      1  0.4134080000000  0.4631010000000  0.4972890000000 1.0
C      1  0.5582150000000  0.4570150000000  0.4894760000000 1.0
C      1  0.5567740000000  0.4775890000000  0.5364400000000 1.0
C      1  0.5602700000000  0.5289860000000  0.5343320000000 1.0
C      1  0.5599120000000  0.5419530000000  0.4800130000000 1.0
C      1  0.5526270000000  0.4965270000000  0.4556550000000 1.0
C      1  0.5549280000000  0.5579230000000  0.5371460000000 1.0
C      1  0.5533200000000  0.5537690000000  0.4532940000000 1.0
C      1  0.5481850000000  0.4702410000000  0.4364350000000 1.0
C      1  0.5490690000000  0.4318870000000  0.5074220000000 1.0
C      1  0.5488710000000  0.4859230000000  0.5687790000000 1.0
C      1  0.4839310000000  0.4083150000000  0.4853510000000 1.0
C      1  0.4840390000000  0.4565370000000  0.5808620000000 1.0
C      1  0.4817850000000  0.5597990000000  0.5630350000000 1.0
C      1  0.4801440000000  0.5810710000000  0.4588750000000 1.0
C      1  0.4846520000000  0.4823310000000  0.4079630000000 1.0
C      1  0.5776500000000  0.4772130000000  0.4932600000000 1.0
C      1  0.5783070000000  0.4881170000000  0.5190760000000 1.0
C      1  0.5794530000000  0.5161610000000  0.5149290000000 1.0
C      1  0.5807000000000  0.5233040000000  0.4874040000000 1.0
C      1  0.5771790000000  0.4981130000000  0.4736770000000 1.0
C      1  0.4221130000000  0.4689560000000  0.4541570000000 1.0
C      1  0.4168680000000  0.4405830000000  0.5148700000000 1.0
C      1  0.4371570000000  0.5006760000000  0.5533360000000 1.0
C      1  0.4420150000000  0.5495700000000  0.5108050000000 1.0
C      1  0.4403840000000  0.5310090000000  0.4419230000000 1.0
C      1  0.4620400000000  0.4680460000000  0.4834950000000 1.0
C      1  0.4620310000000  0.4726830000000  0.5172950000000 1.0
C      1  0.4620270000000  0.5011160000000  0.5321590000000 1.0
C      1  0.4611380000000  0.5314480000000  0.5205370000000 1.0
C      1  0.4516010000000  0.5244860000000  0.4687140000000 1.0
C      1  0.5371140000000  0.5073680000000  0.5006110000000 1.0
C      1  0.4165590000000  0.5018400000000  0.5047580000000 1.0
C      1  0.5089730000000  0.4919770000000  0.4956000000000 1.0
C      1  0.4867020000000  0.5084390000000  0.4984100000000 1.0
END
