TITL C-2441157-2117-201 0.00422611474590467 125000 -2549.2940319418 0 0 20 (C1) n - 1
REM
REM in /home/bkarasulu/work/CARBON/AIRSS/Generating-Clusters/ReaxFF-fromJPCA2015/Units_Real/with-SteepDescent/Higher-Symm
REM
REM
REM
REM
REM
REM ./C.cell (1df0a924f5614ab8850e4351716899ee)
REM
REM compiler GCC version 9.2.1 20190827 (Red Hat 9.2.1-1)
REM options -cpp -mtune=generic -march=x86-64 -g -O0 -fpre-include=/usr/include/finclude/math-vector-fortran.h
REM seed 1109270221 -1857697773 -463244505 1925966268 -920208893 716728843 468351355 -1935660454 1857508118 1812769615 544361903 888849249 1505799239 -823452606 -1847665483 -1299474402 -1175227730 -1066069182 -1727426414 -1421382866 -1644670883 -1509181391 -586284230 -1481360182 93744134 184254712 -562146610 2000656910 -839466312 1317879125 1182109390 -1240246736 962533420
REM
CELL 1.54180   50.00000   50.00000   50.00000   90.00000   90.00000   90.00000
LATT -1
SFAC C  
C      1  0.5065240000000  0.5137300000000  0.4604880000000 1.0
C      1  0.4934760000000  0.4862700000000  0.4604880000000 1.0
C      1  0.5550250000000  0.5134700000000  0.4860760000000 1.0
C      1  0.4449750000000  0.4865300000000  0.4860760000000 1.0
C      1  0.5115980000000  0.4738470000000  0.5411430000000 1.0
C      1  0.4884020000000  0.5261530000000  0.5411430000000 1.0
C      1  0.5313150000000  0.4954710000000  0.5392900000000 1.0
C      1  0.4686850000000  0.5045290000000  0.5392900000000 1.0
C      1  0.5637360000000  0.5025470000000  0.5131110000000 1.0
C      1  0.4362640000000  0.4974530000000  0.5131110000000 1.0
C      1  0.5183710000000  0.5217080000000  0.5409100000000 1.0
C      1  0.4816290000000  0.4782920000000  0.5409100000000 1.0
C      1  0.4704460000000  0.4862920000000  0.4726120000000 1.0
C      1  0.5295540000000  0.5137080000000  0.4726120000000 1.0
C      1  0.4871800000000  0.5410370000000  0.4671710000000 1.0
C      1  0.5128200000000  0.4589630000000  0.4671710000000 1.0
C      1  0.4369230000000  0.5092980000000  0.5390920000000 1.0
C      1  0.5630770000000  0.4907020000000  0.5390920000000 1.0
C      1  0.4871210000000  0.5421160000000  0.4401080000000 1.0
C      1  0.5128790000000  0.4578840000000  0.4401080000000 1.0
END
