TITL C-2441157-2117-116 0.0253375936817175 125000 -12057.0805674829 0 0 87 (C1) n - 1
REM
REM in /home/bkarasulu/work/CARBON/AIRSS/Generating-Clusters/ReaxFF-fromJPCA2015/Units_Real/with-SteepDescent/Higher-Symm
REM
REM
REM
REM
REM
REM ./C.cell (1df0a924f5614ab8850e4351716899ee)
REM
REM compiler GCC version 9.2.1 20190827 (Red Hat 9.2.1-1)
REM options -cpp -mtune=generic -march=x86-64 -g -O0 -fpre-include=/usr/include/finclude/math-vector-fortran.h
REM seed 128513308 -125346177 2044893439 952823515 498403737 406578369 -1455100462 -169384245 1987078374 1518805945 1750212212 1639541300 904218351 -1236500913 1323949891 -201988275 1265921326 4205058 1760751006 570610338 -1849727953 -1206164015 -2113085917 1994519099 1591570459 -429587331 1232800091 -1887654234 -96283571 831675991 2078673695 -1394885219 651317856
REM
CELL 1.54180   50.00000   50.00000   50.00000   90.00000   90.00000   90.00000
LATT -1
SFAC C  
C      1  0.5315300000000  0.4941180000000  0.5485640000000 1.0
C      1  0.5326580000000  0.4612210000000  0.4722540000000 1.0
C      1  0.5292400000000  0.5426460000000  0.4808440000000 1.0
C      1  0.4462210000000  0.5222580000000  0.5417410000000 1.0
C      1  0.4452310000000  0.4513190000000  0.4951200000000 1.0
C      1  0.4457100000000  0.5312930000000  0.4649090000000 1.0
C      1  0.5532730000000  0.5372050000000  0.5464720000000 1.0
C      1  0.5536470000000  0.4443590000000  0.5106160000000 1.0
C      1  0.5518590000000  0.5223680000000  0.4413960000000 1.0
C      1  0.5496430000000  0.4607210000000  0.5345530000000 1.0
C      1  0.5470180000000  0.4935140000000  0.4450000000000 1.0
C      1  0.5512430000000  0.5468420000000  0.5176950000000 1.0
C      1  0.4691230000000  0.4697340000000  0.4925790000000 1.0
C      1  0.4705700000000  0.5213230000000  0.4777630000000 1.0
C      1  0.4695600000000  0.5082420000000  0.5282900000000 1.0
C      1  0.5270430000000  0.4334280000000  0.5092710000000 1.0
C      1  0.5238010000000  0.5264090000000  0.4348400000000 1.0
C      1  0.5267340000000  0.5433810000000  0.5541720000000 1.0
C      1  0.4804860000000  0.4620360000000  0.5694520000000 1.0
C      1  0.4841200000000  0.4563890000000  0.4314890000000 1.0
C      1  0.4837790000000  0.5802190000000  0.4953220000000 1.0
C      1  0.4396240000000  0.5548400000000  0.5064470000000 1.0
C      1  0.4405780000000  0.4687300000000  0.5448850000000 1.0
C      1  0.4415380000000  0.4782500000000  0.4495440000000 1.0
C      1  0.5175040000000  0.5741100000000  0.4585400000000 1.0
C      1  0.5156330000000  0.4969820000000  0.5851430000000 1.0
C      1  0.5184750000000  0.4273480000000  0.4557170000000 1.0
C      1  0.5074260000000  0.5770180000000  0.5165930000000 1.0
C      1  0.5066400000000  0.4463740000000  0.5555050000000 1.0
C      1  0.5054720000000  0.4770500000000  0.4263500000000 1.0
C      1  0.5661450000000  0.4683710000000  0.4990440000000 1.0
C      1  0.5738570000000  0.5119740000000  0.4781210000000 1.0
C      1  0.5712650000000  0.5096560000000  0.5190190000000 1.0
C      1  0.5769010000000  0.4586040000000  0.4805460000000 1.0
C      1  0.5658930000000  0.5321190000000  0.4635770000000 1.0
C      1  0.5679980000000  0.5111360000000  0.5478880000000 1.0
C      1  0.4770130000000  0.5341830000000  0.4336360000000 1.0
C      1  0.4735200000000  0.5408420000000  0.5657660000000 1.0
C      1  0.4642070000000  0.4299500000000  0.5027310000000 1.0
C      1  0.4921300000000  0.4312720000000  0.4442690000000 1.0
C      1  0.4920290000000  0.5793200000000  0.4695270000000 1.0
C      1  0.4888560000000  0.4864110000000  0.5845200000000 1.0
C      1  0.5058470000000  0.5177850000000  0.5139750000000 1.0
C      1  0.5069740000000  0.4885630000000  0.5089690000000 1.0
C      1  0.5066400000000  0.4948260000000  0.4804400000000 1.0
C      1  0.5053420000000  0.5063270000000  0.4229730000000 1.0
C      1  0.5076510000000  0.5633390000000  0.5420880000000 1.0
C      1  0.5069430000000  0.4312450000000  0.5307460000000 1.0
C      1  0.4778440000000  0.4799120000000  0.5196530000000 1.0
C      1  0.4786950000000  0.4925300000000  0.4709350000000 1.0
C      1  0.4789650000000  0.5275170000000  0.5075980000000 1.0
C      1  0.4824540000000  0.5409590000000  0.4573630000000 1.0
C      1  0.4836490000000  0.5154310000000  0.5554870000000 1.0
C      1  0.4828480000000  0.4433790000000  0.4851010000000 1.0
C      1  0.5126430000000  0.5426530000000  0.4569990000000 1.0
C      1  0.5160110000000  0.5153600000000  0.5611020000000 1.0
C      1  0.5153450000000  0.4403270000000  0.4835630000000 1.0
C      1  0.4242930000000  0.4713070000000  0.4973960000000 1.0
C      1  0.4234760000000  0.5170980000000  0.4767120000000 1.0
C      1  0.4240920000000  0.5124800000000  0.5260890000000 1.0
C      1  0.4573580000000  0.5467740000000  0.5287910000000 1.0
C      1  0.4707760000000  0.4583930000000  0.5399470000000 1.0
C      1  0.4655270000000  0.4936850000000  0.4442490000000 1.0
C      1  0.5334190000000  0.4538850000000  0.5606450000000 1.0
C      1  0.5335430000000  0.4719370000000  0.4304890000000 1.0
C      1  0.5348730000000  0.5738520000000  0.5096390000000 1.0
C      1  0.5738690000000  0.5307790000000  0.4997970000000 1.0
C      1  0.5720850000000  0.4853700000000  0.5344090000000 1.0
C      1  0.5785430000000  0.4824500000000  0.4743460000000 1.0
C      1  0.4687690000000  0.4333490000000  0.4620970000000 1.0
C      1  0.4582490000000  0.5577940000000  0.4608870000000 1.0
C      1  0.4658390000000  0.5020820000000  0.5756050000000 1.0
C      1  0.4248790000000  0.4828160000000  0.5248060000000 1.0
C      1  0.4257110000000  0.4876800000000  0.4729730000000 1.0
C      1  0.4233900000000  0.5306670000000  0.5028960000000 1.0
C      1  0.4565930000000  0.4532580000000  0.4434200000000 1.0
C      1  0.4566000000000  0.5703210000000  0.4882720000000 1.0
C      1  0.4512580000000  0.4775210000000  0.5698010000000 1.0
C      1  0.5368520000000  0.5709320000000  0.4807380000000 1.0
C      1  0.5359420000000  0.4798430000000  0.5735060000000 1.0
C      1  0.5367680000000  0.4482210000000  0.4471740000000 1.0
C      1  0.4778700000000  0.4315900000000  0.5284960000000 1.0
C      1  0.4758580000000  0.5096200000000  0.4218750000000 1.0
C      1  0.4782600000000  0.5620310000000  0.5480420000000 1.0
C      1  0.5302310000000  0.4811910000000  0.5249210000000 1.0
C      1  0.5321110000000  0.4891730000000  0.4695380000000 1.0
C      1  0.5299190000000  0.5301810000000  0.5057430000000 1.0
END
