TITL C-2441161-5029-249 0.00761302218957913 125000 -5080.08596054176 0 0 39 (C1) n - 1
REM
REM in /home/bkarasulu/work/CARBON/AIRSS/Generating-Clusters/ReaxFF-fromJPCA2015/Units_Real/with-SteepDescent/Higher-Symm
REM
REM
REM
REM
REM
REM ./C.cell (1df0a924f5614ab8850e4351716899ee)
REM
REM compiler GCC version 9.2.1 20190827 (Red Hat 9.2.1-1)
REM options -cpp -mtune=generic -march=x86-64 -g -O0 -fpre-include=/usr/include/finclude/math-vector-fortran.h
REM seed -1434658564 -2006176809 217799102 -1192699568 -1913095600 1493356757 -1448598268 774744705 893135288 -1962453455 -831781965 801515815 -1188845932 -1865808254 29574888 33072174 43691332 -1330103568 -1216311164 138771248 -1677567723 1255911648 -518422329 763703360 -736489047 1284748213 1690850503 1435743336 520323057 -1676505201 1827615366 -1138824284 -951466031
REM
CELL 1.54180   50.00000   50.00000   50.00000   90.00000   90.00000   90.00000
LATT -1
SFAC C  
C      1  0.4485870000000  0.5251580000000  0.5212490000000 1.0
C      1  0.5455000000000  0.4739960000000  0.4817120000000 1.0
C      1  0.4837270000000  0.5548240000000  0.5093430000000 1.0
C      1  0.5171410000000  0.4444030000000  0.4917190000000 1.0
C      1  0.5041810000000  0.5400430000000  0.5244500000000 1.0
C      1  0.4883520000000  0.4605680000000  0.4837170000000 1.0
C      1  0.5207170000000  0.4456980000000  0.5194130000000 1.0
C      1  0.4920140000000  0.5440060000000  0.4782650000000 1.0
C      1  0.5188080000000  0.5539850000000  0.4711030000000 1.0
C      1  0.4746060000000  0.4408120000000  0.5320000000000 1.0
C      1  0.4723100000000  0.5426380000000  0.4541970000000 1.0
C      1  0.5237210000000  0.4555740000000  0.5448600000000 1.0
C      1  0.4946860000000  0.4524220000000  0.5515930000000 1.0
C      1  0.4962290000000  0.5567100000000  0.4537770000000 1.0
C      1  0.4797630000000  0.4777390000000  0.5502820000000 1.0
C      1  0.5260420000000  0.5176760000000  0.4523140000000 1.0
C      1  0.5037950000000  0.4988920000000  0.4552380000000 1.0
C      1  0.4991040000000  0.4979600000000  0.5457260000000 1.0
C      1  0.4538250000000  0.4955480000000  0.4580000000000 1.0
C      1  0.5464480000000  0.5045170000000  0.5417990000000 1.0
C      1  0.5267040000000  0.4906660000000  0.4401860000000 1.0
C      1  0.4762420000000  0.5045050000000  0.5616520000000 1.0
C      1  0.4584150000000  0.5249690000000  0.5491920000000 1.0
C      1  0.5417570000000  0.4677020000000  0.4528090000000 1.0
C      1  0.5505820000000  0.5230520000000  0.5010500000000 1.0
C      1  0.4433190000000  0.4708490000000  0.4995510000000 1.0
C      1  0.5437240000000  0.4771070000000  0.5355810000000 1.0
C      1  0.4567970000000  0.5219500000000  0.4668180000000 1.0
C      1  0.5494320000000  0.5254040000000  0.5309380000000 1.0
C      1  0.4498110000000  0.4744110000000  0.4671730000000 1.0
C      1  0.5048250000000  0.5111000000000  0.5216500000000 1.0
C      1  0.4972890000000  0.4874290000000  0.4806330000000 1.0
C      1  0.4670690000000  0.4595300000000  0.5091290000000 1.0
C      1  0.5367140000000  0.5316990000000  0.4760410000000 1.0
C      1  0.5472820000000  0.4811990000000  0.5075460000000 1.0
C      1  0.4646120000000  0.5206140000000  0.4963600000000 1.0
C      1  0.5292040000000  0.5399890000000  0.5360600000000 1.0
C      1  0.4714040000000  0.4624020000000  0.4626920000000 1.0
C      1  0.4883990000000  0.5045160000000  0.5003220000000 1.0
END
