TITL C-2441163-1170-721 0.0495604472217435 125000 -9196.95442717439 0 0 76 (C1) n - 1
REM
REM in /home/bkarasulu/work/CARBON/AIRSS/Generating-Clusters/ReaxFF-fromJPCA2015/Units_Real/with-SteepDescent/Higher-Symm
REM
REM
REM
REM
REM
REM ./C.cell (1df0a924f5614ab8850e4351716899ee)
REM
REM compiler GCC version 9.2.1 20190827 (Red Hat 9.2.1-1)
REM options -cpp -mtune=generic -march=x86-64 -g -O0 -fpre-include=/usr/include/finclude/math-vector-fortran.h
REM seed -571243043 1471124665 1686050320 -112717803 -542081898 2002415435 -947743419 1363054589 -1987621480 -1482600201 -1492122198 -1644838239 1345785018 1860759732 -1924755557 556677043 -1367066490 -816464605 1933958975 1476135284 -1584602889 -1668749956 -229047882 543335613 -381180913 808644351 -1755485180 -1583936184 544822459 1290278973 -657319754 -1643363418 24808395
REM
CELL 1.54180   50.00000   50.00000   50.00000   90.00000   90.00000   90.00000
LATT -1
SFAC C  
C      1  0.5241720000000  0.5548310000000  0.5275030000000 1.0
C      1  0.5376030000000  0.5612980000000  0.4828670000000 1.0
C      1  0.4968550000000  0.5518860000000  0.4649150000000 1.0
C      1  0.4638620000000  0.5566700000000  0.4914960000000 1.0
C      1  0.4779400000000  0.5598980000000  0.5348940000000 1.0
C      1  0.5534620000000  0.5580950000000  0.5306130000000 1.0
C      1  0.5514630000000  0.5575950000000  0.4595260000000 1.0
C      1  0.4754840000000  0.5572320000000  0.4434310000000 1.0
C      1  0.4371760000000  0.5594630000000  0.5048130000000 1.0
C      1  0.4857880000000  0.5560140000000  0.5617700000000 1.0
C      1  0.4741610000000  0.5700110000000  0.4683320000000 1.0
C      1  0.4604820000000  0.5710420000000  0.5165520000000 1.0
C      1  0.5030480000000  0.5672340000000  0.5425170000000 1.0
C      1  0.5399730000000  0.5708110000000  0.5091780000000 1.0
C      1  0.5235460000000  0.5605500000000  0.4574180000000 1.0
C      1  0.4360860000000  0.5232670000000  0.5416740000000 1.0
C      1  0.5268860000000  0.5208410000000  0.5663670000000 1.0
C      1  0.5715470000000  0.5205220000000  0.4996240000000 1.0
C      1  0.5222150000000  0.5254530000000  0.4377660000000 1.0
C      1  0.4420150000000  0.5191760000000  0.4589100000000 1.0
C      1  0.4907910000000  0.5204730000000  0.4634180000000 1.0
C      1  0.4641440000000  0.5207420000000  0.4972160000000 1.0
C      1  0.4883540000000  0.5127070000000  0.5347220000000 1.0
C      1  0.5304300000000  0.5198460000000  0.5239490000000 1.0
C      1  0.5298920000000  0.5136900000000  0.4810680000000 1.0
C      1  0.4625720000000  0.4732510000000  0.5486770000000 1.0
C      1  0.5359400000000  0.4714200000000  0.5539930000000 1.0
C      1  0.5637870000000  0.4727020000000  0.4826600000000 1.0
C      1  0.5032690000000  0.4762520000000  0.4319620000000 1.0
C      1  0.4412880000000  0.4711550000000  0.4776720000000 1.0
C      1  0.4789010000000  0.4646620000000  0.4345880000000 1.0
C      1  0.4301010000000  0.4653320000000  0.5027280000000 1.0
C      1  0.4808410000000  0.4640880000000  0.5684280000000 1.0
C      1  0.5597930000000  0.4655480000000  0.5394100000000 1.0
C      1  0.5541790000000  0.4642590000000  0.4576140000000 1.0
C      1  0.5121810000000  0.5005930000000  0.5269020000000 1.0
C      1  0.5288200000000  0.4998530000000  0.5050960000000 1.0
C      1  0.5060000000000  0.5014200000000  0.4730320000000 1.0
C      1  0.4794050000000  0.5011040000000  0.4844730000000 1.0
C      1  0.4752460000000  0.5011770000000  0.5130930000000 1.0
C      1  0.5678440000000  0.5338190000000  0.5250090000000 1.0
C      1  0.5499130000000  0.5327870000000  0.4441090000000 1.0
C      1  0.4600860000000  0.5328090000000  0.4398750000000 1.0
C      1  0.4267960000000  0.5342160000000  0.5143270000000 1.0
C      1  0.5007140000000  0.5326150000000  0.5721550000000 1.0
C      1  0.4791730000000  0.4392710000000  0.4551210000000 1.0
C      1  0.4512210000000  0.4396500000000  0.5052230000000 1.0
C      1  0.4907790000000  0.4392950000000  0.5493760000000 1.0
C      1  0.5444100000000  0.4395590000000  0.5251880000000 1.0
C      1  0.5382540000000  0.4362370000000  0.4638310000000 1.0
C      1  0.5516960000000  0.5155410000000  0.5423780000000 1.0
C      1  0.5555630000000  0.5134770000000  0.4671090000000 1.0
C      1  0.4831750000000  0.5148490000000  0.4370670000000 1.0
C      1  0.4361740000000  0.5154210000000  0.4932830000000 1.0
C      1  0.4822060000000  0.5116810000000  0.5631560000000 1.0
C      1  0.4690870000000  0.4327480000000  0.5291340000000 1.0
C      1  0.5185820000000  0.4313120000000  0.5398050000000 1.0
C      1  0.5425060000000  0.4341020000000  0.4937900000000 1.0
C      1  0.5102870000000  0.4326360000000  0.4572860000000 1.0
C      1  0.4630330000000  0.4316560000000  0.4782330000000 1.0
C      1  0.4403720000000  0.4939380000000  0.5422420000000 1.0
C      1  0.5245690000000  0.4934220000000  0.5710760000000 1.0
C      1  0.5758550000000  0.4926130000000  0.5005380000000 1.0
C      1  0.5231150000000  0.4973180000000  0.4308600000000 1.0
C      1  0.4407190000000  0.4915620000000  0.4559460000000 1.0
C      1  0.4988890000000  0.4561360000000  0.4687880000000 1.0
C      1  0.4646270000000  0.4567440000000  0.4877760000000 1.0
C      1  0.4797370000000  0.4593360000000  0.5271450000000 1.0
C      1  0.5217530000000  0.4580660000000  0.5318220000000 1.0
C      1  0.5303490000000  0.4606090000000  0.4929320000000 1.0
C      1  0.4948790000000  0.4880700000000  0.5747650000000 1.0
C      1  0.5666870000000  0.4912480000000  0.5296200000000 1.0
C      1  0.5481470000000  0.4904810000000  0.4475220000000 1.0
C      1  0.4650280000000  0.4906690000000  0.4374880000000 1.0
C      1  0.4302250000000  0.4913390000000  0.5140980000000 1.0
C      1  0.5014670000000  0.4627980000000  0.4970570000000 1.0
END
