TITL C-2441156-4686-175 0.0583746075659457 125000 -27016.2697335468 0 0 191 (C1) n - 1
REM
REM in /home/bkarasulu/work/CARBON/AIRSS/Generating-Clusters/ReaxFF-fromJPCA2015/Units_Real/with-SteepDescent/Higher-Symm
REM
REM
REM
REM
REM
REM ./C.cell (1df0a924f5614ab8850e4351716899ee)
REM
REM compiler GCC version 9.2.1 20190827 (Red Hat 9.2.1-1)
REM options -cpp -mtune=generic -march=x86-64 -g -O0 -fpre-include=/usr/include/finclude/math-vector-fortran.h
REM seed -168332372 -163391520 578948780 -600979717 768842800 802751984 633869061 2107514195 1286109714 403493492 -1249848096 -783347283 1984442134 -1934835476 1339807550 -377217477 -55440187 -748411778 1187820777 -1525042792 -1364122363 1714794779 -1484585901 -1996028603 1447515149 -754642427 -677852323 998438988 -725440781 -1839082650 825545688 673380730 -717089718
REM
CELL 1.54180   50.00000   50.00000   50.00000   90.00000   90.00000   90.00000
LATT -1
SFAC C  
C      1  0.4406040000000  0.4481310000000  0.4602420000000 1.0
C      1  0.4376050000000  0.5633090000000  0.4833660000000 1.0
C      1  0.4422620000000  0.4837570000000  0.5662760000000 1.0
C      1  0.5095570000000  0.4121990000000  0.5676220000000 1.0
C      1  0.5095290000000  0.4809080000000  0.3915780000000 1.0
C      1  0.5075360000000  0.6004340000000  0.5437450000000 1.0
C      1  0.5144590000000  0.4387330000000  0.4674920000000 1.0
C      1  0.5125120000000  0.5560380000000  0.4653520000000 1.0
C      1  0.5161980000000  0.5000030000000  0.5684020000000 1.0
C      1  0.4774830000000  0.3852160000000  0.5425120000000 1.0
C      1  0.4866640000000  0.5076090000000  0.3710760000000 1.0
C      1  0.4840890000000  0.5873020000000  0.5770390000000 1.0
C      1  0.5306310000000  0.3844320000000  0.4703440000000 1.0
C      1  0.5272770000000  0.5789890000000  0.4137320000000 1.0
C      1  0.5271460000000  0.5303670000000  0.6092880000000 1.0
C      1  0.4710720000000  0.3908900000000  0.5132390000000 1.0
C      1  0.4750910000000  0.5512640000000  0.4038180000000 1.0
C      1  0.4540030000000  0.5622560000000  0.6191960000000 1.0
C      1  0.4650020000000  0.5219300000000  0.5073380000000 1.0
C      1  0.4566590000000  0.4767710000000  0.5159040000000 1.0
C      1  0.4596830000000  0.4949180000000  0.4665010000000 1.0
C      1  0.5670660000000  0.5533940000000  0.4224510000000 1.0
C      1  0.5647670000000  0.5379070000000  0.5839600000000 1.0
C      1  0.5685310000000  0.4091830000000  0.4918550000000 1.0
C      1  0.4817900000000  0.5050190000000  0.6097190000000 1.0
C      1  0.4920040000000  0.3978280000000  0.4398970000000 1.0
C      1  0.4864860000000  0.5863620000000  0.4489460000000 1.0
C      1  0.4296120000000  0.5459020000000  0.5748440000000 1.0
C      1  0.4083500000000  0.4085330000000  0.4945300000000 1.0
C      1  0.4263080000000  0.5444620000000  0.4226840000000 1.0
C      1  0.4356460000000  0.4255050000000  0.4869060000000 1.0
C      1  0.4370270000000  0.5495680000000  0.4501730000000 1.0
C      1  0.4457340000000  0.5327250000000  0.5545120000000 1.0
C      1  0.5323840000000  0.5220750000000  0.5097390000000 1.0
C      1  0.5406700000000  0.4752020000000  0.5127710000000 1.0
C      1  0.5306960000000  0.5031550000000  0.4681910000000 1.0
C      1  0.5589200000000  0.5045420000000  0.4040030000000 1.0
C      1  0.5513260000000  0.5775210000000  0.5528970000000 1.0
C      1  0.5542250000000  0.4167580000000  0.5398250000000 1.0
C      1  0.5868840000000  0.5075290000000  0.4761000000000 1.0
C      1  0.5888790000000  0.5184280000000  0.5162280000000 1.0
C      1  0.5664800000000  0.4687680000000  0.5002550000000 1.0
C      1  0.5334890000000  0.4136120000000  0.4270420000000 1.0
C      1  0.5285620000000  0.6047850000000  0.4581350000000 1.0
C      1  0.5270080000000  0.4824110000000  0.6135240000000 1.0
C      1  0.5519490000000  0.5335260000000  0.4062600000000 1.0
C      1  0.5429520000000  0.5601310000000  0.5749430000000 1.0
C      1  0.5473480000000  0.4061710000000  0.5120800000000 1.0
C      1  0.5533360000000  0.4913200000000  0.5994220000000 1.0
C      1  0.5545600000000  0.4293450000000  0.4399520000000 1.0
C      1  0.5531550000000  0.5890100000000  0.4630480000000 1.0
C      1  0.4789100000000  0.6069940000000  0.5347330000000 1.0
C      1  0.4836950000000  0.4184120000000  0.5812700000000 1.0
C      1  0.4761560000000  0.4741750000000  0.3942900000000 1.0
C      1  0.4538530000000  0.4141260000000  0.5078610000000 1.0
C      1  0.4481020000000  0.5401220000000  0.4019270000000 1.0
C      1  0.4722700000000  0.5735320000000  0.5993950000000 1.0
C      1  0.5021970000000  0.5234050000000  0.5570730000000 1.0
C      1  0.4991620000000  0.4414150000000  0.4912310000000 1.0
C      1  0.4999990000000  0.5331660000000  0.4549820000000 1.0
C      1  0.5881420000000  0.5460660000000  0.5490350000000 1.0
C      1  0.5931370000000  0.4363470000000  0.5236120000000 1.0
C      1  0.5931040000000  0.5157910000000  0.4322650000000 1.0
C      1  0.5229500000000  0.3934540000000  0.4979020000000 1.0
C      1  0.5272820000000  0.5499730000000  0.4033640000000 1.0
C      1  0.5185410000000  0.5524420000000  0.5901880000000 1.0
C      1  0.5854630000000  0.5245700000000  0.5683290000000 1.0
C      1  0.5901180000000  0.4333220000000  0.4862990000000 1.0
C      1  0.5830500000000  0.5406460000000  0.4442060000000 1.0
C      1  0.5731680000000  0.4672290000000  0.5897620000000 1.0
C      1  0.5630790000000  0.4552050000000  0.4293630000000 1.0
C      1  0.5588550000000  0.5874250000000  0.4933660000000 1.0
C      1  0.5967690000000  0.5293530000000  0.4906050000000 1.0
C      1  0.5956650000000  0.4928700000000  0.5250280000000 1.0
C      1  0.5917660000000  0.4832800000000  0.4906670000000 1.0
C      1  0.5808110000000  0.4925040000000  0.4206160000000 1.0
C      1  0.5762410000000  0.5702800000000  0.5371940000000 1.0
C      1  0.5771530000000  0.4339080000000  0.5457080000000 1.0
C      1  0.5792850000000  0.4445830000000  0.5060180000000 1.0
C      1  0.5700800000000  0.5147510000000  0.4530990000000 1.0
C      1  0.5668070000000  0.5306290000000  0.5329910000000 1.0
C      1  0.4183100000000  0.4932370000000  0.4464940000000 1.0
C      1  0.4232670000000  0.5455460000000  0.5197530000000 1.0
C      1  0.4161120000000  0.4556050000000  0.5475080000000 1.0
C      1  0.4630140000000  0.4261930000000  0.4192620000000 1.0
C      1  0.4588270000000  0.6103980000000  0.4780160000000 1.0
C      1  0.4664150000000  0.4790670000000  0.6110220000000 1.0
C      1  0.4662370000000  0.3999550000000  0.5659380000000 1.0
C      1  0.4626680000000  0.4942560000000  0.3777600000000 1.0
C      1  0.4643150000000  0.6005970000000  0.5581660000000 1.0
C      1  0.5376680000000  0.5466260000000  0.5240120000000 1.0
C      1  0.5320770000000  0.4525630000000  0.5274360000000 1.0
C      1  0.5385030000000  0.5022160000000  0.4410990000000 1.0
C      1  0.5110650000000  0.4536520000000  0.4401620000000 1.0
C      1  0.5082740000000  0.5745800000000  0.4885050000000 1.0
C      1  0.5128940000000  0.4711020000000  0.5691210000000 1.0
C      1  0.4892780000000  0.5126600000000  0.4939140000000 1.0
C      1  0.5020030000000  0.4898660000000  0.5290930000000 1.0
C      1  0.4982740000000  0.4856050000000  0.5002400000000 1.0
C      1  0.4911010000000  0.4680140000000  0.5482470000000 1.0
C      1  0.4886880000000  0.4720970000000  0.4444840000000 1.0
C      1  0.4860310000000  0.5613720000000  0.5031280000000 1.0
C      1  0.5118320000000  0.4308220000000  0.4191480000000 1.0
C      1  0.5088020000000  0.6049840000000  0.4791620000000 1.0
C      1  0.5136730000000  0.4608920000000  0.5993250000000 1.0
C      1  0.5100670000000  0.5033600000000  0.3781700000000 1.0
C      1  0.5107240000000  0.5846070000000  0.5667620000000 1.0
C      1  0.5059760000000  0.3879680000000  0.5494270000000 1.0
C      1  0.5559650000000  0.5049960000000  0.5471640000000 1.0
C      1  0.5508900000000  0.4630160000000  0.4753820000000 1.0
C      1  0.5568070000000  0.5456730000000  0.4759670000000 1.0
C      1  0.4631540000000  0.5699010000000  0.4407330000000 1.0
C      1  0.4719430000000  0.5278810000000  0.5940130000000 1.0
C      1  0.4794260000000  0.4009230000000  0.4682090000000 1.0
C      1  0.4577960000000  0.4665300000000  0.4155340000000 1.0
C      1  0.4617910000000  0.5935390000000  0.5146660000000 1.0
C      1  0.4607570000000  0.4389990000000  0.5808940000000 1.0
C      1  0.5370030000000  0.4842030000000  0.4015350000000 1.0
C      1  0.5338440000000  0.5926290000000  0.5338870000000 1.0
C      1  0.5351780000000  0.4248590000000  0.5608670000000 1.0
C      1  0.4899130000000  0.4641410000000  0.6132930000000 1.0
C      1  0.4877330000000  0.4141550000000  0.4149180000000 1.0
C      1  0.4837220000000  0.6122310000000  0.4659630000000 1.0
C      1  0.5352650000000  0.5766530000000  0.5083990000000 1.0
C      1  0.5381670000000  0.4539810000000  0.5560870000000 1.0
C      1  0.5375980000000  0.4742320000000  0.4300600000000 1.0
C      1  0.5130190000000  0.5921840000000  0.4362600000000 1.0
C      1  0.5107060000000  0.5065560000000  0.6150290000000 1.0
C      1  0.5196150000000  0.3928750000000  0.4434380000000 1.0
C      1  0.4622810000000  0.5067360000000  0.4231570000000 1.0
C      1  0.4645310000000  0.5521880000000  0.5440830000000 1.0
C      1  0.4593850000000  0.4324190000000  0.5320190000000 1.0
C      1  0.4468610000000  0.4900870000000  0.4398890000000 1.0
C      1  0.4501210000000  0.5733570000000  0.5318690000000 1.0
C      1  0.4392770000000  0.4546530000000  0.5244730000000 1.0
C      1  0.4557000000000  0.3895700000000  0.4758790000000 1.0
C      1  0.4647850000000  0.5799000000000  0.4130810000000 1.0
C      1  0.4452610000000  0.5405070000000  0.5985050000000 1.0
C      1  0.4170210000000  0.5697580000000  0.5614380000000 1.0
C      1  0.3994010000000  0.4191800000000  0.5184960000000 1.0
C      1  0.4077400000000  0.5227770000000  0.4201350000000 1.0
C      1  0.4447580000000  0.4436220000000  0.4297550000000 1.0
C      1  0.4426740000000  0.5931070000000  0.4913820000000 1.0
C      1  0.4520390000000  0.4665610000000  0.5878370000000 1.0
C      1  0.5724890000000  0.4621110000000  0.5620370000000 1.0
C      1  0.5852460000000  0.4678100000000  0.4420390000000 1.0
C      1  0.5796880000000  0.5738230000000  0.5076870000000 1.0
C      1  0.5433870000000  0.4363420000000  0.4664220000000 1.0
C      1  0.5403750000000  0.5618690000000  0.4629620000000 1.0
C      1  0.5432280000000  0.5005210000000  0.5723500000000 1.0
C      1  0.4100260000000  0.5650450000000  0.5344670000000 1.0
C      1  0.3998780000000  0.4357380000000  0.5378290000000 1.0
C      1  0.3987390000000  0.4995090000000  0.4252000000000 1.0
C      1  0.4130410000000  0.5518500000000  0.4962220000000 1.0
C      1  0.4156830000000  0.4839460000000  0.5540670000000 1.0
C      1  0.4187210000000  0.4670610000000  0.4622770000000 1.0
C      1  0.5314740000000  0.4983730000000  0.5261740000000 1.0
C      1  0.5268870000000  0.4783750000000  0.4830970000000 1.0
C      1  0.5413220000000  0.5233680000000  0.4842260000000 1.0
C      1  0.5013990000000  0.5388960000000  0.4095130000000 1.0
C      1  0.4924640000000  0.5426480000000  0.5796370000000 1.0
C      1  0.4938430000000  0.3955250000000  0.4951200000000 1.0
C      1  0.4793160000000  0.4640130000000  0.4932790000000 1.0
C      1  0.4804450000000  0.5168220000000  0.4676450000000 1.0
C      1  0.4808130000000  0.5102440000000  0.5366140000000 1.0
C      1  0.4615640000000  0.5497100000000  0.4946390000000 1.0
C      1  0.4648760000000  0.4860190000000  0.5450900000000 1.0
C      1  0.4684560000000  0.4667250000000  0.4658570000000 1.0
C      1  0.5142310000000  0.5443150000000  0.5407340000000 1.0
C      1  0.5087360000000  0.4381890000000  0.5187680000000 1.0
C      1  0.5094470000000  0.5177210000000  0.4311290000000 1.0
C      1  0.4263030000000  0.4495870000000  0.5002680000000 1.0
C      1  0.4241130000000  0.5249000000000  0.4603170000000 1.0
C      1  0.4283950000000  0.5235870000000  0.5351150000000 1.0
C      1  0.4489560000000  0.5116610000000  0.3974590000000 1.0
C      1  0.4369300000000  0.5901560000000  0.5523550000000 1.0
C      1  0.4488880000000  0.4225580000000  0.5602090000000 1.0
C      1  0.5845400000000  0.4934770000000  0.5515040000000 1.0
C      1  0.5913340000000  0.4608180000000  0.4698150000000 1.0
C      1  0.5838970000000  0.5545670000000  0.4840060000000 1.0
C      1  0.4901740000000  0.5539800000000  0.5305630000000 1.0
C      1  0.4866900000000  0.4425780000000  0.5361880000000 1.0
C      1  0.4881270000000  0.4966160000000  0.4300530000000 1.0
C      1  0.4123560000000  0.5021510000000  0.5317110000000 1.0
C      1  0.4121900000000  0.4711600000000  0.4892400000000 1.0
C      1  0.4103570000000  0.5250390000000  0.4847890000000 1.0
C      1  0.5564480000000  0.3938250000000  0.4736090000000 1.0
C      1  0.5515270000000  0.5769220000000  0.4268610000000 1.0
C      1  0.5543300000000  0.5222370000000  0.6056370000000 1.0
C      1  0.4470420000000  0.4983260000000  0.4973460000000 1.0
C      1  0.4147310000000  0.4988010000000  0.5017070000000 1.0
END
