TITL C-2441168-9922-1378 0.0578978535980769 125000 -17854.1836598322 0 0 128 (C1) n - 1
REM
REM in /home/bkarasulu/work/CARBON/AIRSS/Generating-Clusters/ReaxFF-fromJPCA2015/Units_Real/with-SteepDescent/Higher-Symm
REM
REM
REM
REM
REM
REM ./C.cell (1df0a924f5614ab8850e4351716899ee)
REM
REM compiler GCC version 9.2.1 20190827 (Red Hat 9.2.1-1)
REM options -cpp -mtune=generic -march=x86-64 -g -O0 -fpre-include=/usr/include/finclude/math-vector-fortran.h
REM seed -414762777 -191931048 -28104743 764288453 600151767 1191649400 830576133 -166567599 952598482 294681645 -323846782 1174584158 -1685272945 151110987 -1665114201 1602579245 -580783962 -1198484497 -1755900985 -1926760583 1318874937 -1715894929 675415350 -355716934 -1117109530 -214494916 1527614002 839889618 776753060 1301540576 1769765239 1245029329 773197476
REM
CELL 1.54180   50.00000   50.00000   50.00000   90.00000   90.00000   90.00000
LATT -1
SFAC C  
C      1  0.5929750000000  0.4827090000000  0.4693280000000 1.0
C      1  0.4978140000000  0.4842160000000  0.4059570000000 1.0
C      1  0.4084330000000  0.4848290000000  0.4686750000000 1.0
C      1  0.4485320000000  0.4812310000000  0.5779340000000 1.0
C      1  0.5553430000000  0.4850600000000  0.5800320000000 1.0
C      1  0.5923120000000  0.5122770000000  0.4680740000000 1.0
C      1  0.5002710000000  0.5135990000000  0.4032370000000 1.0
C      1  0.4073820000000  0.5142330000000  0.4700320000000 1.0
C      1  0.4511190000000  0.5109990000000  0.5800370000000 1.0
C      1  0.5551210000000  0.5154730000000  0.5775820000000 1.0
C      1  0.5163120000000  0.4476320000000  0.4818360000000 1.0
C      1  0.4875200000000  0.4492320000000  0.4794490000000 1.0
C      1  0.4737420000000  0.4519520000000  0.5050480000000 1.0
C      1  0.4950770000000  0.4501190000000  0.5247280000000 1.0
C      1  0.5209070000000  0.4458340000000  0.5104990000000 1.0
C      1  0.5174370000000  0.5543790000000  0.4850630000000 1.0
C      1  0.4887040000000  0.5500040000000  0.4785500000000 1.0
C      1  0.4756670000000  0.5498430000000  0.5042280000000 1.0
C      1  0.4957940000000  0.5478390000000  0.5248170000000 1.0
C      1  0.5229050000000  0.5447310000000  0.5152640000000 1.0
C      1  0.5913730000000  0.4762150000000  0.4985580000000 1.0
C      1  0.5237310000000  0.4709110000000  0.4132820000000 1.0
C      1  0.4281580000000  0.4778730000000  0.4478140000000 1.0
C      1  0.4274110000000  0.4720540000000  0.5581280000000 1.0
C      1  0.5333810000000  0.4680300000000  0.5804640000000 1.0
C      1  0.5945570000000  0.5242550000000  0.4953220000000 1.0
C      1  0.5265350000000  0.5203220000000  0.4150730000000 1.0
C      1  0.4272500000000  0.5260240000000  0.4498160000000 1.0
C      1  0.4325640000000  0.5197350000000  0.5581290000000 1.0
C      1  0.5295870000000  0.5289340000000  0.5844140000000 1.0
C      1  0.5240980000000  0.5145730000000  0.5036710000000 1.0
C      1  0.5231480000000  0.5269910000000  0.4773560000000 1.0
C      1  0.4822480000000  0.5254990000000  0.4658570000000 1.0
C      1  0.4591500000000  0.5263180000000  0.5034730000000 1.0
C      1  0.4930950000000  0.5233010000000  0.5379770000000 1.0
C      1  0.5377620000000  0.4689110000000  0.5160670000000 1.0
C      1  0.5199950000000  0.4766540000000  0.4773750000000 1.0
C      1  0.4772630000000  0.4726320000000  0.4657620000000 1.0
C      1  0.4695830000000  0.4801440000000  0.5067260000000 1.0
C      1  0.5015230000000  0.4786140000000  0.5292630000000 1.0
C      1  0.4739630000000  0.4869540000000  0.4229790000000 1.0
C      1  0.4220290000000  0.4835050000000  0.4956010000000 1.0
C      1  0.4727430000000  0.4802130000000  0.5614960000000 1.0
C      1  0.5660000000000  0.4837510000000  0.5512590000000 1.0
C      1  0.5703850000000  0.4804870000000  0.4517720000000 1.0
C      1  0.4746210000000  0.5173520000000  0.4172630000000 1.0
C      1  0.4105750000000  0.5136050000000  0.4986470000000 1.0
C      1  0.4789860000000  0.5203470000000  0.5831210000000 1.0
C      1  0.5702960000000  0.5140190000000  0.5527400000000 1.0
C      1  0.5634570000000  0.5129220000000  0.4611340000000 1.0
C      1  0.5644480000000  0.5677670000000  0.4974290000000 1.0
C      1  0.5186930000000  0.5662330000000  0.4374910000000 1.0
C      1  0.4484160000000  0.5746500000000  0.4617330000000 1.0
C      1  0.4472550000000  0.5649780000000  0.5398970000000 1.0
C      1  0.5169800000000  0.5782920000000  0.5602210000000 1.0
C      1  0.5663110000000  0.4320590000000  0.4984380000000 1.0
C      1  0.5111850000000  0.4296150000000  0.4348350000000 1.0
C      1  0.4500190000000  0.4315840000000  0.4641070000000 1.0
C      1  0.4491900000000  0.4297240000000  0.5382330000000 1.0
C      1  0.5232740000000  0.4308490000000  0.5601270000000 1.0
C      1  0.5681710000000  0.4566550000000  0.5400640000000 1.0
C      1  0.5548010000000  0.4556810000000  0.4503770000000 1.0
C      1  0.4652060000000  0.4588450000000  0.4267730000000 1.0
C      1  0.4239650000000  0.4568960000000  0.5087120000000 1.0
C      1  0.4821800000000  0.4555220000000  0.5722320000000 1.0
C      1  0.5698830000000  0.5376480000000  0.5351380000000 1.0
C      1  0.5562930000000  0.5402450000000  0.4512270000000 1.0
C      1  0.4700750000000  0.5431800000000  0.4309330000000 1.0
C      1  0.4183740000000  0.5388270000000  0.5116280000000 1.0
C      1  0.4849260000000  0.5470310000000  0.5743030000000 1.0
C      1  0.5490170000000  0.4349730000000  0.5460090000000 1.0
C      1  0.5530750000000  0.4341660000000  0.4718500000000 1.0
C      1  0.4818520000000  0.4352430000000  0.4325290000000 1.0
C      1  0.4382230000000  0.4370250000000  0.4924130000000 1.0
C      1  0.4732050000000  0.4328160000000  0.5554660000000 1.0
C      1  0.5455250000000  0.5530460000000  0.5358610000000 1.0
C      1  0.5582170000000  0.5643250000000  0.4682240000000 1.0
C      1  0.4898230000000  0.5650990000000  0.4342680000000 1.0
C      1  0.4281850000000  0.5604950000000  0.4969590000000 1.0
C      1  0.4690990000000  0.5662170000000  0.5580220000000 1.0
C      1  0.4913680000000  0.5953010000000  0.5229940000000 1.0
C      1  0.5291510000000  0.5899410000000  0.5373380000000 1.0
C      1  0.5290280000000  0.5894660000000  0.4841100000000 1.0
C      1  0.4906860000000  0.5971760000000  0.4699870000000 1.0
C      1  0.4550250000000  0.5867840000000  0.4864570000000 1.0
C      1  0.4904850000000  0.4052070000000  0.5277520000000 1.0
C      1  0.5345110000000  0.3966500000000  0.5192480000000 1.0
C      1  0.5240950000000  0.3967570000000  0.4912640000000 1.0
C      1  0.5067470000000  0.4105630000000  0.4556310000000 1.0
C      1  0.4678510000000  0.4066210000000  0.4925550000000 1.0
C      1  0.4745760000000  0.5859400000000  0.4494760000000 1.0
C      1  0.4426920000000  0.5792050000000  0.5110770000000 1.0
C      1  0.4894450000000  0.5873100000000  0.5505390000000 1.0
C      1  0.5511890000000  0.5787490000000  0.5229280000000 1.0
C      1  0.5357800000000  0.5810370000000  0.4576770000000 1.0
C      1  0.4743690000000  0.4177850000000  0.4553960000000 1.0
C      1  0.4484430000000  0.4165710000000  0.5113160000000 1.0
C      1  0.4982150000000  0.4155410000000  0.5522470000000 1.0
C      1  0.5550940000000  0.4184580000000  0.5224390000000 1.0
C      1  0.5330570000000  0.4120120000000  0.4683920000000 1.0
C      1  0.5355900000000  0.5434150000000  0.4306840000000 1.0
C      1  0.4461730000000  0.5484050000000  0.4472630000000 1.0
C      1  0.4300980000000  0.5426560000000  0.5401170000000 1.0
C      1  0.5139350000000  0.5519890000000  0.5741980000000 1.0
C      1  0.5805930000000  0.5464820000000  0.5086380000000 1.0
C      1  0.5324350000000  0.4498770000000  0.4317040000000 1.0
C      1  0.4436700000000  0.4527220000000  0.4446180000000 1.0
C      1  0.4295320000000  0.4511270000000  0.5370970000000 1.0
C      1  0.5124680000000  0.4505460000000  0.5790430000000 1.0
C      1  0.5797390000000  0.4533920000000  0.5128460000000 1.0
C      1  0.5149780000000  0.5085310000000  0.5512690000000 1.0
C      1  0.5555430000000  0.5064710000000  0.4934840000000 1.0
C      1  0.5068360000000  0.5147980000000  0.4572590000000 1.0
C      1  0.4583230000000  0.5130880000000  0.4755370000000 1.0
C      1  0.4690460000000  0.5142390000000  0.5272100000000 1.0
C      1  0.5275700000000  0.4842250000000  0.5399890000000 1.0
C      1  0.5453210000000  0.4800160000000  0.4918110000000 1.0
C      1  0.5163520000000  0.4886700000000  0.4502630000000 1.0
C      1  0.4558630000000  0.4865210000000  0.4842590000000 1.0
C      1  0.4599560000000  0.4888290000000  0.5333180000000 1.0
C      1  0.5816920000000  0.5017110000000  0.5080800000000 1.0
C      1  0.4429230000000  0.5025750000000  0.4454310000000 1.0
C      1  0.4300080000000  0.4955740000000  0.5421910000000 1.0
C      1  0.5070950000000  0.5102330000000  0.5797570000000 1.0
C      1  0.5329790000000  0.4946950000000  0.4274940000000 1.0
C      1  0.4931660000000  0.3981700000000  0.5012430000000 1.0
C      1  0.5037020000000  0.5997050000000  0.4953240000000 1.0
C      1  0.5029890000000  0.4919250000000  0.5033120000000 1.0
END
