TITL C-2441162-9305-7 0.110300864484163 125000 -25356.9204619747 0 0 190 (C1) n - 1
REM
REM in /home/bkarasulu/work/CARBON/AIRSS/Generating-Clusters/ReaxFF-fromJPCA2015/Units_Real/with-SteepDescent/Higher-Symm
REM
REM
REM
REM
REM
REM ./C.cell (1df0a924f5614ab8850e4351716899ee)
REM
REM compiler GCC version 9.2.1 20190827 (Red Hat 9.2.1-1)
REM options -cpp -mtune=generic -march=x86-64 -g -O0 -fpre-include=/usr/include/finclude/math-vector-fortran.h
REM seed 721650325 -242666613 -1047073016 1936092835 344255084 -1275547179 493839425 -372582850 -1690285048 1996249429 -1944970285 1082072882 -1854608233 2129008534 -1252538347 -1048811710 612096216 -98482173 1667621171 1019940694 -694794509 -1158311282 1016758011 921682165 337156803 1381378780 -620450300 1372938595 384455537 -1776377366 2224052 -66881129 615337074
REM
CELL 1.54180   50.00000   50.00000   50.00000   90.00000   90.00000   90.00000
LATT -1
SFAC C  
C      1  0.5091650000000  0.5824610000000  0.4186580000000 1.0
C      1  0.5526460000000  0.5625300000000  0.5851420000000 1.0
C      1  0.5784260000000  0.5190160000000  0.4164590000000 1.0
C      1  0.5795530000000  0.4666820000000  0.5815080000000 1.0
C      1  0.5420130000000  0.4277110000000  0.4159190000000 1.0
C      1  0.4932950000000  0.4203590000000  0.5844660000000 1.0
C      1  0.4460320000000  0.4360740000000  0.4185580000000 1.0
C      1  0.4179480000000  0.4807740000000  0.5850510000000 1.0
C      1  0.4284700000000  0.5358740000000  0.4185100000000 1.0
C      1  0.4561280000000  0.5678540000000  0.5673770000000 1.0
C      1  0.5483450000000  0.5978130000000  0.5130910000000 1.0
C      1  0.5993440000000  0.5462470000000  0.4882150000000 1.0
C      1  0.6080120000000  0.4829570000000  0.5105440000000 1.0
C      1  0.5772020000000  0.4205380000000  0.4889380000000 1.0
C      1  0.5119890000000  0.3913350000000  0.5117430000000 1.0
C      1  0.4496310000000  0.4026910000000  0.4887990000000 1.0
C      1  0.4003200000000  0.4505290000000  0.5118470000000 1.0
C      1  0.3979830000000  0.5296080000000  0.4890210000000 1.0
C      1  0.4250940000000  0.5756970000000  0.5060940000000 1.0
C      1  0.4848050000000  0.6066590000000  0.4898430000000 1.0
C      1  0.6093130000000  0.5032560000000  0.4738220000000 1.0
C      1  0.5913350000000  0.4388580000000  0.5236420000000 1.0
C      1  0.5399500000000  0.3945400000000  0.4742640000000 1.0
C      1  0.4695250000000  0.3934920000000  0.5255210000000 1.0
C      1  0.4131100000000  0.4293480000000  0.4755970000000 1.0
C      1  0.3902100000000  0.4955850000000  0.5245280000000 1.0
C      1  0.4074170000000  0.5743780000000  0.4842400000000 1.0
C      1  0.4686100000000  0.6136610000000  0.5115120000000 1.0
C      1  0.5315130000000  0.6056620000000  0.4756390000000 1.0
C      1  0.5842190000000  0.5695800000000  0.5288210000000 1.0
C      1  0.4781920000000  0.4609930000000  0.5176700000000 1.0
C      1  0.4642220000000  0.4806240000000  0.4856280000000 1.0
C      1  0.4543550000000  0.5076050000000  0.5204310000000 1.0
C      1  0.4691680000000  0.5321700000000  0.4773510000000 1.0
C      1  0.4940990000000  0.5437190000000  0.5154940000000 1.0
C      1  0.5173130000000  0.5399000000000  0.4828660000000 1.0
C      1  0.5414920000000  0.5215140000000  0.5209760000000 1.0
C      1  0.5442340000000  0.4924210000000  0.4836590000000 1.0
C      1  0.5306850000000  0.4699640000000  0.5135400000000 1.0
C      1  0.5089000000000  0.4556700000000  0.4805540000000 1.0
C      1  0.4576250000000  0.6053740000000  0.4861720000000 1.0
C      1  0.5250380000000  0.6090420000000  0.5048260000000 1.0
C      1  0.5875100000000  0.5685860000000  0.4990000000000 1.0
C      1  0.6124980000000  0.5093050000000  0.5030840000000 1.0
C      1  0.5959480000000  0.4385430000000  0.4941950000000 1.0
C      1  0.5383890000000  0.3930620000000  0.5039810000000 1.0
C      1  0.4730760000000  0.3897200000000  0.4960990000000 1.0
C      1  0.4115060000000  0.4267820000000  0.5052350000000 1.0
C      1  0.3941150000000  0.5020620000000  0.4962110000000 1.0
C      1  0.4019930000000  0.5544000000000  0.5065120000000 1.0
C      1  0.5936270000000  0.4988300000000  0.4268020000000 1.0
C      1  0.5822390000000  0.4418640000000  0.5708470000000 1.0
C      1  0.5288780000000  0.4044850000000  0.4256630000000 1.0
C      1  0.4692940000000  0.4095020000000  0.5738590000000 1.0
C      1  0.4238730000000  0.4453130000000  0.4286860000000 1.0
C      1  0.3985380000000  0.4991370000000  0.5756840000000 1.0
C      1  0.4243120000000  0.5616680000000  0.4333660000000 1.0
C      1  0.4725780000000  0.5909450000000  0.5592610000000 1.0
C      1  0.5326550000000  0.5920350000000  0.4285690000000 1.0
C      1  0.5773990000000  0.5566280000000  0.5747230000000 1.0
C      1  0.5900830000000  0.5184740000000  0.5219900000000 1.0
C      1  0.5849840000000  0.4611680000000  0.4767240000000 1.0
C      1  0.5427470000000  0.4177590000000  0.5216230000000 1.0
C      1  0.4888990000000  0.4096940000000  0.4783780000000 1.0
C      1  0.4355170000000  0.4328050000000  0.5231750000000 1.0
C      1  0.4111390000000  0.4839510000000  0.4792250000000 1.0
C      1  0.4226220000000  0.5459700000000  0.5335330000000 1.0
C      1  0.4528330000000  0.5797580000000  0.4737410000000 1.0
C      1  0.5092540000000  0.5911960000000  0.5255720000000 1.0
C      1  0.5633400000000  0.5659750000000  0.4806340000000 1.0
C      1  0.5595820000000  0.5283880000000  0.4515960000000 1.0
C      1  0.5549350000000  0.4834250000000  0.5513240000000 1.0
C      1  0.5314030000000  0.4489320000000  0.4486180000000 1.0
C      1  0.5102940000000  0.4401210000000  0.5512830000000 1.0
C      1  0.4676580000000  0.4532580000000  0.4495320000000 1.0
C      1  0.4425240000000  0.4815660000000  0.5526640000000 1.0
C      1  0.4430250000000  0.5099640000000  0.4475220000000 1.0
C      1  0.4654550000000  0.5431230000000  0.5551520000000 1.0
C      1  0.4908590000000  0.5644740000000  0.4508990000000 1.0
C      1  0.5332420000000  0.5459100000000  0.5535380000000 1.0
C      1  0.4962770000000  0.4107000000000  0.4502460000000 1.0
C      1  0.4420490000000  0.4315890000000  0.5518020000000 1.0
C      1  0.4154170000000  0.4762460000000  0.4516820000000 1.0
C      1  0.4178630000000  0.5285040000000  0.5545050000000 1.0
C      1  0.4475980000000  0.5736640000000  0.4453380000000 1.0
C      1  0.5004690000000  0.5852550000000  0.5529980000000 1.0
C      1  0.5568150000000  0.5713350000000  0.4524120000000 1.0
C      1  0.5845890000000  0.5263260000000  0.5496910000000 1.0
C      1  0.5826950000000  0.4684670000000  0.4490220000000 1.0
C      1  0.5535260000000  0.4254890000000  0.5477730000000 1.0
C      1  0.5199810000000  0.5180350000000  0.5891680000000 1.0
C      1  0.5233030000000  0.5050550000000  0.4146920000000 1.0
C      1  0.5255760000000  0.4905970000000  0.5901610000000 1.0
C      1  0.5128720000000  0.4788730000000  0.4111730000000 1.0
C      1  0.5012270000000  0.4749770000000  0.5853710000000 1.0
C      1  0.4855140000000  0.4812630000000  0.4114000000000 1.0
C      1  0.4806190000000  0.4916570000000  0.5741930000000 1.0
C      1  0.4769890000000  0.5081330000000  0.4130100000000 1.0
C      1  0.4919080000000  0.5146430000000  0.5856400000000 1.0
C      1  0.5009500000000  0.5223270000000  0.4202290000000 1.0
C      1  0.5838400000000  0.4790300000000  0.5560270000000 1.0
C      1  0.5539010000000  0.4312450000000  0.4424130000000 1.0
C      1  0.5072130000000  0.4125570000000  0.5590970000000 1.0
C      1  0.4552050000000  0.4276530000000  0.4438240000000 1.0
C      1  0.4165650000000  0.4675910000000  0.5584780000000 1.0
C      1  0.4169500000000  0.5189830000000  0.4391860000000 1.0
C      1  0.4309310000000  0.5675750000000  0.5522000000000 1.0
C      1  0.4952950000000  0.5924440000000  0.4426640000000 1.0
C      1  0.5449570000000  0.5727120000000  0.5590050000000 1.0
C      1  0.5855420000000  0.5353570000000  0.4400580000000 1.0
C      1  0.5566120000000  0.4786640000000  0.5227280000000 1.0
C      1  0.5353130000000  0.4480110000000  0.4761510000000 1.0
C      1  0.4982040000000  0.4401150000000  0.5241460000000 1.0
C      1  0.4636400000000  0.4530820000000  0.4777480000000 1.0
C      1  0.4402840000000  0.4833430000000  0.5247280000000 1.0
C      1  0.4431740000000  0.5203930000000  0.4754570000000 1.0
C      1  0.4666840000000  0.5497420000000  0.5255060000000 1.0
C      1  0.4989590000000  0.5620900000000  0.4785500000000 1.0
C      1  0.5381590000000  0.5486260000000  0.5260570000000 1.0
C      1  0.5582880000000  0.5178100000000  0.4781860000000 1.0
C      1  0.4763920000000  0.5047120000000  0.5390460000000 1.0
C      1  0.4873700000000  0.5196770000000  0.4581740000000 1.0
C      1  0.4971760000000  0.5217780000000  0.5321140000000 1.0
C      1  0.5169510000000  0.5237020000000  0.4586180000000 1.0
C      1  0.5206960000000  0.5091100000000  0.5329700000000 1.0
C      1  0.5287220000000  0.4948620000000  0.4588400000000 1.0
C      1  0.5146050000000  0.4821410000000  0.5325900000000 1.0
C      1  0.5057300000000  0.4785540000000  0.4659450000000 1.0
C      1  0.4873670000000  0.4781560000000  0.5387610000000 1.0
C      1  0.4824530000000  0.4927420000000  0.4673200000000 1.0
C      1  0.4734010000000  0.5497090000000  0.4081260000000 1.0
C      1  0.4993360000000  0.5532180000000  0.5905960000000 1.0
C      1  0.5344220000000  0.5444660000000  0.4113890000000 1.0
C      1  0.5601420000000  0.5124490000000  0.5889560000000 1.0
C      1  0.5533950000000  0.4780740000000  0.4103490000000 1.0
C      1  0.5399880000000  0.4521250000000  0.5898330000000 1.0
C      1  0.4963510000000  0.4416070000000  0.4114020000000 1.0
C      1  0.4614640000000  0.4596560000000  0.5913120000000 1.0
C      1  0.4446860000000  0.4766540000000  0.4095910000000 1.0
C      1  0.4526190000000  0.5167270000000  0.5907950000000 1.0
C      1  0.5208130000000  0.3939210000000  0.4509440000000 1.0
C      1  0.4549870000000  0.4049090000000  0.5500220000000 1.0
C      1  0.4104810000000  0.4478400000000  0.4518810000000 1.0
C      1  0.3943590000000  0.5109280000000  0.5499390000000 1.0
C      1  0.4074750000000  0.5613810000000  0.4572990000000 1.0
C      1  0.4587310000000  0.6016740000000  0.5359790000000 1.0
C      1  0.5438540000000  0.5941850000000  0.4516960000000 1.0
C      1  0.5886780000000  0.5528640000000  0.5513020000000 1.0
C      1  0.5998530000000  0.4891890000000  0.4502800000000 1.0
C      1  0.5796850000000  0.4292000000000  0.5481620000000 1.0
C      1  0.5460910000000  0.5428350000000  0.4872120000000 1.0
C      1  0.5641190000000  0.5062270000000  0.5162530000000 1.0
C      1  0.5577540000000  0.4665390000000  0.4840460000000 1.0
C      1  0.5255090000000  0.4404600000000  0.5131820000000 1.0
C      1  0.4874810000000  0.4381850000000  0.4852270000000 1.0
C      1  0.4497400000000  0.4572620000000  0.5155350000000 1.0
C      1  0.4382040000000  0.4934470000000  0.4856460000000 1.0
C      1  0.4445830000000  0.5340480000000  0.5145210000000 1.0
C      1  0.4705240000000  0.5596430000000  0.4863590000000 1.0
C      1  0.5152410000000  0.5644070000000  0.5157560000000 1.0
C      1  0.5050950000000  0.5518200000000  0.4073420000000 1.0
C      1  0.5275180000000  0.5459120000000  0.5951810000000 1.0
C      1  0.5483530000000  0.5192730000000  0.4070300000000 1.0
C      1  0.5534200000000  0.4788430000000  0.5969730000000 1.0
C      1  0.5231020000000  0.4509120000000  0.4052310000000 1.0
C      1  0.4887600000000  0.4497190000000  0.5934080000000 1.0
C      1  0.4666990000000  0.4563250000000  0.4035510000000 1.0
C      1  0.4479630000000  0.4868510000000  0.5937920000000 1.0
C      1  0.4549950000000  0.5275010000000  0.4062500000000 1.0
C      1  0.4757750000000  0.5346410000000  0.5974080000000 1.0
C      1  0.6028750000000  0.5305670000000  0.4657870000000 1.0
C      1  0.5990690000000  0.4664270000000  0.5309150000000 1.0
C      1  0.5614610000000  0.4123590000000  0.4674570000000 1.0
C      1  0.4972190000000  0.3955650000000  0.5342390000000 1.0
C      1  0.4375450000000  0.4157270000000  0.4676760000000 1.0
C      1  0.3977570000000  0.4687420000000  0.5322660000000 1.0
C      1  0.4017060000000  0.5334580000000  0.4605870000000 1.0
C      1  0.4337480000000  0.5872310000000  0.5315630000000 1.0
C      1  0.5040090000000  0.6070820000000  0.4684330000000 1.0
C      1  0.5610480000000  0.5851800000000  0.5347590000000 1.0
C      1  0.4975280000000  0.4397010000000  0.4404400000000 1.0
C      1  0.4557510000000  0.4561300000000  0.5627010000000 1.0
C      1  0.4446270000000  0.4803570000000  0.4398570000000 1.0
C      1  0.4461570000000  0.5200560000000  0.5625840000000 1.0
C      1  0.4674190000000  0.5538570000000  0.4363970000000 1.0
C      1  0.5043480000000  0.5570870000000  0.5619680000000 1.0
C      1  0.5385360000000  0.5460070000000  0.4408350000000 1.0
C      1  0.5553290000000  0.5166180000000  0.5611540000000 1.0
C      1  0.5509820000000  0.4748530000000  0.4385880000000 1.0
C      1  0.5380780000000  0.4522340000000  0.5599120000000 1.0
END
