TITL C-2441165-58-473 0.120514145366158 125000 -22948.0442418896 0 0 173 (C1) n - 1
REM
REM in /home/bkarasulu/work/CARBON/AIRSS/Generating-Clusters/ReaxFF-fromJPCA2015/Units_Real/with-SteepDescent/Higher-Symm
REM
REM
REM
REM
REM
REM ./C.cell (1df0a924f5614ab8850e4351716899ee)
REM
REM compiler GCC version 9.2.1 20190827 (Red Hat 9.2.1-1)
REM options -cpp -mtune=generic -march=x86-64 -g -O0 -fpre-include=/usr/include/finclude/math-vector-fortran.h
REM seed -604529273 -308705324 -2119740937 -1617898517 632331714 -1646168333 -299255885 1668097733 508820330 846371688 1968658286 -979171002 -1485869729 -709448925 1533907450 -306503955 -1077049954 748962028 756968913 -128595627 -1588479505 130672547 -915909880 893532613 1463729932 321799118 -2052391884 1482591732 -1166014533 1247261902 1920304894 -289266130 2017994208
REM
CELL 1.54180   50.00000   50.00000   50.00000   90.00000   90.00000   90.00000
LATT -1
SFAC C  
C      1  0.5549840000000  0.4091390000000  0.5358440000000 1.0
C      1  0.4120760000000  0.5337030000000  0.5541380000000 1.0
C      1  0.5336480000000  0.5539440000000  0.4093690000000 1.0
C      1  0.4433500000000  0.4103100000000  0.4630000000000 1.0
C      1  0.4446410000000  0.5911780000000  0.5352080000000 1.0
C      1  0.5548600000000  0.5908580000000  0.4653810000000 1.0
C      1  0.5900850000000  0.5347000000000  0.4444820000000 1.0
C      1  0.5896510000000  0.4637260000000  0.5564320000000 1.0
C      1  0.4103110000000  0.4673230000000  0.4462410000000 1.0
C      1  0.4670970000000  0.5538720000000  0.5924290000000 1.0
C      1  0.4634520000000  0.4439810000000  0.4097750000000 1.0
C      1  0.5334230000000  0.4446020000000  0.5897650000000 1.0
C      1  0.5325630000000  0.4087170000000  0.5543490000000 1.0
C      1  0.5528540000000  0.5327290000000  0.4108780000000 1.0
C      1  0.4069550000000  0.5514240000000  0.5322920000000 1.0
C      1  0.4692840000000  0.4067790000000  0.4499360000000 1.0
C      1  0.5346420000000  0.5904590000000  0.4443890000000 1.0
C      1  0.4664450000000  0.5921410000000  0.5548870000000 1.0
C      1  0.4447250000000  0.5351580000000  0.5896350000000 1.0
C      1  0.5532460000000  0.4659650000000  0.5925090000000 1.0
C      1  0.4452590000000  0.4665730000000  0.4089120000000 1.0
C      1  0.5905490000000  0.5540110000000  0.4664290000000 1.0
C      1  0.4085680000000  0.4461540000000  0.4662400000000 1.0
C      1  0.5936240000000  0.4489370000000  0.5317750000000 1.0
C      1  0.5903500000000  0.5093230000000  0.4300090000000 1.0
C      1  0.5079500000000  0.4300560000000  0.5908050000000 1.0
C      1  0.4296540000000  0.5916630000000  0.5097020000000 1.0
C      1  0.4085850000000  0.5094780000000  0.5699200000000 1.0
C      1  0.4081630000000  0.4914530000000  0.4296090000000 1.0
C      1  0.5906410000000  0.4898960000000  0.5700310000000 1.0
C      1  0.4896570000000  0.4303780000000  0.4085930000000 1.0
C      1  0.4913180000000  0.5698620000000  0.5908400000000 1.0
C      1  0.5092330000000  0.5700400000000  0.4092830000000 1.0
C      1  0.5707380000000  0.5915860000000  0.4897290000000 1.0
C      1  0.5701120000000  0.4083200000000  0.5103340000000 1.0
C      1  0.4287410000000  0.4084790000000  0.4883400000000 1.0
C      1  0.4295390000000  0.5098950000000  0.5914750000000 1.0
C      1  0.5904540000000  0.4301430000000  0.5097910000000 1.0
C      1  0.5091120000000  0.5914550000000  0.4298950000000 1.0
C      1  0.5693190000000  0.5084910000000  0.4086830000000 1.0
C      1  0.4301150000000  0.4914210000000  0.4089640000000 1.0
C      1  0.5696920000000  0.4901030000000  0.5917780000000 1.0
C      1  0.4083270000000  0.4302150000000  0.4907460000000 1.0
C      1  0.5907880000000  0.5694570000000  0.4913040000000 1.0
C      1  0.4093650000000  0.5698020000000  0.5094070000000 1.0
C      1  0.4916170000000  0.5911040000000  0.5697320000000 1.0
C      1  0.5074710000000  0.4095020000000  0.5693810000000 1.0
C      1  0.4909010000000  0.4093640000000  0.4300090000000 1.0
C      1  0.5271540000000  0.5432670000000  0.5710760000000 1.0
C      1  0.5475660000000  0.5689890000000  0.5236700000000 1.0
C      1  0.5640960000000  0.5219630000000  0.5420930000000 1.0
C      1  0.4721920000000  0.5482460000000  0.4318300000000 1.0
C      1  0.4719070000000  0.4564190000000  0.5713990000000 1.0
C      1  0.5200730000000  0.4589190000000  0.4370040000000 1.0
C      1  0.4520720000000  0.5693540000000  0.4718430000000 1.0
C      1  0.4513390000000  0.4304150000000  0.5236080000000 1.0
C      1  0.5482490000000  0.4327470000000  0.4730380000000 1.0
C      1  0.4295470000000  0.5319750000000  0.4484920000000 1.0
C      1  0.4345940000000  0.4766020000000  0.5428900000000 1.0
C      1  0.5677500000000  0.4723300000000  0.4530480000000 1.0
C      1  0.5683670000000  0.5499170000000  0.5309770000000 1.0
C      1  0.5330680000000  0.5742610000000  0.5463520000000 1.0
C      1  0.5508180000000  0.5280400000000  0.5704920000000 1.0
C      1  0.4364290000000  0.5452150000000  0.4770650000000 1.0
C      1  0.5681120000000  0.4524800000000  0.4725540000000 1.0
C      1  0.4305760000000  0.4491450000000  0.5309110000000 1.0
C      1  0.4714290000000  0.5687730000000  0.4517370000000 1.0
C      1  0.5318100000000  0.4318500000000  0.4491870000000 1.0
C      1  0.4661060000000  0.4256580000000  0.5461470000000 1.0
C      1  0.4530780000000  0.5279350000000  0.4316620000000 1.0
C      1  0.5492620000000  0.4678820000000  0.4306100000000 1.0
C      1  0.4476220000000  0.4706490000000  0.5717070000000 1.0
C      1  0.5241040000000  0.4355150000000  0.5433840000000 1.0
C      1  0.4355100000000  0.5424980000000  0.5220690000000 1.0
C      1  0.5423870000000  0.5225510000000  0.4371590000000 1.0
C      1  0.4765290000000  0.4355190000000  0.4581640000000 1.0
C      1  0.4728450000000  0.5649030000000  0.5456850000000 1.0
C      1  0.5261180000000  0.5637950000000  0.4543630000000 1.0
C      1  0.5638160000000  0.5437310000000  0.4759840000000 1.0
C      1  0.5642980000000  0.4572730000000  0.5236970000000 1.0
C      1  0.4352220000000  0.4558260000000  0.4753020000000 1.0
C      1  0.4549320000000  0.5272240000000  0.5640120000000 1.0
C      1  0.4558110000000  0.4754280000000  0.4359540000000 1.0
C      1  0.5440090000000  0.4742750000000  0.5653950000000 1.0
C      1  0.5462650000000  0.4355720000000  0.5271090000000 1.0
C      1  0.5233560000000  0.5431800000000  0.4360360000000 1.0
C      1  0.4379660000000  0.5230790000000  0.5420300000000 1.0
C      1  0.4536150000000  0.4355930000000  0.4734890000000 1.0
C      1  0.5437580000000  0.5642080000000  0.4754970000000 1.0
C      1  0.4528890000000  0.5640250000000  0.5274220000000 1.0
C      1  0.4754800000000  0.5440760000000  0.5647050000000 1.0
C      1  0.5236490000000  0.4557940000000  0.5635480000000 1.0
C      1  0.4716370000000  0.4529280000000  0.4362470000000 1.0
C      1  0.5641390000000  0.5265580000000  0.4549110000000 1.0
C      1  0.4367500000000  0.4773740000000  0.4575810000000 1.0
C      1  0.5638500000000  0.4723780000000  0.5465400000000 1.0
C      1  0.5428460000000  0.4791370000000  0.5028310000000 1.0
C      1  0.4785850000000  0.4985430000000  0.5417720000000 1.0
C      1  0.4998820000000  0.5394180000000  0.4787440000000 1.0
C      1  0.4643880000000  0.4843700000000  0.5016180000000 1.0
C      1  0.4536920000000  0.5265810000000  0.4934290000000 1.0
C      1  0.5410530000000  0.5219190000000  0.4999770000000 1.0
C      1  0.5219540000000  0.4994680000000  0.4596780000000 1.0
C      1  0.5192820000000  0.5017130000000  0.5414500000000 1.0
C      1  0.4798100000000  0.4985260000000  0.4575560000000 1.0
C      1  0.4987180000000  0.5406500000000  0.5197100000000 1.0
C      1  0.4995450000000  0.4581790000000  0.4798320000000 1.0
C      1  0.4995960000000  0.4580360000000  0.5216660000000 1.0
C      1  0.5002390000000  0.4799030000000  0.5420040000000 1.0
C      1  0.5398110000000  0.4994180000000  0.4823010000000 1.0
C      1  0.4794030000000  0.5392430000000  0.4982920000000 1.0
C      1  0.5029160000000  0.4775910000000  0.4572620000000 1.0
C      1  0.5003910000000  0.5195430000000  0.4577920000000 1.0
C      1  0.4974500000000  0.5209720000000  0.5415140000000 1.0
C      1  0.4539870000000  0.4937970000000  0.5279880000000 1.0
C      1  0.5424040000000  0.5041230000000  0.5237620000000 1.0
C      1  0.4587330000000  0.5011870000000  0.4782880000000 1.0
C      1  0.5202650000000  0.5425100000000  0.4993900000000 1.0
C      1  0.4798140000000  0.4602290000000  0.5007270000000 1.0
C      1  0.5205260000000  0.4597230000000  0.5006700000000 1.0
C      1  0.5476820000000  0.5919350000000  0.5071480000000 1.0
C      1  0.5896690000000  0.5072090000000  0.5467390000000 1.0
C      1  0.5093210000000  0.5467990000000  0.5917080000000 1.0
C      1  0.4523020000000  0.5903960000000  0.4912690000000 1.0
C      1  0.4519020000000  0.4086490000000  0.5056330000000 1.0
C      1  0.5474650000000  0.4111730000000  0.4918780000000 1.0
C      1  0.4088190000000  0.5090240000000  0.4519740000000 1.0
C      1  0.4089850000000  0.4921190000000  0.5470030000000 1.0
C      1  0.5884790000000  0.4917680000000  0.4528710000000 1.0
C      1  0.4912220000000  0.5474890000000  0.4106210000000 1.0
C      1  0.4901650000000  0.4529250000000  0.5919220000000 1.0
C      1  0.5068260000000  0.4538640000000  0.4107950000000 1.0
C      1  0.5095240000000  0.5906280000000  0.5470280000000 1.0
C      1  0.5475080000000  0.5079270000000  0.5916750000000 1.0
C      1  0.5891720000000  0.5476130000000  0.5104320000000 1.0
C      1  0.4908790000000  0.5904360000000  0.4522640000000 1.0
C      1  0.5107130000000  0.4092820000000  0.4510750000000 1.0
C      1  0.4893120000000  0.4089450000000  0.5467270000000 1.0
C      1  0.4525330000000  0.5094250000000  0.4099700000000 1.0
C      1  0.5474210000000  0.4897850000000  0.4090940000000 1.0
C      1  0.4515090000000  0.4919580000000  0.5923690000000 1.0
C      1  0.4097930000000  0.5475100000000  0.4913760000000 1.0
C      1  0.5902450000000  0.4522080000000  0.4907660000000 1.0
C      1  0.4107540000000  0.4522960000000  0.5096540000000 1.0
C      1  0.5206520000000  0.6016080000000  0.5002910000000 1.0
C      1  0.6021940000000  0.5002010000000  0.5212590000000 1.0
C      1  0.5000350000000  0.5209040000000  0.6015180000000 1.0
C      1  0.4787020000000  0.6007430000000  0.4992950000000 1.0
C      1  0.4790680000000  0.3992790000000  0.4994050000000 1.0
C      1  0.5211780000000  0.3998920000000  0.4991000000000 1.0
C      1  0.4004530000000  0.5011610000000  0.4787110000000 1.0
C      1  0.3976390000000  0.4989430000000  0.5212730000000 1.0
C      1  0.6000340000000  0.4997070000000  0.4792090000000 1.0
C      1  0.4992150000000  0.5211240000000  0.3999290000000 1.0
C      1  0.4991720000000  0.4792170000000  0.6011930000000 1.0
C      1  0.5000150000000  0.4789920000000  0.3975510000000 1.0
C      1  0.5008310000000  0.6004010000000  0.5208580000000 1.0
C      1  0.5207140000000  0.5009840000000  0.6001800000000 1.0
C      1  0.5999730000000  0.5211330000000  0.5018630000000 1.0
C      1  0.4985560000000  0.6008220000000  0.4787860000000 1.0
C      1  0.5021640000000  0.4011650000000  0.4781900000000 1.0
C      1  0.4981600000000  0.3998330000000  0.5203600000000 1.0
C      1  0.4787990000000  0.5018130000000  0.3992660000000 1.0
C      1  0.5211950000000  0.4983230000000  0.3997040000000 1.0
C      1  0.4786020000000  0.4990710000000  0.5999920000000 1.0
C      1  0.3989690000000  0.5213160000000  0.4983740000000 1.0
C      1  0.6005030000000  0.4789790000000  0.4982830000000 1.0
C      1  0.4000820000000  0.4788680000000  0.5016290000000 1.0
C      1  0.5548000000000  0.4353920000000  0.4262010000000 1.0
C      1  0.4239970000000  0.5562500000000  0.4308000000000 1.0
C      1  0.4506230000000  0.4395280000000  0.5661410000000 1.0
C      1  0.5481930000000  0.5600340000000  0.5660140000000 1.0
C      1  0.4944280000000  0.4994690000000  0.5008480000000 1.0
END
