TITL C-2441157-2117-1238 0.0030372129501379 125000 -4081.10457462794 0 0 29 (C1) n - 1
REM
REM in /home/bkarasulu/work/CARBON/AIRSS/Generating-Clusters/ReaxFF-fromJPCA2015/Units_Real/with-SteepDescent/Higher-Symm
REM
REM
REM
REM
REM
REM ./C.cell (1df0a924f5614ab8850e4351716899ee)
REM
REM compiler GCC version 9.2.1 20190827 (Red Hat 9.2.1-1)
REM options -cpp -mtune=generic -march=x86-64 -g -O0 -fpre-include=/usr/include/finclude/math-vector-fortran.h
REM seed -440005088 -912747276 -502170492 -808943820 106637741 716422535 1999327724 561010343 508357780 -519547134 616237775 1214028145 2116898733 241682427 771389540 623170356 -1660298515 283004876 2063452341 -1089871599 -1554572504 -134981887 -1903530322 -68670657 -1058601043 1070310996 933916722 619170257 -232599881 -1024906257 1638228679 -1773555975 90247837
REM
CELL 1.54180   50.00000   50.00000   50.00000   90.00000   90.00000   90.00000
LATT -1
SFAC C  
C      1  0.5037750000000  0.5162920000000  0.4665870000000 1.0
C      1  0.4954450000000  0.4886310000000  0.5345720000000 1.0
C      1  0.4478760000000  0.4910880000000  0.4887500000000 1.0
C      1  0.5540290000000  0.5058760000000  0.5115070000000 1.0
C      1  0.4939920000000  0.5202970000000  0.4942360000000 1.0
C      1  0.5055140000000  0.4713710000000  0.4865150000000 1.0
C      1  0.4558350000000  0.5063920000000  0.4640130000000 1.0
C      1  0.5452520000000  0.4895700000000  0.5361440000000 1.0
C      1  0.5329430000000  0.5097440000000  0.4660230000000 1.0
C      1  0.4659450000000  0.4920230000000  0.5361810000000 1.0
C      1  0.4832880000000  0.4997750000000  0.4542220000000 1.0
C      1  0.5194990000000  0.4988080000000  0.5465250000000 1.0
C      1  0.5461970000000  0.4926840000000  0.4862990000000 1.0
C      1  0.4541440000000  0.5064970000000  0.5133970000000 1.0
C      1  0.4681130000000  0.5314200000000  0.5044160000000 1.0
C      1  0.5342030000000  0.4655620000000  0.4917510000000 1.0
C      1  0.5214110000000  0.5524090000000  0.5442960000000 1.0
C      1  0.4688770000000  0.4528360000000  0.4637780000000 1.0
C      1  0.5427700000000  0.5487330000000  0.4891930000000 1.0
C      1  0.4553400000000  0.4480850000000  0.5144300000000 1.0
C      1  0.4532350000000  0.4620210000000  0.4878610000000 1.0
C      1  0.5449030000000  0.5333170000000  0.5140970000000 1.0
C      1  0.5232870000000  0.5285670000000  0.5372210000000 1.0
C      1  0.4916020000000  0.4721570000000  0.4603130000000 1.0
C      1  0.4528800000000  0.4651000000000  0.5389050000000 1.0
C      1  0.5475620000000  0.5355760000000  0.4622480000000 1.0
C      1  0.4559110000000  0.5304730000000  0.4790650000000 1.0
C      1  0.5408340000000  0.4677210000000  0.5190970000000 1.0
C      1  0.4982600000000  0.4929810000000  0.5051040000000 1.0
END
