TITL C-2441161-5029-1190 0.0600975574298295 125000 -23608.7889291993 0 0 167 (C1) n - 1
REM
REM in /home/bkarasulu/work/CARBON/AIRSS/Generating-Clusters/ReaxFF-fromJPCA2015/Units_Real/with-SteepDescent/Higher-Symm
REM
REM
REM
REM
REM
REM ./C.cell (1df0a924f5614ab8850e4351716899ee)
REM
REM compiler GCC version 9.2.1 20190827 (Red Hat 9.2.1-1)
REM options -cpp -mtune=generic -march=x86-64 -g -O0 -fpre-include=/usr/include/finclude/math-vector-fortran.h
REM seed 743933337 1236511696 169509011 346519461 1176866 504642092 838878774 398440 708399025 1700621116 2007505779 -1456518383 -1069601115 1570573123 2069375358 -334665345 243347929 -1254162426 -471020507 -979142963 -723855561 800749655 64678746 -1014320058 334243603 70730025 1071654462 -2115631115 -809794204 1103967080 -896669514 -1432786297 1374642998
REM
CELL 1.54180   50.00000   50.00000   50.00000   90.00000   90.00000   90.00000
LATT -1
SFAC C  
C      1  0.5331200000000  0.5654200000000  0.5753450000000 1.0
C      1  0.4419490000000  0.4249870000000  0.4556480000000 1.0
C      1  0.4543370000000  0.4708700000000  0.5750450000000 1.0
C      1  0.5691140000000  0.4958630000000  0.5748730000000 1.0
C      1  0.4406920000000  0.5568710000000  0.5591150000000 1.0
C      1  0.4856880000000  0.5458330000000  0.4866350000000 1.0
C      1  0.4655810000000  0.4666720000000  0.5228260000000 1.0
C      1  0.5018730000000  0.4820960000000  0.3988520000000 1.0
C      1  0.5575630000000  0.4942710000000  0.5226190000000 1.0
C      1  0.5261140000000  0.4014980000000  0.4908530000000 1.0
C      1  0.4867970000000  0.4083300000000  0.4492040000000 1.0
C      1  0.5542820000000  0.5079570000000  0.4968040000000 1.0
C      1  0.5317340000000  0.5335900000000  0.5346720000000 1.0
C      1  0.5372580000000  0.4550140000000  0.4225680000000 1.0
C      1  0.4957270000000  0.5734540000000  0.5273390000000 1.0
C      1  0.4026330000000  0.5327780000000  0.5101240000000 1.0
C      1  0.4631280000000  0.4189750000000  0.4359410000000 1.0
C      1  0.4155230000000  0.4970340000000  0.4467700000000 1.0
C      1  0.4731630000000  0.5165380000000  0.5570030000000 1.0
C      1  0.5527090000000  0.5195580000000  0.5801100000000 1.0
C      1  0.4204940000000  0.5672510000000  0.4851820000000 1.0
C      1  0.4648940000000  0.5683480000000  0.5705760000000 1.0
C      1  0.4688070000000  0.4851380000000  0.5554030000000 1.0
C      1  0.4429160000000  0.4116220000000  0.4817350000000 1.0
C      1  0.5430140000000  0.4757410000000  0.5395280000000 1.0
C      1  0.5941700000000  0.4653840000000  0.5440960000000 1.0
C      1  0.5620970000000  0.5523630000000  0.4261800000000 1.0
C      1  0.4532110000000  0.5681730000000  0.4396610000000 1.0
C      1  0.4968150000000  0.4705260000000  0.5172490000000 1.0
C      1  0.5475940000000  0.5347060000000  0.4086700000000 1.0
C      1  0.4042830000000  0.4463890000000  0.4787360000000 1.0
C      1  0.4852630000000  0.6014770000000  0.4861060000000 1.0
C      1  0.5249950000000  0.5831980000000  0.4516780000000 1.0
C      1  0.5014860000000  0.6004780000000  0.5096240000000 1.0
C      1  0.5525290000000  0.4751830000000  0.5658770000000 1.0
C      1  0.5974610000000  0.5168130000000  0.4568140000000 1.0
C      1  0.4161510000000  0.4870470000000  0.5628210000000 1.0
C      1  0.4662000000000  0.4396880000000  0.4155920000000 1.0
C      1  0.4633030000000  0.4613810000000  0.4347160000000 1.0
C      1  0.5304770000000  0.4588970000000  0.4984960000000 1.0
C      1  0.4169070000000  0.4888140000000  0.5347230000000 1.0
C      1  0.5818900000000  0.5263720000000  0.5473660000000 1.0
C      1  0.5248910000000  0.5360950000000  0.4427040000000 1.0
C      1  0.5263340000000  0.5652120000000  0.5292630000000 1.0
C      1  0.4229380000000  0.4702900000000  0.4368160000000 1.0
C      1  0.5361420000000  0.4537480000000  0.4526600000000 1.0
C      1  0.5244460000000  0.5111420000000  0.5795220000000 1.0
C      1  0.5443100000000  0.4092420000000  0.5122030000000 1.0
C      1  0.5300690000000  0.4098370000000  0.4625610000000 1.0
C      1  0.5364560000000  0.5718970000000  0.5009260000000 1.0
C      1  0.5094860000000  0.4435390000000  0.5137910000000 1.0
C      1  0.4290190000000  0.5176340000000  0.4327820000000 1.0
C      1  0.5476300000000  0.5177250000000  0.4467950000000 1.0
C      1  0.5065650000000  0.5516180000000  0.5806780000000 1.0
C      1  0.5731940000000  0.4314970000000  0.4726910000000 1.0
C      1  0.5282150000000  0.5226560000000  0.5072950000000 1.0
C      1  0.5574910000000  0.5194890000000  0.5372890000000 1.0
C      1  0.5515520000000  0.4334730000000  0.5592700000000 1.0
C      1  0.4556780000000  0.5528210000000  0.4160450000000 1.0
C      1  0.4619960000000  0.4759430000000  0.3963180000000 1.0
C      1  0.4636260000000  0.5088640000000  0.5101490000000 1.0
C      1  0.5253440000000  0.4638110000000  0.5995780000000 1.0
C      1  0.5684390000000  0.4811160000000  0.4317530000000 1.0
C      1  0.4498620000000  0.4628310000000  0.4984840000000 1.0
C      1  0.5015060000000  0.5260750000000  0.5688040000000 1.0
C      1  0.4146110000000  0.4607810000000  0.5308330000000 1.0
C      1  0.5234480000000  0.5439560000000  0.4695590000000 1.0
C      1  0.4957030000000  0.4593340000000  0.4333130000000 1.0
C      1  0.4899580000000  0.5317700000000  0.4085580000000 1.0
C      1  0.5996400000000  0.5035030000000  0.4847920000000 1.0
C      1  0.4744420000000  0.5185680000000  0.4471890000000 1.0
C      1  0.5136270000000  0.4852840000000  0.5372950000000 1.0
C      1  0.5084920000000  0.4281530000000  0.5457830000000 1.0
C      1  0.4167120000000  0.5098150000000  0.5161070000000 1.0
C      1  0.5178420000000  0.4932050000000  0.6015790000000 1.0
C      1  0.4470330000000  0.4815440000000  0.4209010000000 1.0
C      1  0.5795940000000  0.4609270000000  0.4738920000000 1.0
C      1  0.4838220000000  0.4569220000000  0.3964530000000 1.0
C      1  0.4816830000000  0.5247860000000  0.5268520000000 1.0
C      1  0.4663000000000  0.5280630000000  0.4735690000000 1.0
C      1  0.5562990000000  0.5480190000000  0.5750750000000 1.0
C      1  0.3936580000000  0.4759930000000  0.4847360000000 1.0
C      1  0.4846620000000  0.5930540000000  0.4566410000000 1.0
C      1  0.4535860000000  0.4807870000000  0.6002340000000 1.0
C      1  0.4805600000000  0.4750100000000  0.6093830000000 1.0
C      1  0.5589120000000  0.4622430000000  0.4958480000000 1.0
C      1  0.5074190000000  0.5110220000000  0.3966920000000 1.0
C      1  0.4758830000000  0.5824510000000  0.5479100000000 1.0
C      1  0.5080120000000  0.4565470000000  0.4559660000000 1.0
C      1  0.5799070000000  0.5537160000000  0.5571200000000 1.0
C      1  0.5691950000000  0.4183380000000  0.4990030000000 1.0
C      1  0.4228260000000  0.4475300000000  0.4549940000000 1.0
C      1  0.4901640000000  0.4336930000000  0.4928630000000 1.0
C      1  0.5080360000000  0.4764250000000  0.4915510000000 1.0
C      1  0.3958860000000  0.5277270000000  0.4827410000000 1.0
C      1  0.4278980000000  0.5104670000000  0.5760890000000 1.0
C      1  0.5994630000000  0.4752630000000  0.4908920000000 1.0
C      1  0.5359760000000  0.5092280000000  0.4035340000000 1.0
C      1  0.5486390000000  0.5972540000000  0.4925560000000 1.0
C      1  0.3981530000000  0.4588400000000  0.5068170000000 1.0
C      1  0.5477420000000  0.4816910000000  0.4150320000000 1.0
C      1  0.5522270000000  0.5767300000000  0.4420470000000 1.0
C      1  0.4450640000000  0.5278380000000  0.5602110000000 1.0
C      1  0.4791450000000  0.5524300000000  0.5918010000000 1.0
C      1  0.4174740000000  0.5575510000000  0.5118110000000 1.0
C      1  0.5884030000000  0.4893030000000  0.4478660000000 1.0
C      1  0.4989430000000  0.3930510000000  0.4993330000000 1.0
C      1  0.3986560000000  0.5010990000000  0.4713890000000 1.0
C      1  0.4320660000000  0.4367510000000  0.4953260000000 1.0
C      1  0.4852450000000  0.4092560000000  0.4791360000000 1.0
C      1  0.5242600000000  0.6104730000000  0.4974590000000 1.0
C      1  0.4176880000000  0.4574020000000  0.5603740000000 1.0
C      1  0.4336820000000  0.5684910000000  0.5331390000000 1.0
C      1  0.5129780000000  0.4383370000000  0.4194050000000 1.0
C      1  0.4605290000000  0.5925220000000  0.4992470000000 1.0
C      1  0.5101850000000  0.5280930000000  0.4861060000000 1.0
C      1  0.5492350000000  0.4290170000000  0.4599910000000 1.0
C      1  0.5176680000000  0.5698000000000  0.4782570000000 1.0
C      1  0.4562410000000  0.5900840000000  0.4549640000000 1.0
C      1  0.6025330000000  0.4790640000000  0.5202510000000 1.0
C      1  0.4596020000000  0.4253950000000  0.5582470000000 1.0
C      1  0.5375670000000  0.5816110000000  0.5514990000000 1.0
C      1  0.4469740000000  0.5094960000000  0.5986690000000 1.0
C      1  0.5751000000000  0.5627150000000  0.4738500000000 1.0
C      1  0.5451890000000  0.4533290000000  0.5804360000000 1.0
C      1  0.4612450000000  0.5239100000000  0.4211280000000 1.0
C      1  0.5945020000000  0.5469250000000  0.5065510000000 1.0
C      1  0.4384340000000  0.5163920000000  0.5008290000000 1.0
C      1  0.5727850000000  0.4428860000000  0.5132360000000 1.0
C      1  0.5044270000000  0.4848840000000  0.4269510000000 1.0
C      1  0.4165550000000  0.5419820000000  0.4405480000000 1.0
C      1  0.4789030000000  0.3983210000000  0.5210650000000 1.0
C      1  0.4961950000000  0.4761860000000  0.5583710000000 1.0
C      1  0.4527620000000  0.4030240000000  0.5082920000000 1.0
C      1  0.4895960000000  0.4583560000000  0.4758270000000 1.0
C      1  0.5126410000000  0.4159940000000  0.4393630000000 1.0
C      1  0.5815500000000  0.5649790000000  0.5298020000000 1.0
C      1  0.4427270000000  0.4460860000000  0.5715940000000 1.0
C      1  0.5440440000000  0.5014590000000  0.4704410000000 1.0
C      1  0.5737970000000  0.5284660000000  0.4400630000000 1.0
C      1  0.5637200000000  0.5872340000000  0.4670920000000 1.0
C      1  0.5362130000000  0.4181520000000  0.5401000000000 1.0
C      1  0.5718880000000  0.4459910000000  0.5420540000000 1.0
C      1  0.5937700000000  0.4896810000000  0.5599030000000 1.0
C      1  0.5945050000000  0.5445580000000  0.4776310000000 1.0
C      1  0.5005850000000  0.4497180000000  0.5681560000000 1.0
C      1  0.4365610000000  0.4233260000000  0.5202770000000 1.0
C      1  0.4719580000000  0.5010530000000  0.4842370000000 1.0
C      1  0.4908320000000  0.5023660000000  0.6091600000000 1.0
C      1  0.4983550000000  0.4538200000000  0.5969990000000 1.0
C      1  0.4559020000000  0.5860930000000  0.5274160000000 1.0
C      1  0.4556960000000  0.4401660000000  0.5334010000000 1.0
C      1  0.4985070000000  0.5040230000000  0.4468980000000 1.0
C      1  0.5104770000000  0.5140460000000  0.5285970000000 1.0
C      1  0.4415490000000  0.5862620000000  0.4794070000000 1.0
C      1  0.5137670000000  0.5004340000000  0.4725870000000 1.0
C      1  0.4312930000000  0.5613010000000  0.4273200000000 1.0
C      1  0.4627710000000  0.4745150000000  0.4764420000000 1.0
C      1  0.5049990000000  0.5500980000000  0.4256580000000 1.0
C      1  0.4825530000000  0.5511700000000  0.5144420000000 1.0
C      1  0.5637680000000  0.5877060000000  0.5370700000000 1.0
C      1  0.5007320000000  0.5778720000000  0.4370460000000 1.0
C      1  0.5914540000000  0.5180460000000  0.5085460000000 1.0
C      1  0.4070740000000  0.5488560000000  0.4674030000000 1.0
C      1  0.6041120000000  0.5061800000000  0.5351690000000 1.0
C      1  0.4830100000000  0.4119040000000  0.5465470000000 1.0
C      1  0.4722200000000  0.5246750000000  0.6016640000000 1.0
END
