TITL C-2441167-4473-53 0.0282108794046187 125000 -20744.3437152141 0 0 143 (C1) n - 1
REM
REM in /home/bkarasulu/work/CARBON/AIRSS/Generating-Clusters/ReaxFF-fromJPCA2015/Units_Real/with-SteepDescent/Higher-Symm
REM
REM
REM
REM
REM
REM ./C.cell (1df0a924f5614ab8850e4351716899ee)
REM
REM compiler GCC version 9.2.1 20190827 (Red Hat 9.2.1-1)
REM options -cpp -mtune=generic -march=x86-64 -g -O0 -fpre-include=/usr/include/finclude/math-vector-fortran.h
REM seed -1641825225 1099724579 -1244108933 -823986845 318162582 -1108555296 776236069 251002617 1431270213 1957207213 -1225702892 850035495 -1910350472 -1343421536 4399294 720177097 -1894066102 -247071006 632664052 -640352911 339395830 562615985 59575116 1574428573 -1078686356 977512499 110935154 -1222590085 1745496427 -1769245938 -178732288 -1321393037 -1345574746
REM
CELL 1.54180   50.00000   50.00000   50.00000   90.00000   90.00000   90.00000
LATT -1
SFAC C  
C      1  0.5304650000000  0.5339550000000  0.5312130000000 1.0
C      1  0.5430440000000  0.5089710000000  0.5305290000000 1.0
C      1  0.5455160000000  0.4843690000000  0.5438820000000 1.0
C      1  0.5289860000000  0.4646540000000  0.5321520000000 1.0
C      1  0.5077700000000  0.4502710000000  0.5439660000000 1.0
C      1  0.4831740000000  0.4610710000000  0.5348050000000 1.0
C      1  0.4692130000000  0.4798110000000  0.5501870000000 1.0
C      1  0.4508500000000  0.4979370000000  0.5366610000000 1.0
C      1  0.4588120000000  0.5277540000000  0.5364180000000 1.0
C      1  0.4854620000000  0.5389920000000  0.5335700000000 1.0
C      1  0.5095010000000  0.5468770000000  0.5457600000000 1.0
C      1  0.4088940000000  0.5200370000000  0.4556580000000 1.0
C      1  0.4378620000000  0.5593040000000  0.4535830000000 1.0
C      1  0.4822140000000  0.5855550000000  0.4523680000000 1.0
C      1  0.5339920000000  0.5889710000000  0.4556210000000 1.0
C      1  0.5660980000000  0.5507420000000  0.4510120000000 1.0
C      1  0.5888430000000  0.5050720000000  0.4532020000000 1.0
C      1  0.5759770000000  0.4575660000000  0.4505120000000 1.0
C      1  0.5429940000000  0.4192010000000  0.4547530000000 1.0
C      1  0.4941400000000  0.4130640000000  0.4518730000000 1.0
C      1  0.4480830000000  0.4294340000000  0.4530990000000 1.0
C      1  0.4197880000000  0.4699860000000  0.4509820000000 1.0
C      1  0.5928830000000  0.4794210000000  0.5268530000000 1.0
C      1  0.5673470000000  0.4310300000000  0.5297900000000 1.0
C      1  0.5206470000000  0.4049660000000  0.5277710000000 1.0
C      1  0.4648130000000  0.4082220000000  0.5290220000000 1.0
C      1  0.4215980000000  0.4430130000000  0.5281960000000 1.0
C      1  0.4021480000000  0.4935670000000  0.5260800000000 1.0
C      1  0.4151480000000  0.5486380000000  0.5236370000000 1.0
C      1  0.4551880000000  0.5869800000000  0.5292350000000 1.0
C      1  0.5076080000000  0.5954730000000  0.5273040000000 1.0
C      1  0.5583910000000  0.5756450000000  0.5289670000000 1.0
C      1  0.5902620000000  0.5321260000000  0.5286740000000 1.0
C      1  0.4339240000000  0.5483640000000  0.4976130000000 1.0
C      1  0.4725300000000  0.5752200000000  0.4929180000000 1.0
C      1  0.5173500000000  0.5781060000000  0.4913440000000 1.0
C      1  0.5574190000000  0.5563510000000  0.4924360000000 1.0
C      1  0.5766560000000  0.5169740000000  0.4924850000000 1.0
C      1  0.5759800000000  0.4691060000000  0.4912350000000 1.0
C      1  0.5486660000000  0.4342880000000  0.4927740000000 1.0
C      1  0.5057650000000  0.4177090000000  0.4923240000000 1.0
C      1  0.4618250000000  0.4284080000000  0.4941210000000 1.0
C      1  0.4294210000000  0.4603060000000  0.4916260000000 1.0
C      1  0.4226910000000  0.5045230000000  0.4922750000000 1.0
C      1  0.5557650000000  0.5468300000000  0.4235160000000 1.0
C      1  0.5834680000000  0.5070720000000  0.4252770000000 1.0
C      1  0.5654730000000  0.4664960000000  0.4243950000000 1.0
C      1  0.5331830000000  0.4442600000000  0.4354580000000 1.0
C      1  0.4986260000000  0.4256950000000  0.4255860000000 1.0
C      1  0.4561100000000  0.4341370000000  0.4256960000000 1.0
C      1  0.4326410000000  0.4727730000000  0.4247840000000 1.0
C      1  0.4273250000000  0.5127220000000  0.4316680000000 1.0
C      1  0.4427190000000  0.5501250000000  0.4248380000000 1.0
C      1  0.4824510000000  0.5737430000000  0.4240080000000 1.0
C      1  0.5220230000000  0.5689450000000  0.4330460000000 1.0
C      1  0.5335010000000  0.5366130000000  0.5015390000000 1.0
C      1  0.5477430000000  0.5099060000000  0.5014450000000 1.0
C      1  0.5459750000000  0.4801560000000  0.4910830000000 1.0
C      1  0.5302070000000  0.4596310000000  0.5038120000000 1.0
C      1  0.5034540000000  0.4502900000000  0.4931520000000 1.0
C      1  0.4778650000000  0.4548500000000  0.5072080000000 1.0
C      1  0.4589080000000  0.4723300000000  0.4938980000000 1.0
C      1  0.4514670000000  0.4992380000000  0.5055330000000 1.0
C      1  0.4580020000000  0.5284860000000  0.5058300000000 1.0
C      1  0.4815230000000  0.5452920000000  0.5055070000000 1.0
C      1  0.5071460000000  0.5471020000000  0.4920800000000 1.0
C      1  0.5339280000000  0.4290050000000  0.5709510000000 1.0
C      1  0.4865760000000  0.4232820000000  0.5720670000000 1.0
C      1  0.4481410000000  0.4408180000000  0.5679710000000 1.0
C      1  0.4240530000000  0.4762440000000  0.5710580000000 1.0
C      1  0.4247580000000  0.5229750000000  0.5687150000000 1.0
C      1  0.4494610000000  0.5611470000000  0.5708630000000 1.0
C      1  0.4875500000000  0.5772390000000  0.5713180000000 1.0
C      1  0.5325430000000  0.5696110000000  0.5712570000000 1.0
C      1  0.5648480000000  0.5417510000000  0.5691730000000 1.0
C      1  0.5762120000000  0.5010430000000  0.5698160000000 1.0
C      1  0.5645340000000  0.4566070000000  0.5723240000000 1.0
C      1  0.4202630000000  0.5438080000000  0.4684360000000 1.0
C      1  0.4590610000000  0.5770970000000  0.4667650000000 1.0
C      1  0.5077880000000  0.5921460000000  0.4669260000000 1.0
C      1  0.5552150000000  0.5722820000000  0.4673840000000 1.0
C      1  0.5809140000000  0.5290760000000  0.4660370000000 1.0
C      1  0.5884330000000  0.4781430000000  0.4659900000000 1.0
C      1  0.5631980000000  0.4348360000000  0.4670200000000 1.0
C      1  0.5185780000000  0.4086990000000  0.4670510000000 1.0
C      1  0.4688490000000  0.4171180000000  0.4677610000000 1.0
C      1  0.4273850000000  0.4465380000000  0.4656870000000 1.0
C      1  0.4114100000000  0.4936710000000  0.4668420000000 1.0
C      1  0.4720130000000  0.4677970000000  0.4670070000000 1.0
C      1  0.4630840000000  0.4906680000000  0.4571630000000 1.0
C      1  0.4571410000000  0.5132130000000  0.4502220000000 1.0
C      1  0.4757930000000  0.5299450000000  0.4589810000000 1.0
C      1  0.4959900000000  0.5454700000000  0.4666810000000 1.0
C      1  0.5147580000000  0.5442730000000  0.4477600000000 1.0
C      1  0.5276110000000  0.5231670000000  0.4502720000000 1.0
C      1  0.5384920000000  0.5028280000000  0.4535150000000 1.0
C      1  0.5392110000000  0.4800480000000  0.4639640000000 1.0
C      1  0.5196060000000  0.4672630000000  0.4509170000000 1.0
C      1  0.4985720000000  0.4600540000000  0.4679560000000 1.0
C      1  0.4803000000000  0.5933820000000  0.5143010000000 1.0
C      1  0.5320620000000  0.5875070000000  0.5150200000000 1.0
C      1  0.5754900000000  0.5563800000000  0.5154830000000 1.0
C      1  0.5938640000000  0.5068810000000  0.5141320000000 1.0
C      1  0.5833990000000  0.4548900000000  0.5157240000000 1.0
C      1  0.5467910000000  0.4159650000000  0.5155400000000 1.0
C      1  0.4945810000000  0.4046820000000  0.5158730000000 1.0
C      1  0.4433940000000  0.4226740000000  0.5156400000000 1.0
C      1  0.4112040000000  0.4659010000000  0.5139940000000 1.0
C      1  0.4071040000000  0.5184970000000  0.5127380000000 1.0
C      1  0.4327030000000  0.5718000000000  0.5159950000000 1.0
C      1  0.4921630000000  0.4480920000000  0.5848940000000 1.0
C      1  0.4671490000000  0.4662870000000  0.5766210000000 1.0
C      1  0.4469970000000  0.4875270000000  0.5851600000000 1.0
C      1  0.4478860000000  0.5170540000000  0.5851050000000 1.0
C      1  0.4657630000000  0.5413770000000  0.5852750000000 1.0
C      1  0.4927730000000  0.5520270000000  0.5853070000000 1.0
C      1  0.5220360000000  0.5467480000000  0.5862330000000 1.0
C      1  0.5435420000000  0.5272120000000  0.5835820000000 1.0
C      1  0.5516780000000  0.4990660000000  0.5848310000000 1.0
C      1  0.5433120000000  0.4706630000000  0.5860740000000 1.0
C      1  0.5211280000000  0.4513180000000  0.5852010000000 1.0
C      1  0.5050380000000  0.5657840000000  0.4092570000000 1.0
C      1  0.5340050000000  0.5610000000000  0.4099900000000 1.0
C      1  0.5654250000000  0.5224630000000  0.4118540000000 1.0
C      1  0.5632750000000  0.4922210000000  0.4121910000000 1.0
C      1  0.5433020000000  0.4559750000000  0.4104910000000 1.0
C      1  0.5209750000000  0.4364510000000  0.4111260000000 1.0
C      1  0.4802660000000  0.4415880000000  0.4135620000000 1.0
C      1  0.4513570000000  0.4571070000000  0.4117720000000 1.0
C      1  0.4373330000000  0.4959570000000  0.4102390000000 1.0
C      1  0.4371570000000  0.5264150000000  0.4099280000000 1.0
C      1  0.4660910000000  0.5546020000000  0.4146070000000 1.0
C      1  0.5600070000000  0.4318920000000  0.5582850000000 1.0
C      1  0.5123070000000  0.4220960000000  0.5534310000000 1.0
C      1  0.4622510000000  0.4179270000000  0.5570000000000 1.0
C      1  0.4235140000000  0.4498940000000  0.5570590000000 1.0
C      1  0.4185890000000  0.4987490000000  0.5518010000000 1.0
C      1  0.4325750000000  0.5448350000000  0.5510710000000 1.0
C      1  0.4623620000000  0.5832430000000  0.5580250000000 1.0
C      1  0.5104680000000  0.5781180000000  0.5541020000000 1.0
C      1  0.5578160000000  0.5675470000000  0.5572350000000 1.0
C      1  0.5852570000000  0.5254950000000  0.5570650000000 1.0
C      1  0.5738230000000  0.4781240000000  0.5534910000000 1.0
END
