TITL C-2441165-58-1060 0.0473392403877586 125000 -9204.91001369079 0 0 75 (C1) n - 1
REM
REM in /home/bkarasulu/work/CARBON/AIRSS/Generating-Clusters/ReaxFF-fromJPCA2015/Units_Real/with-SteepDescent/Higher-Symm
REM
REM
REM
REM
REM
REM ./C.cell (1df0a924f5614ab8850e4351716899ee)
REM
REM compiler GCC version 9.2.1 20190827 (Red Hat 9.2.1-1)
REM options -cpp -mtune=generic -march=x86-64 -g -O0 -fpre-include=/usr/include/finclude/math-vector-fortran.h
REM seed -1072980066 -428099599 -390467678 -982855298 -1801337472 -633772118 -667675235 -1287057640 834167517 1263657241 -754747624 305277567 -1649632582 -81529529 -1918263642 1120920335 1528802603 -2089737159 -673013837 -1391336031 -137631688 -1536266778 -737351514 -895791307 -893859624 972026880 497516363 -1954773856 -2008032118 -1467410045 -1997362166 -1699207290 -1710555964
REM
CELL 1.54180   50.00000   50.00000   50.00000   90.00000   90.00000   90.00000
LATT -1
SFAC C  
C      1  0.4662930000000  0.5282730000000  0.4856500000000 1.0
C      1  0.4663950000000  0.5278060000000  0.5141860000000 1.0
C      1  0.4402710000000  0.5614420000000  0.4856210000000 1.0
C      1  0.4403950000000  0.5615320000000  0.5152720000000 1.0
C      1  0.5170360000000  0.5697470000000  0.4576720000000 1.0
C      1  0.5139280000000  0.5706400000000  0.5458570000000 1.0
C      1  0.5242150000000  0.5697400000000  0.4873770000000 1.0
C      1  0.5245630000000  0.5695360000000  0.5172780000000 1.0
C      1  0.4923770000000  0.5564970000000  0.4472530000000 1.0
C      1  0.4890170000000  0.5556710000000  0.5543750000000 1.0
C      1  0.4411790000000  0.4597450000000  0.4859860000000 1.0
C      1  0.4400080000000  0.4592680000000  0.5151400000000 1.0
C      1  0.4343400000000  0.4869830000000  0.4560840000000 1.0
C      1  0.4349050000000  0.4871650000000  0.5447610000000 1.0
C      1  0.5237190000000  0.4767220000000  0.5716030000000 1.0
C      1  0.5238650000000  0.4765190000000  0.4286850000000 1.0
C      1  0.4758190000000  0.4854240000000  0.4651020000000 1.0
C      1  0.4759560000000  0.4861030000000  0.5351400000000 1.0
C      1  0.4676340000000  0.4456910000000  0.4840500000000 1.0
C      1  0.4661290000000  0.4449040000000  0.5155780000000 1.0
C      1  0.5339850000000  0.5512550000000  0.4438770000000 1.0
C      1  0.5347210000000  0.5532210000000  0.5544350000000 1.0
C      1  0.5504600000000  0.4430520000000  0.5158250000000 1.0
C      1  0.5494280000000  0.4413510000000  0.4861270000000 1.0
C      1  0.4370190000000  0.5171450000000  0.5498650000000 1.0
C      1  0.4365490000000  0.5165520000000  0.4517960000000 1.0
C      1  0.5184630000000  0.4330840000000  0.5498860000000 1.0
C      1  0.5191050000000  0.4315480000000  0.4494370000000 1.0
C      1  0.5340090000000  0.4522940000000  0.5623350000000 1.0
C      1  0.5348120000000  0.4519880000000  0.4376880000000 1.0
C      1  0.5273960000000  0.5044710000000  0.4364570000000 1.0
C      1  0.5277340000000  0.5051130000000  0.5661510000000 1.0
C      1  0.5073420000000  0.5157710000000  0.4540170000000 1.0
C      1  0.5079540000000  0.5151230000000  0.5480480000000 1.0
C      1  0.5363480000000  0.4836020000000  0.4749210000000 1.0
C      1  0.5369840000000  0.4832180000000  0.5276960000000 1.0
C      1  0.5083660000000  0.4820120000000  0.5185380000000 1.0
C      1  0.5082050000000  0.4811560000000  0.4851630000000 1.0
C      1  0.4398310000000  0.5335950000000  0.5252480000000 1.0
C      1  0.4393240000000  0.5335000000000  0.4754550000000 1.0
C      1  0.4676770000000  0.5729410000000  0.4855680000000 1.0
C      1  0.4679810000000  0.5726900000000  0.5149160000000 1.0
C      1  0.4828040000000  0.5496900000000  0.5263250000000 1.0
C      1  0.4831030000000  0.5502340000000  0.4744270000000 1.0
C      1  0.5591690000000  0.4663170000000  0.5310190000000 1.0
C      1  0.5574720000000  0.4648250000000  0.4703800000000 1.0
C      1  0.4930290000000  0.5316250000000  0.4311220000000 1.0
C      1  0.4947850000000  0.5311200000000  0.5699110000000 1.0
C      1  0.5437740000000  0.5484120000000  0.5146240000000 1.0
C      1  0.5419540000000  0.5478120000000  0.4872410000000 1.0
C      1  0.4670560000000  0.5220940000000  0.4245700000000 1.0
C      1  0.4672650000000  0.5261130000000  0.5740750000000 1.0
C      1  0.5565690000000  0.5287180000000  0.5302070000000 1.0
C      1  0.5550490000000  0.5283660000000  0.4710100000000 1.0
C      1  0.5775150000000  0.4512420000000  0.4861800000000 1.0
C      1  0.5780360000000  0.4516990000000  0.5147960000000 1.0
C      1  0.5056630000000  0.4240370000000  0.4747600000000 1.0
C      1  0.5055340000000  0.4243060000000  0.5242670000000 1.0
C      1  0.4586690000000  0.4716720000000  0.5557970000000 1.0
C      1  0.4579750000000  0.4714810000000  0.4447810000000 1.0
C      1  0.4491640000000  0.4867410000000  0.5190740000000 1.0
C      1  0.4494250000000  0.4874210000000  0.4810140000000 1.0
C      1  0.4773120000000  0.4238980000000  0.5297200000000 1.0
C      1  0.4746520000000  0.4219570000000  0.4691510000000 1.0
C      1  0.5086100000000  0.4569840000000  0.4428030000000 1.0
C      1  0.5093590000000  0.4601990000000  0.5524780000000 1.0
C      1  0.5034850000000  0.5096050000000  0.4840960000000 1.0
C      1  0.5104580000000  0.5118350000000  0.5151140000000 1.0
C      1  0.4649410000000  0.5112900000000  0.4498310000000 1.0
C      1  0.4659630000000  0.5112690000000  0.5509650000000 1.0
C      1  0.5518560000000  0.5048240000000  0.4861710000000 1.0
C      1  0.5445530000000  0.5074730000000  0.5144080000000 1.0
C      1  0.5478900000000  0.5264500000000  0.4419630000000 1.0
C      1  0.5476410000000  0.5279320000000  0.5582110000000 1.0
C      1  0.5153190000000  0.4350610000000  0.4987550000000 1.0
END
