TITL C-2441158-471-1002 0.00243846990660034 125000 -12298.5467641085 0 0 83 (C1) n - 1
REM
REM in /home/bkarasulu/work/CARBON/AIRSS/Generating-Clusters/ReaxFF-fromJPCA2015/Units_Real/with-SteepDescent/Higher-Symm
REM
REM
REM
REM
REM
REM ./C.cell (1df0a924f5614ab8850e4351716899ee)
REM
REM compiler GCC version 9.2.1 20190827 (Red Hat 9.2.1-1)
REM options -cpp -mtune=generic -march=x86-64 -g -O0 -fpre-include=/usr/include/finclude/math-vector-fortran.h
REM seed -1147519743 -1854036307 -1432893991 -780774913 -1942405196 -1030438368 343927028 1112951851 -1449501639 -208756683 -456490838 -3587236 -1696534865 1773366824 1136595159 1949994521 -2079243446 1782539410 1394127324 -940880408 142986755 1967390296 -1202357349 -65140626 -1678602481 1753284536 758300567 -1028077450 -1462416812 -107481700 -1068412737 -1959892427 -176391312
REM
CELL 1.54180   50.00000   50.00000   50.00000   90.00000   90.00000   90.00000
LATT -1
SFAC C  
C      1  0.5241910000000  0.5008220000000  0.4137240000000 1.0
C      1  0.5246360000000  0.4194430000000  0.5390070000000 1.0
C      1  0.5297650000000  0.5640930000000  0.5492640000000 1.0
C      1  0.5099970000000  0.4557440000000  0.4248000000000 1.0
C      1  0.5035440000000  0.4634220000000  0.5779230000000 1.0
C      1  0.5068000000000  0.5864890000000  0.4988130000000 1.0
C      1  0.4368050000000  0.4803880000000  0.4596170000000 1.0
C      1  0.4370610000000  0.4740380000000  0.5408880000000 1.0
C      1  0.4410660000000  0.5468140000000  0.5043400000000 1.0
C      1  0.4520490000000  0.4993800000000  0.4426530000000 1.0
C      1  0.4500480000000  0.4489400000000  0.5312240000000 1.0
C      1  0.4535360000000  0.5500490000000  0.5311980000000 1.0
C      1  0.5568810000000  0.5055690000000  0.5723900000000 1.0
C      1  0.5482750000000  0.5589960000000  0.4525330000000 1.0
C      1  0.5560660000000  0.4416900000000  0.4702980000000 1.0
C      1  0.5514720000000  0.5627600000000  0.4816710000000 1.0
C      1  0.5620330000000  0.4682560000000  0.4599180000000 1.0
C      1  0.5550560000000  0.4780290000000  0.5635730000000 1.0
C      1  0.5473040000000  0.5338970000000  0.4858350000000 1.0
C      1  0.5496420000000  0.4847640000000  0.4816420000000 1.0
C      1  0.5499450000000  0.4861440000000  0.5331730000000 1.0
C      1  0.5583120000000  0.4443150000000  0.5010520000000 1.0
C      1  0.5585290000000  0.5154960000000  0.5451790000000 1.0
C      1  0.5487110000000  0.5297000000000  0.4552720000000 1.0
C      1  0.5449080000000  0.5089320000000  0.4344860000000 1.0
C      1  0.5426000000000  0.4298430000000  0.5198510000000 1.0
C      1  0.5431160000000  0.5379410000000  0.5353640000000 1.0
C      1  0.5550050000000  0.4809650000000  0.4343530000000 1.0
C      1  0.5350720000000  0.4598740000000  0.5750810000000 1.0
C      1  0.5368660000000  0.5826900000000  0.4985230000000 1.0
C      1  0.4749780000000  0.5621500000000  0.4684560000000 1.0
C      1  0.4650290000000  0.4416960000000  0.4620680000000 1.0
C      1  0.4658380000000  0.5018890000000  0.5754620000000 1.0
C      1  0.4989310000000  0.5233480000000  0.4479120000000 1.0
C      1  0.5002080000000  0.4445870000000  0.5042180000000 1.0
C      1  0.4965320000000  0.5292080000000  0.5472570000000 1.0
C      1  0.5009960000000  0.5690600000000  0.5565140000000 1.0
C      1  0.4949360000000  0.5066830000000  0.4092870000000 1.0
C      1  0.4928700000000  0.4159700000000  0.5341080000000 1.0
C      1  0.5142290000000  0.5076760000000  0.5556420000000 1.0
C      1  0.5002960000000  0.5489110000000  0.4616580000000 1.0
C      1  0.5142900000000  0.4525650000000  0.4811670000000 1.0
C      1  0.4424980000000  0.5220510000000  0.4606270000000 1.0
C      1  0.4375800000000  0.4533670000000  0.5044030000000 1.0
C      1  0.4393690000000  0.5253630000000  0.5404360000000 1.0
C      1  0.5124460000000  0.4307140000000  0.4404360000000 1.0
C      1  0.5105410000000  0.4994310000000  0.5963820000000 1.0
C      1  0.5055360000000  0.5895520000000  0.4568970000000 1.0
C      1  0.4728770000000  0.4353000000000  0.5448070000000 1.0
C      1  0.4771050000000  0.5680820000000  0.5372520000000 1.0
C      1  0.4737100000000  0.4909380000000  0.4241020000000 1.0
C      1  0.4773400000000  0.4874980000000  0.5110650000000 1.0
C      1  0.4789700000000  0.5152080000000  0.5048600000000 1.0
C      1  0.4772830000000  0.4959380000000  0.4835690000000 1.0
C      1  0.5304380000000  0.5309220000000  0.5097250000000 1.0
C      1  0.5206700000000  0.4811910000000  0.4776150000000 1.0
C      1  0.5201680000000  0.4890490000000  0.5341380000000 1.0
C      1  0.4523960000000  0.5448990000000  0.4767750000000 1.0
C      1  0.4450710000000  0.4559300000000  0.4753730000000 1.0
C      1  0.4471390000000  0.4993320000000  0.5531340000000 1.0
C      1  0.5200070000000  0.5675800000000  0.4472540000000 1.0
C      1  0.5294200000000  0.4324750000000  0.4643320000000 1.0
C      1  0.5298200000000  0.5133200000000  0.5819130000000 1.0
C      1  0.5329160000000  0.4372660000000  0.5591210000000 1.0
C      1  0.5375460000000  0.5783070000000  0.5263420000000 1.0
C      1  0.5326880000000  0.4730600000000  0.4159800000000 1.0
C      1  0.4915120000000  0.5653330000000  0.5120450000000 1.0
C      1  0.4894220000000  0.4715660000000  0.4384620000000 1.0
C      1  0.4890380000000  0.4577130000000  0.5533070000000 1.0
C      1  0.5004650000000  0.5358920000000  0.5147750000000 1.0
C      1  0.4986430000000  0.4929330000000  0.4611510000000 1.0
C      1  0.4986580000000  0.4697400000000  0.5262090000000 1.0
C      1  0.4752210000000  0.5296000000000  0.5686190000000 1.0
C      1  0.4900530000000  0.5339780000000  0.4210470000000 1.0
C      1  0.4886210000000  0.4163500000000  0.5046430000000 1.0
C      1  0.4871120000000  0.4849650000000  0.5901920000000 1.0
C      1  0.4856930000000  0.5889880000000  0.4772430000000 1.0
C      1  0.4849090000000  0.4317870000000  0.4487210000000 1.0
C      1  0.4216140000000  0.4756180000000  0.5155060000000 1.0
C      1  0.4232490000000  0.5254850000000  0.5157420000000 1.0
C      1  0.4231880000000  0.5027780000000  0.4730410000000 1.0
C      1  0.4165140000000  0.5009560000000  0.5014910000000 1.0
C      1  0.5588550000000  0.4730820000000  0.5064360000000 1.0
END
