TITL C-2441160-1326-1392 0.0854680913437523 125000 -12341.3864841483 0 0 102 (C1) n - 1
REM
REM in /home/bkarasulu/work/CARBON/AIRSS/Generating-Clusters/ReaxFF-fromJPCA2015/Units_Real/with-SteepDescent/Higher-Symm
REM
REM
REM
REM
REM
REM ./C.cell (1df0a924f5614ab8850e4351716899ee)
REM
REM compiler GCC version 9.2.1 20190827 (Red Hat 9.2.1-1)
REM options -cpp -mtune=generic -march=x86-64 -g -O0 -fpre-include=/usr/include/finclude/math-vector-fortran.h
REM seed 38866350 501422693 -752494791 859193055 746993961 -2060888442 348810178 -1710262171 -1093387321 -497080689 -1384166561 833614702 -1815048271 1810572484 -1131834824 1860930603 -1155469101 -224888783 1694825424 -1825711027 1792251832 -1988898580 -1333809264 105656104 -297411185 145682815 -1989750997 376503156 -370409253 -1472894391 1110881536 -355439760 -50547244
REM
CELL 1.54180   50.00000   50.00000   50.00000   90.00000   90.00000   90.00000
LATT -1
SFAC C  
C      1  0.4790610000000  0.4687860000000  0.5517010000000 1.0
C      1  0.5451540000000  0.4689210000000  0.5360810000000 1.0
C      1  0.5505420000000  0.4639390000000  0.4724470000000 1.0
C      1  0.4847600000000  0.4684400000000  0.4431090000000 1.0
C      1  0.4437130000000  0.4686760000000  0.4973160000000 1.0
C      1  0.5359340000000  0.4662970000000  0.4243560000000 1.0
C      1  0.4418170000000  0.4707310000000  0.4459500000000 1.0
C      1  0.4294440000000  0.4715440000000  0.5401310000000 1.0
C      1  0.5171740000000  0.4706990000000  0.5772100000000 1.0
C      1  0.5800740000000  0.4726870000000  0.5059890000000 1.0
C      1  0.4533690000000  0.5046510000000  0.5782090000000 1.0
C      1  0.5531240000000  0.5125490000000  0.5643150000000 1.0
C      1  0.5815310000000  0.5019620000000  0.4646340000000 1.0
C      1  0.4928150000000  0.5094290000000  0.4180060000000 1.0
C      1  0.4208190000000  0.5093170000000  0.4710130000000 1.0
C      1  0.5588550000000  0.5572760000000  0.4955220000000 1.0
C      1  0.5112240000000  0.5570520000000  0.4395750000000 1.0
C      1  0.4487810000000  0.5563450000000  0.4687690000000 1.0
C      1  0.4543840000000  0.5576680000000  0.5405330000000 1.0
C      1  0.5241110000000  0.5574240000000  0.5564660000000 1.0
C      1  0.4388870000000  0.5439910000000  0.5202120000000 1.0
C      1  0.4992360000000  0.5432510000000  0.5638370000000 1.0
C      1  0.5586250000000  0.5422920000000  0.5210840000000 1.0
C      1  0.5375740000000  0.5465230000000  0.4467370000000 1.0
C      1  0.4631880000000  0.5406720000000  0.4486620000000 1.0
C      1  0.4989520000000  0.4835240000000  0.5938110000000 1.0
C      1  0.5886020000000  0.4796640000000  0.5328630000000 1.0
C      1  0.5590740000000  0.4812420000000  0.4275660000000 1.0
C      1  0.4466610000000  0.4787870000000  0.4168120000000 1.0
C      1  0.4077190000000  0.4797820000000  0.5239590000000 1.0
C      1  0.5567170000000  0.5151030000000  0.4646670000000 1.0
C      1  0.4738020000000  0.5008820000000  0.4328090000000 1.0
C      1  0.4299790000000  0.5012530000000  0.4984790000000 1.0
C      1  0.4774160000000  0.4999310000000  0.5655580000000 1.0
C      1  0.5581550000000  0.5009930000000  0.5406830000000 1.0
C      1  0.5394880000000  0.5760270000000  0.4852500000000 1.0
C      1  0.4970220000000  0.5768140000000  0.4564700000000 1.0
C      1  0.4570800000000  0.5773700000000  0.4866680000000 1.0
C      1  0.4741050000000  0.5781940000000  0.5364020000000 1.0
C      1  0.5261660000000  0.5770350000000  0.5341570000000 1.0
C      1  0.5193490000000  0.5548770000000  0.4898170000000 1.0
C      1  0.4949260000000  0.5548600000000  0.4760710000000 1.0
C      1  0.4754740000000  0.5547820000000  0.4969370000000 1.0
C      1  0.4885710000000  0.5555370000000  0.5222780000000 1.0
C      1  0.5165310000000  0.5549010000000  0.5174600000000 1.0
C      1  0.5182840000000  0.4942700000000  0.5567680000000 1.0
C      1  0.5582930000000  0.4928410000000  0.5031610000000 1.0
C      1  0.5203400000000  0.4970510000000  0.4451910000000 1.0
C      1  0.4551520000000  0.4890040000000  0.4641850000000 1.0
C      1  0.4481890000000  0.4948250000000  0.5376940000000 1.0
C      1  0.5800470000000  0.4745980000000  0.4757780000000 1.0
C      1  0.5092560000000  0.4823480000000  0.4219140000000 1.0
C      1  0.4159990000000  0.4849720000000  0.4568860000000 1.0
C      1  0.4366590000000  0.4872150000000  0.5634660000000 1.0
C      1  0.5379050000000  0.4912120000000  0.5790130000000 1.0
C      1  0.4021860000000  0.4944430000000  0.5036410000000 1.0
C      1  0.4754110000000  0.4980560000000  0.5959010000000 1.0
C      1  0.5823160000000  0.4947150000000  0.5536590000000 1.0
C      1  0.5774920000000  0.4950240000000  0.4378130000000 1.0
C      1  0.4652240000000  0.4977570000000  0.4055690000000 1.0
C      1  0.5168410000000  0.4318120000000  0.5392120000000 1.0
C      1  0.5363630000000  0.4385690000000  0.4970030000000 1.0
C      1  0.5054970000000  0.4380720000000  0.4632590000000 1.0
C      1  0.4607160000000  0.4348210000000  0.4801400000000 1.0
C      1  0.4687800000000  0.4338910000000  0.5305440000000 1.0
C      1  0.4820350000000  0.4836370000000  0.4683040000000 1.0
C      1  0.4673420000000  0.4825290000000  0.5053450000000 1.0
C      1  0.4965230000000  0.4817320000000  0.5327180000000 1.0
C      1  0.5341080000000  0.4850170000000  0.5151850000000 1.0
C      1  0.5286730000000  0.4842500000000  0.4700120000000 1.0
C      1  0.4511150000000  0.4439110000000  0.5084530000000 1.0
C      1  0.4907550000000  0.4431070000000  0.5489810000000 1.0
C      1  0.5415390000000  0.4426100000000  0.5269880000000 1.0
C      1  0.5355580000000  0.4470980000000  0.4498620000000 1.0
C      1  0.4732030000000  0.4447350000000  0.4551610000000 1.0
C      1  0.4776080000000  0.5386210000000  0.5436170000000 1.0
C      1  0.5393780000000  0.5352620000000  0.5433450000000 1.0
C      1  0.5525090000000  0.5404500000000  0.4722080000000 1.0
C      1  0.4918470000000  0.5335080000000  0.4424250000000 1.0
C      1  0.4521180000000  0.5381680000000  0.4933280000000 1.0
C      1  0.4756360000000  0.5993640000000  0.4913930000000 1.0
C      1  0.4843200000000  0.5995400000000  0.5195870000000 1.0
C      1  0.5138700000000  0.5994930000000  0.5201070000000 1.0
C      1  0.5232420000000  0.5993910000000  0.4922620000000 1.0
C      1  0.4998050000000  0.5996490000000  0.4744940000000 1.0
C      1  0.5022100000000  0.5153620000000  0.5689750000000 1.0
C      1  0.5680300000000  0.5159160000000  0.5168240000000 1.0
C      1  0.5396010000000  0.5183560000000  0.4414430000000 1.0
C      1  0.4489270000000  0.5147860000000  0.4505600000000 1.0
C      1  0.4351420000000  0.5162970000000  0.5236620000000 1.0
C      1  0.4775260000000  0.4119060000000  0.4873540000000 1.0
C      1  0.4811750000000  0.4116360000000  0.5163730000000 1.0
C      1  0.5101930000000  0.4102770000000  0.5211940000000 1.0
C      1  0.5246150000000  0.4111850000000  0.4956010000000 1.0
C      1  0.5042820000000  0.4109140000000  0.4751210000000 1.0
C      1  0.4736270000000  0.5118770000000  0.4994260000000 1.0
C      1  0.4916790000000  0.5121380000000  0.5240080000000 1.0
C      1  0.5202560000000  0.5117990000000  0.5149410000000 1.0
C      1  0.5183530000000  0.5064780000000  0.4856830000000 1.0
C      1  0.4914070000000  0.5113890000000  0.4746580000000 1.0
C      1  0.4948700000000  0.4708820000000  0.5034940000000 1.0
C      1  0.5097430000000  0.4508360000000  0.4901240000000 1.0
END
