TITL C-2441159-1093-717 0.0059619468877949 125000 -5508.57898266955 0 0 39 (C1) n - 1
REM
REM in /home/bkarasulu/work/CARBON/AIRSS/Generating-Clusters/ReaxFF-fromJPCA2015/Units_Real/with-SteepDescent/Higher-Symm
REM
REM
REM
REM
REM
REM ./C.cell (1df0a924f5614ab8850e4351716899ee)
REM
REM compiler GCC version 9.2.1 20190827 (Red Hat 9.2.1-1)
REM options -cpp -mtune=generic -march=x86-64 -g -O0 -fpre-include=/usr/include/finclude/math-vector-fortran.h
REM seed -1173208077 -1210036659 1065733484 20137639 518851347 -1125443135 1301036804 1510269905 -566925593 1664677691 1457993220 329334360 -512445344 1222287877 -1431854213 1898596654 -1777888130 -433926307 772761779 1002975021 -35873875 760039412 -1016351680 -1530713171 -857639903 931886831 -1342462716 -1559375108 -451862542 768329548 -294057213 1586474131 2142751892
REM
CELL 1.54180   50.00000   50.00000   50.00000   90.00000   90.00000   90.00000
LATT -1
SFAC C  
C      1  0.4615670000000  0.4624600000000  0.4424220000000 1.0
C      1  0.4684800000000  0.5440640000000  0.4472070000000 1.0
C      1  0.4633840000000  0.5632350000000  0.5259420000000 1.0
C      1  0.4627670000000  0.4956150000000  0.5705920000000 1.0
C      1  0.4657710000000  0.4347270000000  0.5157980000000 1.0
C      1  0.5500040000000  0.5060590000000  0.4579030000000 1.0
C      1  0.5493300000000  0.5241110000000  0.5048430000000 1.0
C      1  0.5465580000000  0.5093020000000  0.5299890000000 1.0
C      1  0.5501620000000  0.4798770000000  0.5259040000000 1.0
C      1  0.5568360000000  0.4775040000000  0.4977690000000 1.0
C      1  0.4730120000000  0.5633950000000  0.4863170000000 1.0
C      1  0.4692170000000  0.5329970000000  0.5548520000000 1.0
C      1  0.4694710000000  0.4590790000000  0.5488060000000 1.0
C      1  0.4758680000000  0.4444050000000  0.4766390000000 1.0
C      1  0.4583580000000  0.5086270000000  0.4286660000000 1.0
C      1  0.5045960000000  0.5286430000000  0.5210210000000 1.0
C      1  0.5104050000000  0.4861100000000  0.5497500000000 1.0
C      1  0.5152780000000  0.4519880000000  0.5101590000000 1.0
C      1  0.4889640000000  0.4941010000000  0.4567880000000 1.0
C      1  0.5142360000000  0.5389870000000  0.4730850000000 1.0
C      1  0.4541760000000  0.4416030000000  0.5377500000000 1.0
C      1  0.4576450000000  0.4442520000000  0.4580860000000 1.0
C      1  0.4522470000000  0.5314430000000  0.4318070000000 1.0
C      1  0.4556630000000  0.5724100000000  0.5033590000000 1.0
C      1  0.4527260000000  0.5189410000000  0.5697400000000 1.0
C      1  0.5201230000000  0.5121980000000  0.5416390000000 1.0
C      1  0.5249180000000  0.4660530000000  0.5339420000000 1.0
C      1  0.5302480000000  0.4672650000000  0.4903600000000 1.0
C      1  0.5195240000000  0.5113150000000  0.4618540000000 1.0
C      1  0.5250120000000  0.5390410000000  0.4997890000000 1.0
C      1  0.4835300000000  0.5473790000000  0.5364880000000 1.0
C      1  0.4839930000000  0.4785940000000  0.5626540000000 1.0
C      1  0.4894720000000  0.4390400000000  0.5009720000000 1.0
C      1  0.4744340000000  0.4856460000000  0.4324530000000 1.0
C      1  0.4889890000000  0.5531940000000  0.4652610000000 1.0
C      1  0.4779080000000  0.4991720000000  0.4812650000000 1.0
C      1  0.4934800000000  0.5038800000000  0.5035120000000 1.0
C      1  0.5609940000000  0.5043480000000  0.4848290000000 1.0
C      1  0.5169830000000  0.4944040000000  0.4886200000000 1.0
END
