TITL C-2441167-4473-220 0.0433931037659397 125000 -15974.4389315868 0 0 118 (C1) n - 1
REM
REM in /home/bkarasulu/work/CARBON/AIRSS/Generating-Clusters/ReaxFF-fromJPCA2015/Units_Real/with-SteepDescent/Higher-Symm
REM
REM
REM
REM
REM
REM ./C.cell (1df0a924f5614ab8850e4351716899ee)
REM
REM compiler GCC version 9.2.1 20190827 (Red Hat 9.2.1-1)
REM options -cpp -mtune=generic -march=x86-64 -g -O0 -fpre-include=/usr/include/finclude/math-vector-fortran.h
REM seed 1174431689 -1526676535 -690224987 697074977 -912491820 -23491634 1063935703 999467689 -1654166618 -1392186514 -1435410206 -1238940684 -440947118 1972348196 189929257 963543726 -1902049213 -1227237468 862803288 -417332970 -130741230 1180713631 -1413370589 192840009 565138262 1862031418 1305533856 -319545741 -1470194071 533926610 963618129 466087395 1471368017
REM
CELL 1.54180   50.00000   50.00000   50.00000   90.00000   90.00000   90.00000
LATT -1
SFAC C  
C      1  0.5728810000000  0.5473260000000  0.5008690000000 1.0
C      1  0.5232500000000  0.5453650000000  0.4304120000000 1.0
C      1  0.4387360000000  0.5545560000000  0.4564140000000 1.0
C      1  0.4312120000000  0.5452590000000  0.5446970000000 1.0
C      1  0.5243350000000  0.5698990000000  0.5714820000000 1.0
C      1  0.5707760000000  0.4465530000000  0.4962300000000 1.0
C      1  0.5253570000000  0.4622860000000  0.4189890000000 1.0
C      1  0.4400050000000  0.4461810000000  0.4642340000000 1.0
C      1  0.4381520000000  0.4358850000000  0.5469360000000 1.0
C      1  0.5231820000000  0.4448370000000  0.5661320000000 1.0
C      1  0.4754920000000  0.5259540000000  0.4750380000000 1.0
C      1  0.4650790000000  0.5075810000000  0.5171280000000 1.0
C      1  0.5004930000000  0.5114680000000  0.5425050000000 1.0
C      1  0.5363480000000  0.5084890000000  0.5099410000000 1.0
C      1  0.5196740000000  0.5093430000000  0.4670400000000 1.0
C      1  0.4764880000000  0.4791400000000  0.4767270000000 1.0
C      1  0.4549140000000  0.4814150000000  0.5207620000000 1.0
C      1  0.5010380000000  0.4845980000000  0.5405600000000 1.0
C      1  0.5362320000000  0.4804500000000  0.4996650000000 1.0
C      1  0.5233800000000  0.4805270000000  0.4672780000000 1.0
C      1  0.4372770000000  0.5632270000000  0.5251120000000 1.0
C      1  0.5049680000000  0.5781310000000  0.5517910000000 1.0
C      1  0.5552020000000  0.5687580000000  0.5094870000000 1.0
C      1  0.5322680000000  0.5674110000000  0.4491030000000 1.0
C      1  0.4606360000000  0.5741220000000  0.4545410000000 1.0
C      1  0.4502470000000  0.4205450000000  0.5238280000000 1.0
C      1  0.5070800000000  0.4233060000000  0.5541140000000 1.0
C      1  0.5558850000000  0.4246040000000  0.5094120000000 1.0
C      1  0.5352120000000  0.4451140000000  0.4374520000000 1.0
C      1  0.4630300000000  0.4294660000000  0.4605490000000 1.0
C      1  0.4467400000000  0.5696630000000  0.4988570000000 1.0
C      1  0.4789630000000  0.5653920000000  0.5453000000000 1.0
C      1  0.5436720000000  0.5659210000000  0.5359490000000 1.0
C      1  0.5606080000000  0.5684970000000  0.4551990000000 1.0
C      1  0.4861610000000  0.5638850000000  0.4447070000000 1.0
C      1  0.4365020000000  0.4278430000000  0.5010330000000 1.0
C      1  0.4779460000000  0.4277040000000  0.5557410000000 1.0
C      1  0.5445530000000  0.4401540000000  0.5307770000000 1.0
C      1  0.5468730000000  0.4313490000000  0.4589330000000 1.0
C      1  0.4873800000000  0.4385250000000  0.4462650000000 1.0
C      1  0.4780010000000  0.4102360000000  0.4822800000000 1.0
C      1  0.4790340000000  0.4116060000000  0.5124960000000 1.0
C      1  0.5047330000000  0.4133980000000  0.5253260000000 1.0
C      1  0.5262320000000  0.4136600000000  0.5037630000000 1.0
C      1  0.5038560000000  0.3996760000000  0.4809590000000 1.0
C      1  0.4737610000000  0.5918840000000  0.4754650000000 1.0
C      1  0.4816080000000  0.5937820000000  0.5041120000000 1.0
C      1  0.5057550000000  0.5865180000000  0.5204910000000 1.0
C      1  0.5282140000000  0.5783930000000  0.4981350000000 1.0
C      1  0.5180700000000  0.5832380000000  0.4692610000000 1.0
C      1  0.4821100000000  0.5224790000000  0.5908210000000 1.0
C      1  0.5527570000000  0.5154570000000  0.5330270000000 1.0
C      1  0.5623340000000  0.5215550000000  0.4419870000000 1.0
C      1  0.4657470000000  0.5221560000000  0.4195230000000 1.0
C      1  0.4225190000000  0.5168340000000  0.5011270000000 1.0
C      1  0.4805050000000  0.4803150000000  0.5832940000000 1.0
C      1  0.5766400000000  0.4831840000000  0.5437170000000 1.0
C      1  0.5534300000000  0.4815650000000  0.4498010000000 1.0
C      1  0.4641180000000  0.4814840000000  0.4206890000000 1.0
C      1  0.4268460000000  0.4749170000000  0.5230160000000 1.0
C      1  0.4232360000000  0.5634940000000  0.4795210000000 1.0
C      1  0.4542570000000  0.5581130000000  0.5623580000000 1.0
C      1  0.5541450000000  0.5609530000000  0.5638980000000 1.0
C      1  0.5789830000000  0.5548120000000  0.4734190000000 1.0
C      1  0.4980060000000  0.5544440000000  0.4200010000000 1.0
C      1  0.4190130000000  0.4435390000000  0.4859730000000 1.0
C      1  0.4537000000000  0.4350300000000  0.5733510000000 1.0
C      1  0.5513110000000  0.4394350000000  0.5615300000000 1.0
C      1  0.5758220000000  0.4392270000000  0.4678120000000 1.0
C      1  0.4978590000000  0.4473890000000  0.4186940000000 1.0
C      1  0.4667580000000  0.5440190000000  0.5827840000000 1.0
C      1  0.5685430000000  0.5389970000000  0.5543660000000 1.0
C      1  0.5746050000000  0.5462720000000  0.4473040000000 1.0
C      1  0.4763160000000  0.5416500000000  0.4010430000000 1.0
C      1  0.4138600000000  0.5439790000000  0.4976740000000 1.0
C      1  0.4651080000000  0.4573050000000  0.5843330000000 1.0
C      1  0.5713700000000  0.4585000000000  0.5563520000000 1.0
C      1  0.5777600000000  0.4594310000000  0.4481240000000 1.0
C      1  0.4743510000000  0.4585940000000  0.4082620000000 1.0
C      1  0.4147210000000  0.4630320000000  0.5064160000000 1.0
C      1  0.5372170000000  0.4894880000000  0.4253830000000 1.0
C      1  0.4413240000000  0.4893820000000  0.4378560000000 1.0
C      1  0.4141010000000  0.4928740000000  0.5333710000000 1.0
C      1  0.5100180000000  0.4854080000000  0.5839150000000 1.0
C      1  0.5816080000000  0.4938720000000  0.5147530000000 1.0
C      1  0.5381980000000  0.5187550000000  0.4256500000000 1.0
C      1  0.4416300000000  0.5187150000000  0.4356660000000 1.0
C      1  0.4195430000000  0.5200180000000  0.5318980000000 1.0
C      1  0.5107030000000  0.5137930000000  0.5845400000000 1.0
C      1  0.5774810000000  0.5226680000000  0.5173950000000 1.0
C      1  0.4442470000000  0.5257380000000  0.4635230000000 1.0
C      1  0.4721840000000  0.5165010000000  0.5442000000000 1.0
C      1  0.5229070000000  0.5227100000000  0.5586980000000 1.0
C      1  0.5418990000000  0.5200590000000  0.4835770000000 1.0
C      1  0.4958630000000  0.5180840000000  0.4544630000000 1.0
C      1  0.4434330000000  0.4782010000000  0.4658180000000 1.0
C      1  0.4751050000000  0.4734240000000  0.5385600000000 1.0
C      1  0.5240850000000  0.4754120000000  0.5586480000000 1.0
C      1  0.5671350000000  0.4761860000000  0.4969260000000 1.0
C      1  0.4968280000000  0.4769770000000  0.4538820000000 1.0
C      1  0.5260780000000  0.4572730000000  0.5158230000000 1.0
C      1  0.5276490000000  0.4335630000000  0.4815440000000 1.0
C      1  0.5024100000000  0.4413000000000  0.4716240000000 1.0
C      1  0.4854870000000  0.4541550000000  0.4895660000000 1.0
C      1  0.4789580000000  0.4480340000000  0.5350910000000 1.0
C      1  0.5258070000000  0.5439030000000  0.5388870000000 1.0
C      1  0.5215780000000  0.5483080000000  0.4899460000000 1.0
C      1  0.4994420000000  0.5603220000000  0.4733070000000 1.0
C      1  0.4731900000000  0.5529180000000  0.4944440000000 1.0
C      1  0.4840170000000  0.5495160000000  0.5208150000000 1.0
C      1  0.4673000000000  0.5053100000000  0.5711320000000 1.0
C      1  0.5513210000000  0.4938320000000  0.5519830000000 1.0
C      1  0.4906130000000  0.4976400000000  0.4340970000000 1.0
C      1  0.5625260000000  0.5049950000000  0.4656590000000 1.0
C      1  0.4303100000000  0.5025770000000  0.4764640000000 1.0
C      1  0.5110020000000  0.5394260000000  0.5152030000000 1.0
C      1  0.4980610000000  0.4514670000000  0.5145800000000 1.0
C      1  0.4792370000000  0.5038480000000  0.4928520000000 1.0
END
