TITL C-2441165-58-127 0.108186488874582 125000 -26310.7282261997 0 0 195 (C1) n - 1
REM
REM in /home/bkarasulu/work/CARBON/AIRSS/Generating-Clusters/ReaxFF-fromJPCA2015/Units_Real/with-SteepDescent/Higher-Symm
REM
REM
REM
REM
REM
REM ./C.cell (1df0a924f5614ab8850e4351716899ee)
REM
REM compiler GCC version 9.2.1 20190827 (Red Hat 9.2.1-1)
REM options -cpp -mtune=generic -march=x86-64 -g -O0 -fpre-include=/usr/include/finclude/math-vector-fortran.h
REM seed -901101336 -1000047498 1507348914 1594017649 1086459670 -358117453 -2035691095 1928504767 1461011452 925087562 912863253 2009415173 -1839048560 -1682436376 539115178 780297489 2147202804 -494712826 1230901552 1384652537 632000998 1510452601 1160401146 -409586824 -527780288 -957727899 1376849654 1690726542 -1534860388 -1134385443 -814181035 1698502391 357129747
REM
CELL 1.54180   50.00000   50.00000   50.00000   90.00000   90.00000   90.00000
LATT -1
SFAC C  
C      1  0.5386670000000  0.3857930000000  0.4844060000000 1.0
C      1  0.4651790000000  0.3859470000000  0.4787090000000 1.0
C      1  0.5267010000000  0.4326060000000  0.4284210000000 1.0
C      1  0.4723110000000  0.4359570000000  0.4269970000000 1.0
C      1  0.5421420000000  0.4082100000000  0.4660870000000 1.0
C      1  0.4567740000000  0.4103230000000  0.4638800000000 1.0
C      1  0.5866020000000  0.5094180000000  0.4624880000000 1.0
C      1  0.4228980000000  0.5244890000000  0.4516710000000 1.0
C      1  0.5672750000000  0.4190810000000  0.4771870000000 1.0
C      1  0.4300050000000  0.4167410000000  0.4763020000000 1.0
C      1  0.4781150000000  0.5237840000000  0.5289520000000 1.0
C      1  0.5244360000000  0.5105180000000  0.5295320000000 1.0
C      1  0.4383600000000  0.4531000000000  0.4487820000000 1.0
C      1  0.5638780000000  0.4621920000000  0.4508220000000 1.0
C      1  0.4127170000000  0.5092120000000  0.5444330000000 1.0
C      1  0.5846930000000  0.5095690000000  0.5464760000000 1.0
C      1  0.5323760000000  0.4749880000000  0.4606860000000 1.0
C      1  0.4605510000000  0.4687440000000  0.4576820000000 1.0
C      1  0.4418260000000  0.5561980000000  0.5615060000000 1.0
C      1  0.5541620000000  0.5709230000000  0.5593930000000 1.0
C      1  0.4124580000000  0.4663860000000  0.5540130000000 1.0
C      1  0.5926780000000  0.4678400000000  0.5560590000000 1.0
C      1  0.5390770000000  0.5075670000000  0.4521400000000 1.0
C      1  0.4658260000000  0.4964020000000  0.4544650000000 1.0
C      1  0.5216640000000  0.5804850000000  0.4208160000000 1.0
C      1  0.4803480000000  0.5750780000000  0.4208310000000 1.0
C      1  0.5549700000000  0.5252210000000  0.5741310000000 1.0
C      1  0.4746810000000  0.5413900000000  0.5893710000000 1.0
C      1  0.4747210000000  0.4786550000000  0.5008350000000 1.0
C      1  0.5245080000000  0.4769470000000  0.4900320000000 1.0
C      1  0.4308760000000  0.5089930000000  0.4089230000000 1.0
C      1  0.5618510000000  0.5104960000000  0.4077870000000 1.0
C      1  0.4609870000000  0.4483210000000  0.5315100000000 1.0
C      1  0.5328990000000  0.4532910000000  0.5239600000000 1.0
C      1  0.5678090000000  0.5716320000000  0.5322060000000 1.0
C      1  0.4237830000000  0.5693030000000  0.5275400000000 1.0
C      1  0.5354640000000  0.6031740000000  0.5404030000000 1.0
C      1  0.4694370000000  0.6071350000000  0.5460320000000 1.0
C      1  0.4418710000000  0.4616420000000  0.4211200000000 1.0
C      1  0.5545480000000  0.4594690000000  0.4213330000000 1.0
C      1  0.5438750000000  0.4417300000000  0.5015360000000 1.0
C      1  0.4508040000000  0.4399540000000  0.5051510000000 1.0
C      1  0.4255930000000  0.5767790000000  0.4813160000000 1.0
C      1  0.5736000000000  0.5713320000000  0.4821390000000 1.0
C      1  0.4231620000000  0.5331890000000  0.4241170000000 1.0
C      1  0.5667820000000  0.5330230000000  0.4276370000000 1.0
C      1  0.5264790000000  0.4336260000000  0.4047430000000 1.0
C      1  0.4871370000000  0.4308180000000  0.4034580000000 1.0
C      1  0.5203440000000  0.3979630000000  0.5569270000000 1.0
C      1  0.4667860000000  0.4021970000000  0.5552390000000 1.0
C      1  0.4622870000000  0.4935250000000  0.5510500000000 1.0
C      1  0.5468260000000  0.4759360000000  0.5525680000000 1.0
C      1  0.4111600000000  0.5314940000000  0.5307740000000 1.0
C      1  0.5833460000000  0.5319780000000  0.5308130000000 1.0
C      1  0.4582250000000  0.6053090000000  0.5068270000000 1.0
C      1  0.5421260000000  0.6045090000000  0.5107180000000 1.0
C      1  0.5226280000000  0.6234310000000  0.4996580000000 1.0
C      1  0.4806660000000  0.6230770000000  0.5008470000000 1.0
C      1  0.4730500000000  0.5615110000000  0.5696770000000 1.0
C      1  0.5242510000000  0.5679930000000  0.5649850000000 1.0
C      1  0.5387810000000  0.5360760000000  0.5086110000000 1.0
C      1  0.4538220000000  0.5323420000000  0.5183920000000 1.0
C      1  0.5260810000000  0.5051620000000  0.4843100000000 1.0
C      1  0.4708160000000  0.5028350000000  0.4830680000000 1.0
C      1  0.4248650000000  0.4922020000000  0.4796180000000 1.0
C      1  0.5687900000000  0.4913990000000  0.5003430000000 1.0
C      1  0.5532760000000  0.5332010000000  0.5999280000000 1.0
C      1  0.4533170000000  0.5267790000000  0.5988050000000 1.0
C      1  0.5519750000000  0.5879990000000  0.4750450000000 1.0
C      1  0.4524780000000  0.5878960000000  0.4847680000000 1.0
C      1  0.6001520000000  0.4887210000000  0.5382940000000 1.0
C      1  0.4002200000000  0.4862980000000  0.5369630000000 1.0
C      1  0.5669600000000  0.4598600000000  0.4931180000000 1.0
C      1  0.4283120000000  0.4612210000000  0.4908020000000 1.0
C      1  0.4193110000000  0.4422460000000  0.4687320000000 1.0
C      1  0.5770420000000  0.4448170000000  0.4705430000000 1.0
C      1  0.4443320000000  0.5338340000000  0.4691780000000 1.0
C      1  0.5616800000000  0.5258920000000  0.4561090000000 1.0
C      1  0.4018940000000  0.5334050000000  0.5037530000000 1.0
C      1  0.5975750000000  0.5380700000000  0.5056340000000 1.0
C      1  0.5290650000000  0.5802950000000  0.5229970000000 1.0
C      1  0.4733860000000  0.5888870000000  0.5257120000000 1.0
C      1  0.4283930000000  0.4226830000000  0.5359570000000 1.0
C      1  0.5698980000000  0.4298620000000  0.5353530000000 1.0
C      1  0.4112420000000  0.4452750000000  0.5335040000000 1.0
C      1  0.5911970000000  0.4483290000000  0.5338110000000 1.0
C      1  0.5825300000000  0.4853860000000  0.4450290000000 1.0
C      1  0.4159550000000  0.4957560000000  0.4516090000000 1.0
C      1  0.4237360000000  0.4856550000000  0.4245720000000 1.0
C      1  0.5729800000000  0.4847680000000  0.4175880000000 1.0
C      1  0.4658810000000  0.5520640000000  0.4317350000000 1.0
C      1  0.5290280000000  0.5516680000000  0.4231180000000 1.0
C      1  0.4734210000000  0.4105800000000  0.4365920000000 1.0
C      1  0.5253230000000  0.4085880000000  0.4378650000000 1.0
C      1  0.5575010000000  0.5601780000000  0.4304600000000 1.0
C      1  0.4358220000000  0.5593320000000  0.4299980000000 1.0
C      1  0.5481700000000  0.3906030000000  0.5109600000000 1.0
C      1  0.4525540000000  0.3882480000000  0.5048750000000 1.0
C      1  0.5644180000000  0.4157020000000  0.5081350000000 1.0
C      1  0.4331010000000  0.4112640000000  0.5063170000000 1.0
C      1  0.4300230000000  0.4791210000000  0.5738710000000 1.0
C      1  0.5764490000000  0.4752970000000  0.5811130000000 1.0
C      1  0.4678260000000  0.4739580000000  0.4139530000000 1.0
C      1  0.5300280000000  0.4751370000000  0.4149700000000 1.0
C      1  0.4678770000000  0.3880360000000  0.5295430000000 1.0
C      1  0.5304570000000  0.3839640000000  0.5330270000000 1.0
C      1  0.4589780000000  0.5000900000000  0.4062090000000 1.0
C      1  0.5381070000000  0.4970890000000  0.3996240000000 1.0
C      1  0.5508570000000  0.4681270000000  0.5932800000000 1.0
C      1  0.4490890000000  0.4763970000000  0.5958960000000 1.0
C      1  0.5247120000000  0.4258960000000  0.5651580000000 1.0
C      1  0.4733260000000  0.4334670000000  0.5830480000000 1.0
C      1  0.4034320000000  0.4562710000000  0.5058640000000 1.0
C      1  0.5932110000000  0.4582740000000  0.5057100000000 1.0
C      1  0.3931850000000  0.4833970000000  0.5084910000000 1.0
C      1  0.5978020000000  0.4874800000000  0.5081240000000 1.0
C      1  0.5318640000000  0.5451760000000  0.4781460000000 1.0
C      1  0.4685140000000  0.5474380000000  0.4611520000000 1.0
C      1  0.5209640000000  0.4664060000000  0.5938570000000 1.0
C      1  0.4717840000000  0.4571740000000  0.5986280000000 1.0
C      1  0.4713410000000  0.4310000000000  0.4886530000000 1.0
C      1  0.5223970000000  0.4298100000000  0.4832830000000 1.0
C      1  0.4109410000000  0.5612540000000  0.5038190000000 1.0
C      1  0.5861650000000  0.5652780000000  0.5074530000000 1.0
C      1  0.4017180000000  0.5060620000000  0.4913520000000 1.0
C      1  0.6000450000000  0.5146830000000  0.4878620000000 1.0
C      1  0.4600320000000  0.4998090000000  0.6087600000000 1.0
C      1  0.5309280000000  0.5147030000000  0.6050890000000 1.0
C      1  0.4473140000000  0.5189530000000  0.4936810000000 1.0
C      1  0.5514330000000  0.5140070000000  0.4953730000000 1.0
C      1  0.5577060000000  0.5447650000000  0.5280930000000 1.0
C      1  0.4356140000000  0.5486040000000  0.5352560000000 1.0
C      1  0.5639900000000  0.5504650000000  0.5779220000000 1.0
C      1  0.4358880000000  0.5330380000000  0.5772450000000 1.0
C      1  0.4298640000000  0.5705020000000  0.4548160000000 1.0
C      1  0.5674000000000  0.5747320000000  0.4541190000000 1.0
C      1  0.4526140000000  0.4287220000000  0.5538230000000 1.0
C      1  0.5492470000000  0.4446770000000  0.5503290000000 1.0
C      1  0.4336840000000  0.5070100000000  0.5631690000000 1.0
C      1  0.5648170000000  0.5003380000000  0.5651730000000 1.0
C      1  0.4723510000000  0.5159670000000  0.4290090000000 1.0
C      1  0.5207080000000  0.5195670000000  0.4304620000000 1.0
C      1  0.4594040000000  0.4769050000000  0.5278660000000 1.0
C      1  0.5379310000000  0.4836310000000  0.5279580000000 1.0
C      1  0.5275640000000  0.5735870000000  0.4742440000000 1.0
C      1  0.4755930000000  0.5701720000000  0.4796890000000 1.0
C      1  0.5000200000000  0.5088450000000  0.4122150000000 1.0
C      1  0.4983240000000  0.5090350000000  0.5169110000000 1.0
C      1  0.5000000000000  0.5147950000000  0.4506370000000 1.0
C      1  0.4877320000000  0.5847320000000  0.5845240000000 1.0
C      1  0.4891950000000  0.4923310000000  0.5617410000000 1.0
C      1  0.4978440000000  0.4714330000000  0.4274040000000 1.0
C      1  0.4921300000000  0.3826000000000  0.4678320000000 1.0
C      1  0.5093090000000  0.3754150000000  0.5148120000000 1.0
C      1  0.4996280000000  0.5242250000000  0.3880320000000 1.0
C      1  0.4993910000000  0.5613240000000  0.5519220000000 1.0
C      1  0.4992640000000  0.4211350000000  0.5861070000000 1.0
C      1  0.5048900000000  0.4446640000000  0.5530280000000 1.0
C      1  0.5011240000000  0.5731860000000  0.4008560000000 1.0
C      1  0.4875580000000  0.4961980000000  0.6191080000000 1.0
C      1  0.5067550000000  0.5184080000000  0.6210360000000 1.0
C      1  0.4980420000000  0.3983140000000  0.4436970000000 1.0
C      1  0.5101590000000  0.5121020000000  0.5552260000000 1.0
C      1  0.5152190000000  0.5189870000000  0.5814210000000 1.0
C      1  0.5046680000000  0.4679050000000  0.5689060000000 1.0
C      1  0.4786460000000  0.4547290000000  0.4768450000000 1.0
C      1  0.5110310000000  0.5690290000000  0.5910640000000 1.0
C      1  0.5040610000000  0.4477940000000  0.5236790000000 1.0
C      1  0.5022570000000  0.6278040000000  0.5199890000000 1.0
C      1  0.4931250000000  0.3987880000000  0.5191720000000 1.0
C      1  0.4927560000000  0.3982650000000  0.5693790000000 1.0
C      1  0.4992830000000  0.6378790000000  0.4533160000000 1.0
C      1  0.5038590000000  0.4813310000000  0.3854540000000 1.0
C      1  0.4939900000000  0.5463180000000  0.5278390000000 1.0
C      1  0.5018350000000  0.5867350000000  0.4686220000000 1.0
C      1  0.4997170000000  0.5395120000000  0.5988010000000 1.0
C      1  0.5033630000000  0.4436800000000  0.4664960000000 1.0
C      1  0.5055460000000  0.4476720000000  0.3903180000000 1.0
C      1  0.4881860000000  0.6088510000000  0.5669420000000 1.0
C      1  0.5013800000000  0.5834130000000  0.5151090000000 1.0
C      1  0.5144130000000  0.5483870000000  0.3949040000000 1.0
C      1  0.5007640000000  0.4447160000000  0.4383670000000 1.0
C      1  0.4976760000000  0.6229770000000  0.4374140000000 1.0
C      1  0.5009740000000  0.6174330000000  0.4788010000000 1.0
C      1  0.5013220000000  0.5016110000000  0.3652650000000 1.0
C      1  0.4963000000000  0.4234750000000  0.5038500000000 1.0
C      1  0.4965070000000  0.4698480000000  0.6102690000000 1.0
C      1  0.5041980000000  0.5362210000000  0.4705670000000 1.0
C      1  0.4991060000000  0.5155280000000  0.4899730000000 1.0
C      1  0.5097770000000  0.6165230000000  0.5463390000000 1.0
C      1  0.5019200000000  0.4727320000000  0.5078580000000 1.0
C      1  0.4921070000000  0.5604560000000  0.5032050000000 1.0
C      1  0.5046340000000  0.4850740000000  0.4515770000000 1.0
C      1  0.5130990000000  0.3742200000000  0.4859450000000 1.0
C      1  0.4980530000000  0.5907860000000  0.4376850000000 1.0
END
