TITL C-2441166-8118-834 0.00781712938267621 125000 -9801.64564040761 0 0 70 (C1) n - 1
REM
REM in /home/bkarasulu/work/CARBON/AIRSS/Generating-Clusters/ReaxFF-fromJPCA2015/Units_Real/with-SteepDescent/Higher-Symm
REM
REM
REM
REM
REM
REM ./C.cell (1df0a924f5614ab8850e4351716899ee)
REM
REM compiler GCC version 9.2.1 20190827 (Red Hat 9.2.1-1)
REM options -cpp -mtune=generic -march=x86-64 -g -O0 -fpre-include=/usr/include/finclude/math-vector-fortran.h
REM seed 1486943542 357344845 -295246311 -32955287 -1603395338 -156396996 825632018 498771137 -1363382609 -620983135 1095782963 1702291970 1043397733 270161377 -1130096706 1066195429 -60278005 1301568709 942698873 -1741969532 984812841 -1551897182 -1416164281 1624181103 969033374 1023438940 774939738 913921234 1123221237 -1723244296 -926493487 1718801461 -1364301718
REM
CELL 1.54180   50.00000   50.00000   50.00000   90.00000   90.00000   90.00000
LATT -1
SFAC C  
C      1  0.4764070000000  0.5535270000000  0.4712020000000 1.0
C      1  0.4412960000000  0.4752700000000  0.4682280000000 1.0
C      1  0.5208940000000  0.4453750000000  0.4729870000000 1.0
C      1  0.5614240000000  0.5174330000000  0.4754340000000 1.0
C      1  0.4790640000000  0.5583600000000  0.5341210000000 1.0
C      1  0.4495170000000  0.4762740000000  0.5294890000000 1.0
C      1  0.5225440000000  0.4407250000000  0.5331470000000 1.0
C      1  0.5498650000000  0.5194340000000  0.5318460000000 1.0
C      1  0.4767240000000  0.4886170000000  0.5155350000000 1.0
C      1  0.5049360000000  0.4837620000000  0.5144380000000 1.0
C      1  0.5219930000000  0.5099570000000  0.5132430000000 1.0
C      1  0.5043300000000  0.5340980000000  0.5068860000000 1.0
C      1  0.4673690000000  0.5073880000000  0.4962330000000 1.0
C      1  0.5041180000000  0.4638960000000  0.4934800000000 1.0
C      1  0.5393040000000  0.5023330000000  0.4900490000000 1.0
C      1  0.4851320000000  0.5284890000000  0.4861740000000 1.0
C      1  0.5234340000000  0.5620960000000  0.4536460000000 1.0
C      1  0.4375700000000  0.5223940000000  0.4512510000000 1.0
C      1  0.4766790000000  0.4378640000000  0.4530380000000 1.0
C      1  0.5635480000000  0.4755900000000  0.4528570000000 1.0
C      1  0.5256070000000  0.5619250000000  0.5521910000000 1.0
C      1  0.4417520000000  0.5209550000000  0.5470920000000 1.0
C      1  0.4768900000000  0.4421310000000  0.5522330000000 1.0
C      1  0.5592710000000  0.4727940000000  0.5507360000000 1.0
C      1  0.4701940000000  0.4882790000000  0.5707610000000 1.0
C      1  0.5148840000000  0.4707520000000  0.5730600000000 1.0
C      1  0.5319290000000  0.5120470000000  0.5733420000000 1.0
C      1  0.4927000000000  0.5268040000000  0.5679260000000 1.0
C      1  0.4715130000000  0.4899850000000  0.4335840000000 1.0
C      1  0.5084360000000  0.4716630000000  0.4375680000000 1.0
C      1  0.5290830000000  0.5116740000000  0.4352620000000 1.0
C      1  0.4896310000000  0.5290440000000  0.4339330000000 1.0
C      1  0.4348260000000  0.4532550000000  0.5130750000000 1.0
C      1  0.5382060000000  0.4336550000000  0.5099700000000 1.0
C      1  0.5638170000000  0.5357810000000  0.5123500000000 1.0
C      1  0.4632140000000  0.5668690000000  0.5132780000000 1.0
C      1  0.4376380000000  0.4624300000000  0.4908020000000 1.0
C      1  0.5424770000000  0.4318220000000  0.4875560000000 1.0
C      1  0.5713980000000  0.5398280000000  0.4909260000000 1.0
C      1  0.4591750000000  0.5678160000000  0.4904720000000 1.0
C      1  0.5362480000000  0.5389610000000  0.4386950000000 1.0
C      1  0.4625450000000  0.5380690000000  0.4413700000000 1.0
C      1  0.4613290000000  0.4632890000000  0.4439960000000 1.0
C      1  0.5355570000000  0.4629750000000  0.4448000000000 1.0
C      1  0.5412940000000  0.5363310000000  0.5594850000000 1.0
C      1  0.4648980000000  0.5375460000000  0.5571930000000 1.0
C      1  0.4585700000000  0.4652380000000  0.5564370000000 1.0
C      1  0.5341710000000  0.4570800000000  0.5548100000000 1.0
C      1  0.5117940000000  0.5478710000000  0.5725990000000 1.0
C      1  0.4536260000000  0.5120480000000  0.5683790000000 1.0
C      1  0.4930860000000  0.4530610000000  0.5727260000000 1.0
C      1  0.5509750000000  0.4915750000000  0.5703940000000 1.0
C      1  0.5101010000000  0.5496150000000  0.4302200000000 1.0
C      1  0.4519110000000  0.5107990000000  0.4293420000000 1.0
C      1  0.4877370000000  0.4530690000000  0.4353190000000 1.0
C      1  0.5473880000000  0.4891680000000  0.4336720000000 1.0
C      1  0.5624390000000  0.4918840000000  0.5285900000000 1.0
C      1  0.5062860000000  0.5689080000000  0.5308580000000 1.0
C      1  0.4353120000000  0.5031830000000  0.5266240000000 1.0
C      1  0.4939860000000  0.4359500000000  0.5283490000000 1.0
C      1  0.5752390000000  0.4898170000000  0.4751780000000 1.0
C      1  0.5052740000000  0.5654830000000  0.4756140000000 1.0
C      1  0.4320400000000  0.5029550000000  0.4721710000000 1.0
C      1  0.4948830000000  0.4288030000000  0.4733540000000 1.0
C      1  0.4381660000000  0.5122200000000  0.4995860000000 1.0
C      1  0.4879810000000  0.4401450000000  0.4999830000000 1.0
C      1  0.5597270000000  0.4834980000000  0.5003780000000 1.0
C      1  0.5146210000000  0.5611950000000  0.5030580000000 1.0
C      1  0.4980620000000  0.4980590000000  0.5656290000000 1.0
C      1  0.4988570000000  0.5000820000000  0.4430530000000 1.0
END
