TITL C-2441157-2117-576 0.0160750387195398 125000 -19493.9711897532 0 0 132 (C1) n - 1
REM
REM in /home/bkarasulu/work/CARBON/AIRSS/Generating-Clusters/ReaxFF-fromJPCA2015/Units_Real/with-SteepDescent/Higher-Symm
REM
REM
REM
REM
REM
REM ./C.cell (1df0a924f5614ab8850e4351716899ee)
REM
REM compiler GCC version 9.2.1 20190827 (Red Hat 9.2.1-1)
REM options -cpp -mtune=generic -march=x86-64 -g -O0 -fpre-include=/usr/include/finclude/math-vector-fortran.h
REM seed -1101241949 349530635 -113832738 282594457 -1469257786 -2010666720 137677863 1537881602 -1214856751 -276732079 1034364584 1814388209 -987555107 612771427 -1423767571 -1197994709 1336242151 -1882542857 619639248 -2126751128 549626166 45720492 1375020035 -972941802 -1962699250 -1021203604 -1427379693 872506039 1673670780 -762940592 730862622 -1393902624 -228966098
REM
CELL 1.54180   50.00000   50.00000   50.00000   90.00000   90.00000   90.00000
LATT -1
SFAC C  
C      1  0.5601970000000  0.4874010000000  0.4289490000000 1.0
C      1  0.4798390000000  0.4518440000000  0.5841050000000 1.0
C      1  0.4531730000000  0.5222230000000  0.4181820000000 1.0
C      1  0.5215670000000  0.5490700000000  0.5840290000000 1.0
C      1  0.5788620000000  0.5606780000000  0.5047390000000 1.0
C      1  0.5572670000000  0.4232710000000  0.4948230000000 1.0
C      1  0.4211410000000  0.4407610000000  0.5028150000000 1.0
C      1  0.4408040000000  0.5769690000000  0.4976600000000 1.0
C      1  0.5101180000000  0.5206610000000  0.4589130000000 1.0
C      1  0.5149170000000  0.4857920000000  0.5391140000000 1.0
C      1  0.4831590000000  0.4749670000000  0.4578650000000 1.0
C      1  0.4837950000000  0.5153740000000  0.5390770000000 1.0
C      1  0.5505320000000  0.5154060000000  0.4256960000000 1.0
C      1  0.5104380000000  0.4495030000000  0.5805430000000 1.0
C      1  0.4495600000000  0.4898210000000  0.4237110000000 1.0
C      1  0.4906550000000  0.5523930000000  0.5781500000000 1.0
C      1  0.4316040000000  0.4895150000000  0.4708550000000 1.0
C      1  0.4902690000000  0.5722740000000  0.5292750000000 1.0
C      1  0.5665000000000  0.5158740000000  0.4714080000000 1.0
C      1  0.5100080000000  0.4213530000000  0.5397270000000 1.0
C      1  0.4691500000000  0.5043320000000  0.5882900000000 1.0
C      1  0.5027360000000  0.5250560000000  0.4130180000000 1.0
C      1  0.5303410000000  0.4968030000000  0.5874190000000 1.0
C      1  0.4966330000000  0.4679430000000  0.4137400000000 1.0
C      1  0.4757270000000  0.4753380000000  0.5015220000000 1.0
C      1  0.4690300000000  0.5333640000000  0.4936230000000 1.0
C      1  0.5241120000000  0.5222080000000  0.5019250000000 1.0
C      1  0.5313740000000  0.4688130000000  0.4916460000000 1.0
C      1  0.4829270000000  0.4297720000000  0.5410210000000 1.0
C      1  0.4401010000000  0.5163020000000  0.4632990000000 1.0
C      1  0.5175730000000  0.5702930000000  0.5403790000000 1.0
C      1  0.5611870000000  0.4866060000000  0.4594850000000 1.0
C      1  0.4182620000000  0.5360900000000  0.5168850000000 1.0
C      1  0.5363420000000  0.5730080000000  0.4927390000000 1.0
C      1  0.5807320000000  0.4629420000000  0.5167510000000 1.0
C      1  0.4638050000000  0.4196590000000  0.4865370000000 1.0
C      1  0.5251190000000  0.4776330000000  0.4082330000000 1.0
C      1  0.4840010000000  0.4763460000000  0.5986380000000 1.0
C      1  0.4757290000000  0.5144230000000  0.4016930000000 1.0
C      1  0.5157920000000  0.5247240000000  0.5979970000000 1.0
C      1  0.5778700000000  0.4622480000000  0.4689540000000 1.0
C      1  0.4584780000000  0.4182650000000  0.5320640000000 1.0
C      1  0.4219650000000  0.5374650000000  0.4703290000000 1.0
C      1  0.5416480000000  0.5833830000000  0.5327710000000 1.0
C      1  0.4843540000000  0.4935140000000  0.4793270000000 1.0
C      1  0.5083550000000  0.5236390000000  0.5268930000000 1.0
C      1  0.5132660000000  0.5038950000000  0.4802360000000 1.0
C      1  0.4908790000000  0.4769710000000  0.5263130000000 1.0
C      1  0.5414520000000  0.4407060000000  0.4470030000000 1.0
C      1  0.4366240000000  0.4593870000000  0.5465680000000 1.0
C      1  0.4570550000000  0.5656700000000  0.4526390000000 1.0
C      1  0.5642440000000  0.5413730000000  0.5467020000000 1.0
C      1  0.5165690000000  0.5526800000000  0.4882110000000 1.0
C      1  0.5513490000000  0.4809610000000  0.5108350000000 1.0
C      1  0.4835410000000  0.4471580000000  0.4881830000000 1.0
C      1  0.4485020000000  0.5188130000000  0.5105840000000 1.0
C      1  0.5202080000000  0.4303770000000  0.4644120000000 1.0
C      1  0.4291040000000  0.4801100000000  0.5261180000000 1.0
C      1  0.4797430000000  0.5775200000000  0.4736320000000 1.0
C      1  0.5709640000000  0.5204860000000  0.5260300000000 1.0
C      1  0.3952360000000  0.5026750000000  0.4964280000000 1.0
C      1  0.5060740000000  0.6037620000000  0.4972490000000 1.0
C      1  0.6039840000000  0.4968360000000  0.4968860000000 1.0
C      1  0.4975360000000  0.3963040000000  0.5031990000000 1.0
C      1  0.5512390000000  0.5617350000000  0.4563270000000 1.0
C      1  0.5504760000000  0.4369890000000  0.5418610000000 1.0
C      1  0.4440490000000  0.4472310000000  0.4555060000000 1.0
C      1  0.4503940000000  0.5554990000000  0.5441880000000 1.0
C      1  0.4748070000000  0.4475940000000  0.4566230000000 1.0
C      1  0.4555770000000  0.5242640000000  0.5415570000000 1.0
C      1  0.5135880000000  0.5459250000000  0.4581860000000 1.0
C      1  0.5426250000000  0.4823480000000  0.5393190000000 1.0
C      1  0.4373050000000  0.4326270000000  0.4794070000000 1.0
C      1  0.4335810000000  0.5623060000000  0.5217270000000 1.0
C      1  0.5607970000000  0.5693840000000  0.4824350000000 1.0
C      1  0.5679360000000  0.4349740000000  0.5206230000000 1.0
C      1  0.4869770000000  0.5295910000000  0.5960870000000 1.0
C      1  0.5281510000000  0.5074740000000  0.4096040000000 1.0
C      1  0.5133210000000  0.4723160000000  0.5979900000000 1.0
C      1  0.4715550000000  0.4859200000000  0.4057980000000 1.0
C      1  0.5165590000000  0.5806140000000  0.4234340000000 1.0
C      1  0.5810960000000  0.4807580000000  0.5674480000000 1.0
C      1  0.4913960000000  0.4179160000000  0.4175010000000 1.0
C      1  0.4173560000000  0.5154730000000  0.5668030000000 1.0
C      1  0.4686690000000  0.5189980000000  0.4680680000000 1.0
C      1  0.5228030000000  0.5424370000000  0.5431010000000 1.0
C      1  0.5299160000000  0.4819310000000  0.4660330000000 1.0
C      1  0.4782490000000  0.4582250000000  0.5433050000000 1.0
C      1  0.4649740000000  0.5938300000000  0.4947720000000 1.0
C      1  0.5953630000000  0.5379590000000  0.4995620000000 1.0
C      1  0.5355340000000  0.4108060000000  0.5004780000000 1.0
C      1  0.4040360000000  0.4628000000000  0.4966620000000 1.0
C      1  0.5619490000000  0.4379970000000  0.4675930000000 1.0
C      1  0.4357420000000  0.4364460000000  0.5295000000000 1.0
C      1  0.4353400000000  0.5637720000000  0.4715930000000 1.0
C      1  0.5651700000000  0.5654590000000  0.5311000000000 1.0
C      1  0.4460480000000  0.4892020000000  0.5036290000000 1.0
C      1  0.4872870000000  0.5558310000000  0.4980980000000 1.0
C      1  0.5535260000000  0.5123960000000  0.5029460000000 1.0
C      1  0.5129890000000  0.4460480000000  0.4878930000000 1.0
C      1  0.5416170000000  0.5373880000000  0.5653810000000 1.0
C      1  0.5433160000000  0.4635640000000  0.4257450000000 1.0
C      1  0.4595290000000  0.4635630000000  0.5651860000000 1.0
C      1  0.4555950000000  0.5445960000000  0.4350070000000 1.0
C      1  0.4755110000000  0.5636830000000  0.5552370000000 1.0
C      1  0.5557980000000  0.5341860000000  0.4492720000000 1.0
C      1  0.5272410000000  0.4363010000000  0.5576930000000 1.0
C      1  0.4383850000000  0.4738700000000  0.4454580000000 1.0
C      1  0.5961210000000  0.5040330000000  0.5248100000000 1.0
C      1  0.5051820000000  0.4031170000000  0.4735000000000 1.0
C      1  0.4028570000000  0.4942410000000  0.5238810000000 1.0
C      1  0.5054390000000  0.5924680000000  0.4694780000000 1.0
C      1  0.4059070000000  0.5187130000000  0.5388960000000 1.0
C      1  0.5278890000000  0.5834220000000  0.4515870000000 1.0
C      1  0.5932070000000  0.4790290000000  0.5396960000000 1.0
C      1  0.4786530000000  0.4016220000000  0.4634830000000 1.0
C      1  0.4462030000000  0.5103120000000  0.5681160000000 1.0
C      1  0.5078830000000  0.5530180000000  0.4310370000000 1.0
C      1  0.5529260000000  0.4894330000000  0.5655470000000 1.0
C      1  0.4897100000000  0.4404290000000  0.4276040000000 1.0
C      1  0.4035080000000  0.4837800000000  0.4777990000000 1.0
C      1  0.4839760000000  0.5985750000000  0.5156500000000 1.0
C      1  0.5959150000000  0.5186100000000  0.4788070000000 1.0
C      1  0.5182650000000  0.4045310000000  0.5185920000000 1.0
C      1  0.4047810000000  0.5291040000000  0.4919470000000 1.0
C      1  0.5323680000000  0.5948960000000  0.5078770000000 1.0
C      1  0.5947560000000  0.4694390000000  0.4909190000000 1.0
C      1  0.4704270000000  0.4038940000000  0.5105020000000 1.0
C      1  0.4946330000000  0.5108830000000  0.4389910000000 1.0
C      1  0.5120580000000  0.4959630000000  0.5642280000000 1.0
C      1  0.5029500000000  0.4833630000000  0.4414220000000 1.0
C      1  0.4869360000000  0.5038960000000  0.5638570000000 1.0
END
