TITL C-2441158-471-257 0.0513832963440411 125000 -11224.2497605055 0 0 86 (C1) n - 1
REM
REM in /home/bkarasulu/work/CARBON/AIRSS/Generating-Clusters/ReaxFF-fromJPCA2015/Units_Real/with-SteepDescent/Higher-Symm
REM
REM
REM
REM
REM
REM ./C.cell (1df0a924f5614ab8850e4351716899ee)
REM
REM compiler GCC version 9.2.1 20190827 (Red Hat 9.2.1-1)
REM options -cpp -mtune=generic -march=x86-64 -g -O0 -fpre-include=/usr/include/finclude/math-vector-fortran.h
REM seed -1922157081 1867798751 -836793536 -1276299796 -1775426108 659906094 -947686024 1258697944 -1099246681 -1582905247 1640851938 -676899357 -1860793522 -433394821 -1996671686 -1864707755 -795726353 476769294 -610853035 -54210607 345327072 -626559696 -1403165599 992989620 260945396 1193342357 1489077443 -1536042007 -1554252914 601048329 -492560855 1228969629 605731199
REM
CELL 1.54180   50.00000   50.00000   50.00000   90.00000   90.00000   90.00000
LATT -1
SFAC C  
C      1  0.5684890000000  0.5166960000000  0.5479820000000 1.0
C      1  0.5363260000000  0.4380650000000  0.5485290000000 1.0
C      1  0.4533960000000  0.4477290000000  0.5481520000000 1.0
C      1  0.4344620000000  0.5266540000000  0.5491800000000 1.0
C      1  0.5057090000000  0.5720390000000  0.5458140000000 1.0
C      1  0.5686130000000  0.5183590000000  0.4530560000000 1.0
C      1  0.5374380000000  0.4391030000000  0.4534820000000 1.0
C      1  0.4506790000000  0.4462650000000  0.4546050000000 1.0
C      1  0.4345720000000  0.5282300000000  0.4528480000000 1.0
C      1  0.5055480000000  0.5714930000000  0.4519170000000 1.0
C      1  0.4822090000000  0.4711730000000  0.4850070000000 1.0
C      1  0.4663480000000  0.5162110000000  0.4875440000000 1.0
C      1  0.5143190000000  0.5268020000000  0.4856760000000 1.0
C      1  0.5249630000000  0.5019370000000  0.4766710000000 1.0
C      1  0.5116060000000  0.4759010000000  0.4828930000000 1.0
C      1  0.4835260000000  0.4772760000000  0.5134390000000 1.0
C      1  0.4636750000000  0.5160100000000  0.5149500000000 1.0
C      1  0.5162060000000  0.5285380000000  0.5140040000000 1.0
C      1  0.5263910000000  0.5018040000000  0.5235480000000 1.0
C      1  0.5137180000000  0.4762100000000  0.5165230000000 1.0
C      1  0.4813840000000  0.5380060000000  0.5563260000000 1.0
C      1  0.5310200000000  0.5334950000000  0.5593370000000 1.0
C      1  0.5448650000000  0.4775230000000  0.5628450000000 1.0
C      1  0.4932360000000  0.4576460000000  0.5593700000000 1.0
C      1  0.4565960000000  0.4927390000000  0.5590800000000 1.0
C      1  0.4827100000000  0.5370580000000  0.4442490000000 1.0
C      1  0.5295970000000  0.5306700000000  0.4441970000000 1.0
C      1  0.5462220000000  0.4800230000000  0.4375520000000 1.0
C      1  0.4934330000000  0.4510430000000  0.4338570000000 1.0
C      1  0.4540360000000  0.4930870000000  0.4371030000000 1.0
C      1  0.4562890000000  0.5361670000000  0.4368720000000 1.0
C      1  0.5200520000000  0.5545130000000  0.4354310000000 1.0
C      1  0.5580950000000  0.5037150000000  0.4317120000000 1.0
C      1  0.5203500000000  0.4470180000000  0.4325570000000 1.0
C      1  0.4547290000000  0.4688360000000  0.4387260000000 1.0
C      1  0.4555740000000  0.5334730000000  0.5666020000000 1.0
C      1  0.5160520000000  0.5558330000000  0.5665790000000 1.0
C      1  0.5572930000000  0.5013010000000  0.5687610000000 1.0
C      1  0.5161420000000  0.4455180000000  0.5664340000000 1.0
C      1  0.4552010000000  0.4673370000000  0.5685750000000 1.0
C      1  0.4783480000000  0.5630100000000  0.4588750000000 1.0
C      1  0.5535790000000  0.5431500000000  0.4580800000000 1.0
C      1  0.5556580000000  0.4615170000000  0.4593690000000 1.0
C      1  0.4776400000000  0.4351810000000  0.4543870000000 1.0
C      1  0.4356630000000  0.4994010000000  0.4602360000000 1.0
C      1  0.4773330000000  0.5648450000000  0.5410930000000 1.0
C      1  0.5537610000000  0.5408790000000  0.5405530000000 1.0
C      1  0.5541780000000  0.4593430000000  0.5404870000000 1.0
C      1  0.4803950000000  0.4348030000000  0.5490020000000 1.0
C      1  0.4343000000000  0.4988450000000  0.5397760000000 1.0
C      1  0.4931690000000  0.4760890000000  0.5809010000000 1.0
C      1  0.4761430000000  0.5006350000000  0.5797130000000 1.0
C      1  0.4932550000000  0.5246510000000  0.5804400000000 1.0
C      1  0.5211630000000  0.5147800000000  0.5804670000000 1.0
C      1  0.5212920000000  0.4858710000000  0.5798530000000 1.0
C      1  0.4959000000000  0.4763790000000  0.4189340000000 1.0
C      1  0.4768530000000  0.4971640000000  0.4192560000000 1.0
C      1  0.4912810000000  0.5219640000000  0.4203880000000 1.0
C      1  0.5202420000000  0.5159630000000  0.4205490000000 1.0
C      1  0.5228810000000  0.4862020000000  0.4203210000000 1.0
C      1  0.4742220000000  0.5664560000000  0.4890990000000 1.0
C      1  0.5486410000000  0.5559540000000  0.4842530000000 1.0
C      1  0.5634780000000  0.4732020000000  0.4845290000000 1.0
C      1  0.4906910000000  0.4307980000000  0.4796740000000 1.0
C      1  0.4354080000000  0.4838850000000  0.4852660000000 1.0
C      1  0.4632380000000  0.5623680000000  0.5160060000000 1.0
C      1  0.5575480000000  0.5463850000000  0.5108250000000 1.0
C      1  0.5601170000000  0.4604570000000  0.5110750000000 1.0
C      1  0.4916690000000  0.4284870000000  0.5227310000000 1.0
C      1  0.4360790000000  0.4818730000000  0.5153010000000 1.0
C      1  0.5209920000000  0.4428470000000  0.4788230000000 1.0
C      1  0.4548790000000  0.4625300000000  0.4794900000000 1.0
C      1  0.4453220000000  0.5372330000000  0.4800550000000 1.0
C      1  0.5191320000000  0.5594790000000  0.4783830000000 1.0
C      1  0.5570770000000  0.5030570000000  0.4784110000000 1.0
C      1  0.5199010000000  0.4421540000000  0.5229690000000 1.0
C      1  0.4541130000000  0.4590270000000  0.5205360000000 1.0
C      1  0.4444710000000  0.5373460000000  0.5214420000000 1.0
C      1  0.5138970000000  0.5579550000000  0.5207420000000 1.0
C      1  0.5560630000000  0.5022860000000  0.5241050000000 1.0
C      1  0.4728290000000  0.4345300000000  0.5023170000000 1.0
C      1  0.5659490000000  0.5198410000000  0.5028670000000 1.0
C      1  0.5404680000000  0.4412350000000  0.5013790000000 1.0
C      1  0.5012050000000  0.5726520000000  0.4988120000000 1.0
C      1  0.4232960000000  0.5311770000000  0.4978790000000 1.0
C      1  0.4840590000000  0.5045210000000  0.5052350000000 1.0
END
