TITL C-2441168-9922-1198 0.053555087544635 125000 -17799.3647531425 0 0 129 (C1) n - 1
REM
REM in /home/bkarasulu/work/CARBON/AIRSS/Generating-Clusters/ReaxFF-fromJPCA2015/Units_Real/with-SteepDescent/Higher-Symm
REM
REM
REM
REM
REM
REM ./C.cell (1df0a924f5614ab8850e4351716899ee)
REM
REM compiler GCC version 9.2.1 20190827 (Red Hat 9.2.1-1)
REM options -cpp -mtune=generic -march=x86-64 -g -O0 -fpre-include=/usr/include/finclude/math-vector-fortran.h
REM seed 1576701585 979339575 1613354997 2062667806 1829312431 814101816 227477655 -1370225426 -1841208919 -40104228 1851482581 -322567456 1741097335 -327309158 1257351395 426254198 1504761170 765058306 -2118882811 1850892169 1293232507 1731604632 1662532722 -1459381970 -1610027351 -448258350 1360319180 -837614049 -2005147725 -1672621884 1069895856 1403626214 1513707386
REM
CELL 1.54180   50.00000   50.00000   50.00000   90.00000   90.00000   90.00000
LATT -1
SFAC C  
C      1  0.4366300000000  0.4570460000000  0.5290430000000 1.0
C      1  0.4393580000000  0.5672840000000  0.5469270000000 1.0
C      1  0.4341320000000  0.4402110000000  0.4538920000000 1.0
C      1  0.5499560000000  0.5839630000000  0.5047120000000 1.0
C      1  0.5233620000000  0.5928920000000  0.5127190000000 1.0
C      1  0.5342160000000  0.5330530000000  0.4347080000000 1.0
C      1  0.4514810000000  0.5231880000000  0.5084620000000 1.0
C      1  0.5155750000000  0.4617370000000  0.4593270000000 1.0
C      1  0.5196610000000  0.4862640000000  0.4732760000000 1.0
C      1  0.4185610000000  0.5028460000000  0.5477360000000 1.0
C      1  0.5190160000000  0.4667050000000  0.5220490000000 1.0
C      1  0.5809340000000  0.4504440000000  0.5247240000000 1.0
C      1  0.5060270000000  0.4925900000000  0.5208670000000 1.0
C      1  0.4243890000000  0.5513620000000  0.4622700000000 1.0
C      1  0.5345320000000  0.4257100000000  0.4404170000000 1.0
C      1  0.4915340000000  0.5201530000000  0.4632820000000 1.0
C      1  0.5895200000000  0.4615070000000  0.4976500000000 1.0
C      1  0.5842010000000  0.5025360000000  0.5219200000000 1.0
C      1  0.4761170000000  0.5912000000000  0.5071380000000 1.0
C      1  0.5234780000000  0.5783580000000  0.4481640000000 1.0
C      1  0.5133050000000  0.5442310000000  0.4921270000000 1.0
C      1  0.5199030000000  0.4067460000000  0.5323480000000 1.0
C      1  0.5363300000000  0.5427340000000  0.5255960000000 1.0
C      1  0.4784390000000  0.5283620000000  0.5146950000000 1.0
C      1  0.4914140000000  0.5522370000000  0.5044720000000 1.0
C      1  0.5218640000000  0.4411060000000  0.4787290000000 1.0
C      1  0.4764520000000  0.5319210000000  0.4138670000000 1.0
C      1  0.4739320000000  0.5675340000000  0.4554800000000 1.0
C      1  0.4821090000000  0.4743580000000  0.4354720000000 1.0
C      1  0.4795560000000  0.5259190000000  0.5940840000000 1.0
C      1  0.5008950000000  0.5947440000000  0.4921580000000 1.0
C      1  0.4417200000000  0.4976240000000  0.4316270000000 1.0
C      1  0.5461020000000  0.4522840000000  0.4331320000000 1.0
C      1  0.5444830000000  0.4502670000000  0.4875140000000 1.0
C      1  0.5427920000000  0.4235400000000  0.5338880000000 1.0
C      1  0.4614420000000  0.5056590000000  0.5807810000000 1.0
C      1  0.5112710000000  0.4393360000000  0.5669370000000 1.0
C      1  0.4022210000000  0.4497400000000  0.4839110000000 1.0
C      1  0.4928380000000  0.4038280000000  0.4921720000000 1.0
C      1  0.4997800000000  0.5841060000000  0.4645750000000 1.0
C      1  0.4798790000000  0.5532370000000  0.5823090000000 1.0
C      1  0.5821860000000  0.5320770000000  0.4632560000000 1.0
C      1  0.5597860000000  0.5606630000000  0.5208410000000 1.0
C      1  0.4794190000000  0.4597250000000  0.4984410000000 1.0
C      1  0.5928280000000  0.4901610000000  0.4970450000000 1.0
C      1  0.4886150000000  0.5738490000000  0.5270860000000 1.0
C      1  0.4479030000000  0.5238690000000  0.4204020000000 1.0
C      1  0.4620350000000  0.5546000000000  0.5599470000000 1.0
C      1  0.5464140000000  0.5615770000000  0.4389710000000 1.0
C      1  0.4297780000000  0.4775800000000  0.5085720000000 1.0
C      1  0.5730950000000  0.5424490000000  0.5016440000000 1.0
C      1  0.5319090000000  0.5438400000000  0.5766130000000 1.0
C      1  0.5619540000000  0.4269260000000  0.4856820000000 1.0
C      1  0.5263710000000  0.4180690000000  0.5562350000000 1.0
C      1  0.4865370000000  0.5243180000000  0.5411330000000 1.0
C      1  0.4710770000000  0.5378460000000  0.4687880000000 1.0
C      1  0.5040500000000  0.4867210000000  0.4196830000000 1.0
C      1  0.4709270000000  0.4746300000000  0.4742280000000 1.0
C      1  0.4868240000000  0.4451890000000  0.5524940000000 1.0
C      1  0.5524800000000  0.5070900000000  0.4370920000000 1.0
C      1  0.5656960000000  0.4279650000000  0.5179820000000 1.0
C      1  0.4627000000000  0.5258570000000  0.5546200000000 1.0
C      1  0.5061950000000  0.4499230000000  0.5033280000000 1.0
C      1  0.5901760000000  0.5317360000000  0.5238070000000 1.0
C      1  0.4401810000000  0.5221230000000  0.5367050000000 1.0
C      1  0.5057850000000  0.5355870000000  0.4442500000000 1.0
C      1  0.4078080000000  0.5251300000000  0.5048740000000 1.0
C      1  0.5601760000000  0.5173770000000  0.5672070000000 1.0
C      1  0.5685180000000  0.4611750000000  0.4505180000000 1.0
C      1  0.4371490000000  0.4997430000000  0.4635010000000 1.0
C      1  0.5375460000000  0.4176330000000  0.4674610000000 1.0
C      1  0.5261830000000  0.5200640000000  0.4069050000000 1.0
C      1  0.5891400000000  0.5054060000000  0.4709470000000 1.0
C      1  0.5443070000000  0.4973600000000  0.4111170000000 1.0
C      1  0.4923910000000  0.4951900000000  0.4802240000000 1.0
C      1  0.5752790000000  0.5329390000000  0.5484890000000 1.0
C      1  0.5050880000000  0.4224500000000  0.4423280000000 1.0
C      1  0.4499650000000  0.5816320000000  0.4964670000000 1.0
C      1  0.4465850000000  0.5708680000000  0.4694470000000 1.0
C      1  0.5048880000000  0.5381930000000  0.5866990000000 1.0
C      1  0.5578440000000  0.4640010000000  0.5725260000000 1.0
C      1  0.4739850000000  0.4707220000000  0.5450130000000 1.0
C      1  0.5285770000000  0.4596840000000  0.5784990000000 1.0
C      1  0.5362870000000  0.5176280000000  0.5136690000000 1.0
C      1  0.4216090000000  0.5438240000000  0.5461010000000 1.0
C      1  0.4461950000000  0.4203630000000  0.4953510000000 1.0
C      1  0.4553360000000  0.4742410000000  0.4214430000000 1.0
C      1  0.4981450000000  0.5127870000000  0.4069290000000 1.0
C      1  0.5498740000000  0.5270470000000  0.4900140000000 1.0
C      1  0.4862190000000  0.5525550000000  0.4311660000000 1.0
C      1  0.5778440000000  0.4649100000000  0.5512730000000 1.0
C      1  0.4020580000000  0.4765840000000  0.4737980000000 1.0
C      1  0.5711470000000  0.4911400000000  0.4520730000000 1.0
C      1  0.4784810000000  0.4822840000000  0.5177620000000 1.0
C      1  0.4675430000000  0.4078590000000  0.4810300000000 1.0
C      1  0.5282830000000  0.5692270000000  0.5609270000000 1.0
C      1  0.4758280000000  0.4629780000000  0.5985220000000 1.0
C      1  0.4460550000000  0.4685950000000  0.5546680000000 1.0
C      1  0.4252580000000  0.4296010000000  0.4774830000000 1.0
C      1  0.4420940000000  0.4553260000000  0.4360430000000 1.0
C      1  0.4428420000000  0.4782320000000  0.4819490000000 1.0
C      1  0.4955500000000  0.4102520000000  0.5196370000000 1.0
C      1  0.4367610000000  0.4923770000000  0.5679340000000 1.0
C      1  0.5345590000000  0.5477650000000  0.4777520000000 1.0
C      1  0.4988650000000  0.4511870000000  0.4402940000000 1.0
C      1  0.4349330000000  0.5383460000000  0.4405680000000 1.0
C      1  0.5546700000000  0.4999690000000  0.5293690000000 1.0
C      1  0.4506340000000  0.4325800000000  0.5209710000000 1.0
C      1  0.4068660000000  0.5026920000000  0.4643740000000 1.0
C      1  0.4325280000000  0.5723370000000  0.5180490000000 1.0
C      1  0.5307310000000  0.4723470000000  0.4176210000000 1.0
C      1  0.5307920000000  0.5028190000000  0.5626840000000 1.0
C      1  0.4901280000000  0.4171590000000  0.4668250000000 1.0
C      1  0.4075570000000  0.5290220000000  0.4766550000000 1.0
C      1  0.4760750000000  0.4261830000000  0.5333700000000 1.0
C      1  0.5257560000000  0.5430540000000  0.5498960000000 1.0
C      1  0.4125350000000  0.4986740000000  0.5191330000000 1.0
C      1  0.5693580000000  0.5576240000000  0.4584120000000 1.0
C      1  0.5439110000000  0.4783770000000  0.4890120000000 1.0
C      1  0.5721020000000  0.4889160000000  0.5681200000000 1.0
C      1  0.4119040000000  0.5508250000000  0.5194760000000 1.0
C      1  0.5140520000000  0.5824220000000  0.5388760000000 1.0
C      1  0.5526820000000  0.5738910000000  0.4775970000000 1.0
C      1  0.4854700000000  0.4843870000000  0.5880650000000 1.0
C      1  0.5079770000000  0.5076270000000  0.5450240000000 1.0
C      1  0.5167300000000  0.4854250000000  0.5812660000000 1.0
C      1  0.5803660000000  0.4479590000000  0.4735040000000 1.0
C      1  0.4499840000000  0.5226010000000  0.4807640000000 1.0
C      1  0.5456630000000  0.4755000000000  0.5183270000000 1.0
END
