TITL C-2441157-2117-1338 0.0338460704450736 125000 -5755.46411953635 0 0 50 (C1) n - 1
REM
REM in /home/bkarasulu/work/CARBON/AIRSS/Generating-Clusters/ReaxFF-fromJPCA2015/Units_Real/with-SteepDescent/Higher-Symm
REM
REM
REM
REM
REM
REM ./C.cell (1df0a924f5614ab8850e4351716899ee)
REM
REM compiler GCC version 9.2.1 20190827 (Red Hat 9.2.1-1)
REM options -cpp -mtune=generic -march=x86-64 -g -O0 -fpre-include=/usr/include/finclude/math-vector-fortran.h
REM seed 1788359809 1415155817 2006013705 -929903326 689808125 316391709 38015356 679045168 -1562294312 2001996141 674496048 -310270442 -590570316 -1443601886 792413301 563487941 -1148074524 -2119785406 -933135037 -827701435 1536416258 -870356700 204605003 2112460881 -1477310137 -1389272632 187567855 -1764517006 -561746300 -6922623 -2137841686 1559621439 601064837
REM
CELL 1.54180   50.00000   50.00000   50.00000   90.00000   90.00000   90.00000
LATT -1
SFAC C  
C      1  0.4689610000000  0.5367080000000  0.4971850000000 1.0
C      1  0.4645420000000  0.4801460000000  0.4753710000000 1.0
C      1  0.4612840000000  0.4864470000000  0.5260540000000 1.0
C      1  0.4709900000000  0.4619640000000  0.4968460000000 1.0
C      1  0.4646710000000  0.5199130000000  0.4753530000000 1.0
C      1  0.4656340000000  0.5147350000000  0.5303780000000 1.0
C      1  0.4859500000000  0.5648810000000  0.5062360000000 1.0
C      1  0.4849710000000  0.4746060000000  0.4404180000000 1.0
C      1  0.4861670000000  0.4614030000000  0.5521320000000 1.0
C      1  0.4850860000000  0.4365080000000  0.5057010000000 1.0
C      1  0.4852030000000  0.5263920000000  0.4404250000000 1.0
C      1  0.4870140000000  0.5401760000000  0.5539530000000 1.0
C      1  0.4995520000000  0.5463170000000  0.4563950000000 1.0
C      1  0.5004820000000  0.4395530000000  0.4809620000000 1.0
C      1  0.4992780000000  0.5152860000000  0.5615780000000 1.0
C      1  0.4992060000000  0.4542290000000  0.4560290000000 1.0
C      1  0.5000370000000  0.5610340000000  0.4809750000000 1.0
C      1  0.4998430000000  0.4860130000000  0.5604150000000 1.0
C      1  0.5206930000000  0.4887500000000  0.5405750000000 1.0
C      1  0.5206450000000  0.5440570000000  0.4897270000000 1.0
C      1  0.5206740000000  0.4706470000000  0.4672740000000 1.0
C      1  0.5208560000000  0.5137360000000  0.5427180000000 1.0
C      1  0.5208770000000  0.4565660000000  0.4896460000000 1.0
C      1  0.5206600000000  0.5302080000000  0.4671070000000 1.0
C      1  0.5498670000000  0.5249820000000  0.4680610000000 1.0
C      1  0.5488140000000  0.4611060000000  0.4947290000000 1.0
C      1  0.5491150000000  0.5157930000000  0.5362860000000 1.0
C      1  0.5493200000000  0.4759890000000  0.4685000000000 1.0
C      1  0.5491760000000  0.5401060000000  0.4948670000000 1.0
C      1  0.5486890000000  0.4856160000000  0.5357690000000 1.0
C      1  0.4565780000000  0.4733540000000  0.4443650000000 1.0
C      1  0.4577580000000  0.4661340000000  0.5506510000000 1.0
C      1  0.4562730000000  0.5648650000000  0.5043910000000 1.0
C      1  0.4567750000000  0.5274810000000  0.4447070000000 1.0
C      1  0.4577160000000  0.5352500000000  0.5519810000000 1.0
C      1  0.4549540000000  0.4354710000000  0.5046330000000 1.0
C      1  0.5159260000000  0.5748920000000  0.5423780000000 1.0
C      1  0.5155370000000  0.4262400000000  0.5423120000000 1.0
C      1  0.5162920000000  0.5004330000000  0.4150330000000 1.0
C      1  0.5051830000000  0.5004440000000  0.4369580000000 1.0
C      1  0.5082840000000  0.4473790000000  0.5309370000000 1.0
C      1  0.5081970000000  0.5537540000000  0.5308730000000 1.0
C      1  0.4864770000000  0.5224810000000  0.5135180000000 1.0
C      1  0.4853860000000  0.4791900000000  0.5136220000000 1.0
C      1  0.4856590000000  0.5002910000000  0.4759410000000 1.0
C      1  0.5435750000000  0.5003720000000  0.4551240000000 1.0
C      1  0.5416000000000  0.5399940000000  0.5226720000000 1.0
C      1  0.5412480000000  0.4607670000000  0.5228060000000 1.0
C      1  0.5002140000000  0.5003120000000  0.5009480000000 1.0
C      1  0.4455960000000  0.4986640000000  0.4925590000000 1.0
END
