TITL C-2441163-1170-892 0.12799825673 125000 -22260.526878198 0 0 167 (C1) n - 1
REM
REM in /home/bkarasulu/work/CARBON/AIRSS/Generating-Clusters/ReaxFF-fromJPCA2015/Units_Real/with-SteepDescent/Higher-Symm
REM
REM
REM
REM
REM
REM ./C.cell (1df0a924f5614ab8850e4351716899ee)
REM
REM compiler GCC version 9.2.1 20190827 (Red Hat 9.2.1-1)
REM options -cpp -mtune=generic -march=x86-64 -g -O0 -fpre-include=/usr/include/finclude/math-vector-fortran.h
REM seed -1436622575 401285924 975762987 -858239491 -1158981853 -473171965 -627216237 1717589173 1251105945 2107712137 420859100 1825444247 112881098 376721870 -1135774737 -529285254 -2075614436 -1937112142 1600816586 -2097441588 -97046397 -124986013 -775152422 -1932856982 1926084637 -1255015625 -1833490908 -1184683564 60964753 1625854494 -284306150 -1567882097 -684064245
REM
CELL 1.54180   50.00000   50.00000   50.00000   90.00000   90.00000   90.00000
LATT -1
SFAC C  
C      1  0.5472650000000  0.5783660000000  0.4465250000000 1.0
C      1  0.5504120000000  0.4112060000000  0.4585780000000 1.0
C      1  0.5460880000000  0.5075870000000  0.5942800000000 1.0
C      1  0.5944980000000  0.5224620000000  0.4604860000000 1.0
C      1  0.5975110000000  0.4607590000000  0.4996220000000 1.0
C      1  0.5944310000000  0.5184470000000  0.5348640000000 1.0
C      1  0.5960520000000  0.5252440000000  0.4878800000000 1.0
C      1  0.5987860000000  0.4833590000000  0.4837870000000 1.0
C      1  0.5969670000000  0.4944390000000  0.5225710000000 1.0
C      1  0.5426700000000  0.5030170000000  0.4698080000000 1.0
C      1  0.5427990000000  0.4676230000000  0.5158100000000 1.0
C      1  0.5330440000000  0.5315920000000  0.5243900000000 1.0
C      1  0.4612110000000  0.4768090000000  0.4258300000000 1.0
C      1  0.4629950000000  0.4372320000000  0.5684520000000 1.0
C      1  0.4628740000000  0.5919090000000  0.5203130000000 1.0
C      1  0.5297480000000  0.4031720000000  0.4787950000000 1.0
C      1  0.5225820000000  0.5271960000000  0.5941430000000 1.0
C      1  0.5277200000000  0.5648610000000  0.4263140000000 1.0
C      1  0.5499700000000  0.4292470000000  0.5587010000000 1.0
C      1  0.5497960000000  0.5846080000000  0.5310950000000 1.0
C      1  0.5484420000000  0.4874180000000  0.4136750000000 1.0
C      1  0.5943940000000  0.4929370000000  0.4597610000000 1.0
C      1  0.5944580000000  0.4687530000000  0.5265060000000 1.0
C      1  0.5955410000000  0.5379270000000  0.5125620000000 1.0
C      1  0.4786000000000  0.5193700000000  0.4459350000000 1.0
C      1  0.4792490000000  0.4397670000000  0.5153800000000 1.0
C      1  0.4745820000000  0.5455430000000  0.5374850000000 1.0
C      1  0.5407600000000  0.4064390000000  0.5061660000000 1.0
C      1  0.5417230000000  0.5539000000000  0.5707690000000 1.0
C      1  0.5414990000000  0.5453870000000  0.4100180000000 1.0
C      1  0.4754890000000  0.4141100000000  0.4748010000000 1.0
C      1  0.4759450000000  0.5188020000000  0.5868050000000 1.0
C      1  0.4782970000000  0.5655770000000  0.4367480000000 1.0
C      1  0.4535730000000  0.4133190000000  0.5189430000000 1.0
C      1  0.4582900000000  0.5576520000000  0.5617260000000 1.0
C      1  0.4573050000000  0.5264640000000  0.4203140000000 1.0
C      1  0.5753260000000  0.4408960000000  0.4908150000000 1.0
C      1  0.5790480000000  0.5233050000000  0.5594880000000 1.0
C      1  0.5791930000000  0.5429570000000  0.4471930000000 1.0
C      1  0.4236260000000  0.4622860000000  0.4392470000000 1.0
C      1  0.4279520000000  0.4648990000000  0.5664400000000 1.0
C      1  0.4261070000000  0.5736790000000  0.4974270000000 1.0
C      1  0.5532160000000  0.5105070000000  0.5207760000000 1.0
C      1  0.5553310000000  0.5201430000000  0.4931220000000 1.0
C      1  0.5574360000000  0.4663800000000  0.4906080000000 1.0
C      1  0.5637440000000  0.4226200000000  0.5124090000000 1.0
C      1  0.5686770000000  0.5506160000000  0.5607020000000 1.0
C      1  0.5661940000000  0.5350800000000  0.4222420000000 1.0
C      1  0.5040450000000  0.4785500000000  0.4124820000000 1.0
C      1  0.5051120000000  0.4298220000000  0.5562350000000 1.0
C      1  0.5048820000000  0.5853260000000  0.5321290000000 1.0
C      1  0.5218710000000  0.4499710000000  0.4765970000000 1.0
C      1  0.5183910000000  0.4916850000000  0.5546040000000 1.0
C      1  0.5176100000000  0.5482220000000  0.4739520000000 1.0
C      1  0.4036330000000  0.5075400000000  0.4564040000000 1.0
C      1  0.4026030000000  0.4553160000000  0.5088250000000 1.0
C      1  0.4129010000000  0.5364860000000  0.5256660000000 1.0
C      1  0.4507570000000  0.4083420000000  0.4898760000000 1.0
C      1  0.4542470000000  0.5378810000000  0.5840720000000 1.0
C      1  0.4533640000000  0.5554670000000  0.4268040000000 1.0
C      1  0.4338590000000  0.4811050000000  0.4201780000000 1.0
C      1  0.4360190000000  0.4402290000000  0.5564280000000 1.0
C      1  0.4363780000000  0.5806550000000  0.5240200000000 1.0
C      1  0.5033600000000  0.5399970000000  0.5739710000000 1.0
C      1  0.5011310000000  0.5527700000000  0.4235320000000 1.0
C      1  0.4924250000000  0.4193910000000  0.4993760000000 1.0
C      1  0.4974490000000  0.5345590000000  0.4013960000000 1.0
C      1  0.4966420000000  0.3979830000000  0.5192340000000 1.0
C      1  0.4989440000000  0.5691730000000  0.5800170000000 1.0
C      1  0.5241390000000  0.3982180000000  0.5285680000000 1.0
C      1  0.5258040000000  0.5782310000000  0.5741000000000 1.0
C      1  0.5239860000000  0.5249230000000  0.3970220000000 1.0
C      1  0.5002440000000  0.5099780000000  0.6009160000000 1.0
C      1  0.4944630000000  0.5861260000000  0.4442480000000 1.0
C      1  0.5050670000000  0.4053350000000  0.4636340000000 1.0
C      1  0.5452840000000  0.5798220000000  0.5036430000000 1.0
C      1  0.5462950000000  0.4619900000000  0.4293600000000 1.0
C      1  0.5479560000000  0.4529150000000  0.5744550000000 1.0
C      1  0.5317950000000  0.5209210000000  0.4486350000000 1.0
C      1  0.5232980000000  0.4495410000000  0.5059280000000 1.0
C      1  0.5202170000000  0.5430370000000  0.5498190000000 1.0
C      1  0.4718320000000  0.5959500000000  0.4931810000000 1.0
C      1  0.4679940000000  0.4465660000000  0.4252200000000 1.0
C      1  0.4725940000000  0.4582390000000  0.5859870000000 1.0
C      1  0.4320610000000  0.5095990000000  0.4196870000000 1.0
C      1  0.4311250000000  0.4259960000000  0.5306540000000 1.0
C      1  0.4315220000000  0.5676320000000  0.5491140000000 1.0
C      1  0.5816540000000  0.4560440000000  0.5478730000000 1.0
C      1  0.5840130000000  0.5640310000000  0.5129830000000 1.0
C      1  0.5855980000000  0.4750060000000  0.4458900000000 1.0
C      1  0.4799330000000  0.4183720000000  0.5587960000000 1.0
C      1  0.4796550000000  0.5940660000000  0.5426250000000 1.0
C      1  0.4781630000000  0.4896820000000  0.4054270000000 1.0
C      1  0.4954980000000  0.4777680000000  0.5012830000000 1.0
C      1  0.5112300000000  0.5169650000000  0.5149700000000 1.0
C      1  0.5161150000000  0.5005640000000  0.4777230000000 1.0
C      1  0.4050520000000  0.4785760000000  0.4547780000000 1.0
C      1  0.4092520000000  0.4672650000000  0.5350670000000 1.0
C      1  0.4070620000000  0.5517080000000  0.5011810000000 1.0
C      1  0.4455990000000  0.4408500000000  0.4441950000000 1.0
C      1  0.4485720000000  0.4757840000000  0.5831150000000 1.0
C      1  0.4508340000000  0.5803250000000  0.4817370000000 1.0
C      1  0.4303240000000  0.5280260000000  0.5720510000000 1.0
C      1  0.4317400000000  0.5481710000000  0.4440990000000 1.0
C      1  0.4316080000000  0.4274240000000  0.4810050000000 1.0
C      1  0.5027030000000  0.4486170000000  0.5323960000000 1.0
C      1  0.5000100000000  0.5564440000000  0.5301670000000 1.0
C      1  0.5056970000000  0.5101540000000  0.4400660000000 1.0
C      1  0.4608970000000  0.4634210000000  0.5140420000000 1.0
C      1  0.4669350000000  0.5213280000000  0.5246110000000 1.0
C      1  0.4708920000000  0.5063890000000  0.4708090000000 1.0
C      1  0.4160960000000  0.4307910000000  0.5064060000000 1.0
C      1  0.4146840000000  0.5455240000000  0.5539830000000 1.0
C      1  0.4146590000000  0.5248110000000  0.4362490000000 1.0
C      1  0.4381460000000  0.4798160000000  0.4794270000000 1.0
C      1  0.4331260000000  0.4989640000000  0.5329830000000 1.0
C      1  0.4353970000000  0.5251660000000  0.4881910000000 1.0
C      1  0.4923540000000  0.4817290000000  0.4707540000000 1.0
C      1  0.4790470000000  0.4861040000000  0.5232240000000 1.0
C      1  0.4869160000000  0.5251790000000  0.5024650000000 1.0
C      1  0.5422390000000  0.4683320000000  0.4659100000000 1.0
C      1  0.5407780000000  0.4893730000000  0.5357260000000 1.0
C      1  0.5401860000000  0.5455080000000  0.4930880000000 1.0
C      1  0.4738720000000  0.4018820000000  0.5368260000000 1.0
C      1  0.4761170000000  0.5801350000000  0.5668760000000 1.0
C      1  0.4757180000000  0.5173170000000  0.4009540000000 1.0
C      1  0.5074740000000  0.4331590000000  0.4554280000000 1.0
C      1  0.5095490000000  0.4893550000000  0.5833960000000 1.0
C      1  0.5095790000000  0.5765160000000  0.4644060000000 1.0
C      1  0.4999590000000  0.5989010000000  0.4813220000000 1.0
C      1  0.4976110000000  0.4406380000000  0.4283970000000 1.0
C      1  0.5002230000000  0.4649630000000  0.5916830000000 1.0
C      1  0.4433930000000  0.5074510000000  0.5570390000000 1.0
C      1  0.4459520000000  0.5417080000000  0.4677870000000 1.0
C      1  0.4489660000000  0.4529560000000  0.4830060000000 1.0
C      1  0.4512600000000  0.4907780000000  0.4568440000000 1.0
C      1  0.4377040000000  0.4726510000000  0.5269450000000 1.0
C      1  0.4419100000000  0.5342460000000  0.5148440000000 1.0
C      1  0.5280230000000  0.4568600000000  0.5966100000000 1.0
C      1  0.5283400000000  0.6017240000000  0.4901270000000 1.0
C      1  0.5269100000000  0.4401100000000  0.4190750000000 1.0
C      1  0.5419520000000  0.4808900000000  0.6043360000000 1.0
C      1  0.5437850000000  0.5972480000000  0.4670510000000 1.0
C      1  0.5412000000000  0.4209190000000  0.4334230000000 1.0
C      1  0.5721060000000  0.5694460000000  0.5384890000000 1.0
C      1  0.5529840000000  0.5106930000000  0.4311630000000 1.0
C      1  0.5691770000000  0.4318630000000  0.5390320000000 1.0
C      1  0.5704900000000  0.4320540000000  0.4613840000000 1.0
C      1  0.5673350000000  0.5011620000000  0.5742120000000 1.0
C      1  0.5698800000000  0.5661660000000  0.4615960000000 1.0
C      1  0.5710380000000  0.5755740000000  0.4898440000000 1.0
C      1  0.5736000000000  0.4516970000000  0.4399520000000 1.0
C      1  0.5690380000000  0.4718940000000  0.5680640000000 1.0
C      1  0.4083290000000  0.4763990000000  0.4874490000000 1.0
C      1  0.4037140000000  0.4973800000000  0.5289970000000 1.0
C      1  0.4063020000000  0.5211170000000  0.4843070000000 1.0
C      1  0.5053620000000  0.4805700000000  0.4419820000000 1.0
C      1  0.4975080000000  0.4761200000000  0.5434440000000 1.0
C      1  0.4927890000000  0.5508940000000  0.4902620000000 1.0
C      1  0.4668540000000  0.4404260000000  0.4640720000000 1.0
C      1  0.4658630000000  0.4962980000000  0.5713210000000 1.0
C      1  0.4692600000000  0.5591040000000  0.4714770000000 1.0
C      1  0.5252860000000  0.4956990000000  0.3991630000000 1.0
C      1  0.5278970000000  0.4125710000000  0.5537910000000 1.0
C      1  0.5283910000000  0.5914560000000  0.5480840000000 1.0
C      1  0.3983090000000  0.4998750000000  0.5009670000000 1.0
C      1  0.5156530000000  0.4947660000000  0.5027090000000 1.0
END
