TITL C-2441161-5029-746 0.172402008374063 125000 -18411.5293344343 0 0 157 (C1) n - 1
REM
REM in /home/bkarasulu/work/CARBON/AIRSS/Generating-Clusters/ReaxFF-fromJPCA2015/Units_Real/with-SteepDescent/Higher-Symm
REM
REM
REM
REM
REM
REM ./C.cell (1df0a924f5614ab8850e4351716899ee)
REM
REM compiler GCC version 9.2.1 20190827 (Red Hat 9.2.1-1)
REM options -cpp -mtune=generic -march=x86-64 -g -O0 -fpre-include=/usr/include/finclude/math-vector-fortran.h
REM seed -2002058943 -1762314170 1221832726 -1654168753 -1824341364 -887071017 976434542 927839706 1559117690 2116525407 -1222334739 -2005308518 -379906663 1861629388 1577440491 1049666730 -1921614969 989793531 149404716 1389573312 2089306840 2093192004 -107963353 1865516034 2065164831 -1615359237 -284661349 705089967 1847253713 -2124289546 -820773197 142734799 -1393173874
REM
CELL 1.54180   50.00000   50.00000   50.00000   90.00000   90.00000   90.00000
LATT -1
SFAC C  
C      1  0.5102590000000  0.4689680000000  0.5950660000000 1.0
C      1  0.4687390000000  0.5952140000000  0.5094270000000 1.0
C      1  0.5948340000000  0.5100490000000  0.4694060000000 1.0
C      1  0.5094590000000  0.5312400000000  0.4048840000000 1.0
C      1  0.4898980000000  0.4696370000000  0.4048290000000 1.0
C      1  0.4903130000000  0.5306740000000  0.5951750000000 1.0
C      1  0.4690590000000  0.4048050000000  0.4898610000000 1.0
C      1  0.5311560000000  0.5953460000000  0.4894550000000 1.0
C      1  0.5303760000000  0.4051210000000  0.5100380000000 1.0
C      1  0.5952350000000  0.4907330000000  0.5307600000000 1.0
C      1  0.4037080000000  0.5110700000000  0.5314490000000 1.0
C      1  0.4051350000000  0.4898610000000  0.4689530000000 1.0
C      1  0.5103070000000  0.5955310000000  0.4684590000000 1.0
C      1  0.4686740000000  0.5101700000000  0.5944770000000 1.0
C      1  0.5947860000000  0.4695960000000  0.5100160000000 1.0
C      1  0.5094730000000  0.4050780000000  0.5308460000000 1.0
C      1  0.4901290000000  0.4049120000000  0.4693150000000 1.0
C      1  0.4899780000000  0.5949830000000  0.5303450000000 1.0
C      1  0.4688450000000  0.4904010000000  0.4047990000000 1.0
C      1  0.5314070000000  0.4895580000000  0.5949920000000 1.0
C      1  0.5305270000000  0.5103650000000  0.4048620000000 1.0
C      1  0.5954500000000  0.5311350000000  0.4903030000000 1.0
C      1  0.4040270000000  0.5314420000000  0.5103010000000 1.0
C      1  0.4048860000000  0.4691660000000  0.4898420000000 1.0
C      1  0.5447470000000  0.4372680000000  0.4739110000000 1.0
C      1  0.4384710000000  0.4795220000000  0.5416500000000 1.0
C      1  0.4735010000000  0.5453610000000  0.4364090000000 1.0
C      1  0.5417790000000  0.5615090000000  0.5199610000000 1.0
C      1  0.4548520000000  0.4366790000000  0.5262980000000 1.0
C      1  0.4550790000000  0.5626150000000  0.4727600000000 1.0
C      1  0.4366010000000  0.5262850000000  0.4555080000000 1.0
C      1  0.5626530000000  0.4749390000000  0.4551210000000 1.0
C      1  0.5624900000000  0.5260380000000  0.5446070000000 1.0
C      1  0.4743590000000  0.4544840000000  0.5628130000000 1.0
C      1  0.5262740000000  0.5438750000000  0.5620910000000 1.0
C      1  0.5247810000000  0.4561010000000  0.4371190000000 1.0
C      1  0.5445290000000  0.4740200000000  0.4369640000000 1.0
C      1  0.4384190000000  0.5417450000000  0.4793020000000 1.0
C      1  0.4735040000000  0.4364880000000  0.5453040000000 1.0
C      1  0.5417990000000  0.5208260000000  0.5613390000000 1.0
C      1  0.4543570000000  0.5269490000000  0.4366370000000 1.0
C      1  0.4551690000000  0.4732180000000  0.5625540000000 1.0
C      1  0.4367730000000  0.4557310000000  0.5259820000000 1.0
C      1  0.5626050000000  0.4562880000000  0.4746670000000 1.0
C      1  0.5624350000000  0.5450080000000  0.5258410000000 1.0
C      1  0.4767460000000  0.5621820000000  0.4556510000000 1.0
C      1  0.5255990000000  0.5623890000000  0.5438450000000 1.0
C      1  0.5248240000000  0.4370930000000  0.4549190000000 1.0
C      1  0.5336840000000  0.5537130000000  0.4886980000000 1.0
C      1  0.5522460000000  0.4862700000000  0.5328670000000 1.0
C      1  0.4864170000000  0.5348760000000  0.5520700000000 1.0
C      1  0.5339110000000  0.4484500000000  0.5145940000000 1.0
C      1  0.4684960000000  0.5502210000000  0.5124700000000 1.0
C      1  0.4689180000000  0.4486360000000  0.4890320000000 1.0
C      1  0.5518100000000  0.5140310000000  0.4663920000000 1.0
C      1  0.4488950000000  0.4885910000000  0.4684870000000 1.0
C      1  0.4461840000000  0.5111700000000  0.5313520000000 1.0
C      1  0.4851650000000  0.4658130000000  0.4475480000000 1.0
C      1  0.5112670000000  0.5310470000000  0.4500250000000 1.0
C      1  0.5120970000000  0.4698770000000  0.5516260000000 1.0
C      1  0.5343010000000  0.4886570000000  0.5531890000000 1.0
C      1  0.5523180000000  0.5330090000000  0.4861330000000 1.0
C      1  0.4844600000000  0.5521910000000  0.5349240000000 1.0
C      1  0.5339190000000  0.5140300000000  0.4484850000000 1.0
C      1  0.4684240000000  0.5125450000000  0.5504820000000 1.0
C      1  0.4697240000000  0.4891690000000  0.4482170000000 1.0
C      1  0.5520130000000  0.4667550000000  0.5131050000000 1.0
C      1  0.4486210000000  0.4688530000000  0.4884400000000 1.0
C      1  0.4461570000000  0.5322060000000  0.5107240000000 1.0
C      1  0.4859010000000  0.4482520000000  0.4656670000000 1.0
C      1  0.5114580000000  0.4500020000000  0.5306270000000 1.0
C      1  0.5119090000000  0.5525770000000  0.4689820000000 1.0
C      1  0.4533000000000  0.4243120000000  0.4748240000000 1.0
C      1  0.4268040000000  0.4754760000000  0.4534360000000 1.0
C      1  0.4737940000000  0.4532880000000  0.4245190000000 1.0
C      1  0.4533360000000  0.5758310000000  0.5250040000000 1.0
C      1  0.5464430000000  0.4254590000000  0.5259240000000 1.0
C      1  0.5469250000000  0.5760970000000  0.4730470000000 1.0
C      1  0.4249350000000  0.5260370000000  0.5472050000000 1.0
C      1  0.5753870000000  0.4740810000000  0.5462860000000 1.0
C      1  0.5749510000000  0.5253550000000  0.4529050000000 1.0
C      1  0.4736780000000  0.5466310000000  0.5757620000000 1.0
C      1  0.5246060000000  0.4538230000000  0.5736640000000 1.0
C      1  0.5244760000000  0.5465810000000  0.4249390000000 1.0
C      1  0.4530460000000  0.4747960000000  0.4239380000000 1.0
C      1  0.4259180000000  0.4540060000000  0.4748390000000 1.0
C      1  0.4735110000000  0.4241140000000  0.4530540000000 1.0
C      1  0.4526990000000  0.5252030000000  0.5746640000000 1.0
C      1  0.5463440000000  0.5261960000000  0.4249590000000 1.0
C      1  0.5472710000000  0.4729910000000  0.5759740000000 1.0
C      1  0.4244180000000  0.5469830000000  0.5259030000000 1.0
C      1  0.5760520000000  0.5471030000000  0.4739650000000 1.0
C      1  0.5759290000000  0.4522030000000  0.5253880000000 1.0
C      1  0.4736170000000  0.5755440000000  0.5469640000000 1.0
C      1  0.5252530000000  0.5747990000000  0.4527350000000 1.0
C      1  0.5244470000000  0.4248670000000  0.5464440000000 1.0
C      1  0.6005920000000  0.5389220000000  0.5175120000000 1.0
C      1  0.5383570000000  0.5172300000000  0.6004430000000 1.0
C      1  0.5172830000000  0.6010240000000  0.5383020000000 1.0
C      1  0.6008450000000  0.4614070000000  0.4824350000000 1.0
C      1  0.3990790000000  0.5386210000000  0.4823270000000 1.0
C      1  0.3986610000000  0.4614020000000  0.5172270000000 1.0
C      1  0.5383300000000  0.4827670000000  0.3992950000000 1.0
C      1  0.4610260000000  0.5178230000000  0.3989930000000 1.0
C      1  0.4608520000000  0.4823370000000  0.6004160000000 1.0
C      1  0.5175650000000  0.3988830000000  0.4612260000000 1.0
C      1  0.4823620000000  0.6007730000000  0.4610390000000 1.0
C      1  0.4819050000000  0.3989860000000  0.5387280000000 1.0
C      1  0.6006030000000  0.5179400000000  0.5385380000000 1.0
C      1  0.5383270000000  0.6008470000000  0.5170660000000 1.0
C      1  0.5172990000000  0.5382780000000  0.6006650000000 1.0
C      1  0.6006260000000  0.4824410000000  0.4611870000000 1.0
C      1  0.3990480000000  0.4827490000000  0.5384950000000 1.0
C      1  0.3985830000000  0.5173950000000  0.4610790000000 1.0
C      1  0.5383670000000  0.3991420000000  0.4825760000000 1.0
C      1  0.4608680000000  0.3989840000000  0.5176160000000 1.0
C      1  0.4611320000000  0.6006130000000  0.4817130000000 1.0
C      1  0.5173590000000  0.4615750000000  0.3988800000000 1.0
C      1  0.4821840000000  0.4615900000000  0.6004150000000 1.0
C      1  0.4820140000000  0.5390920000000  0.3988970000000 1.0
C      1  0.5222910000000  0.5626210000000  0.5833720000000 1.0
C      1  0.5626720000000  0.5839240000000  0.5202530000000 1.0
C      1  0.5837910000000  0.5227970000000  0.5636480000000 1.0
C      1  0.5214690000000  0.4367090000000  0.4157910000000 1.0
C      1  0.4775440000000  0.5640860000000  0.4153640000000 1.0
C      1  0.4791030000000  0.4361800000000  0.5845530000000 1.0
C      1  0.5630250000000  0.4152970000000  0.4781540000000 1.0
C      1  0.4361820000000  0.5836360000000  0.4756720000000 1.0
C      1  0.4362270000000  0.4151890000000  0.5208020000000 1.0
C      1  0.5842210000000  0.4790020000000  0.4363780000000 1.0
C      1  0.4155110000000  0.5222560000000  0.4366930000000 1.0
C      1  0.4160700000000  0.4806070000000  0.5623750000000 1.0
C      1  0.5217780000000  0.5842550000000  0.5622850000000 1.0
C      1  0.5625800000000  0.5211090000000  0.5835790000000 1.0
C      1  0.5840640000000  0.5637730000000  0.5226860000000 1.0
C      1  0.5209540000000  0.4152140000000  0.4363670000000 1.0
C      1  0.4777150000000  0.4151270000000  0.5637880000000 1.0
C      1  0.4790980000000  0.5843470000000  0.4364050000000 1.0
C      1  0.5629790000000  0.4779900000000  0.4155820000000 1.0
C      1  0.4360300000000  0.4762830000000  0.5836740000000 1.0
C      1  0.4362530000000  0.5213410000000  0.4148220000000 1.0
C      1  0.5838790000000  0.4367930000000  0.4785750000000 1.0
C      1  0.4155410000000  0.4369230000000  0.5222710000000 1.0
C      1  0.4163800000000  0.5626330000000  0.4804430000000 1.0
C      1  0.5114620000000  0.4886090000000  0.4682290000000 1.0
C      1  0.4919330000000  0.4576170000000  0.5080760000000 1.0
C      1  0.4901640000000  0.4918530000000  0.5400290000000 1.0
C      1  0.4893060000000  0.5395050000000  0.4932280000000 1.0
C      1  0.5112870000000  0.4683080000000  0.4882410000000 1.0
C      1  0.5092930000000  0.5297120000000  0.5105300000000 1.0
C      1  0.4919500000000  0.5086110000000  0.4575750000000 1.0
C      1  0.4754600000000  0.4804260000000  0.5161130000000 1.0
C      1  0.4754930000000  0.5161420000000  0.4809160000000 1.0
C      1  0.5302660000000  0.5104080000000  0.5101690000000 1.0
C      1  0.5306500000000  0.4897390000000  0.4893490000000 1.0
C      1  0.5101920000000  0.5120030000000  0.5308380000000 1.0
C      1  0.4835110000000  0.5007200000000  0.5010320000000 1.0
END
