TITL C-2441168-9922-2 0.114781976564727 125000 -11774.7749398306 0 0 104 (C1) n - 1
REM
REM in /home/bkarasulu/work/CARBON/AIRSS/Generating-Clusters/ReaxFF-fromJPCA2015/Units_Real/with-SteepDescent/Higher-Symm
REM
REM
REM
REM
REM
REM ./C.cell (1df0a924f5614ab8850e4351716899ee)
REM
REM compiler GCC version 9.2.1 20190827 (Red Hat 9.2.1-1)
REM options -cpp -mtune=generic -march=x86-64 -g -O0 -fpre-include=/usr/include/finclude/math-vector-fortran.h
REM seed 439755009 -1709233825 1913420383 935020570 283645875 -49897360 -1357913263 -416740585 -785684610 1496445869 -1384631786 2017238236 -1164705610 -113267340 40399282 -1814047060 20746503 2061572952 -1773462492 1021819412 -2016063790 1155377304 -1735406905 1583973206 -90369824 -1760884016 -1126149359 -2113555834 153009800 500379608 -2144621839 -1751993518 812702270
REM
CELL 1.54180   50.00000   50.00000   50.00000   90.00000   90.00000   90.00000
LATT -1
SFAC C  
C      1  0.4676390000000  0.4673090000000  0.5640990000000 1.0
C      1  0.5328370000000  0.5348600000000  0.5627730000000 1.0
C      1  0.4668380000000  0.5730250000000  0.5004630000000 1.0
C      1  0.5334540000000  0.5342980000000  0.4382480000000 1.0
C      1  0.4660980000000  0.4630530000000  0.4370010000000 1.0
C      1  0.5347250000000  0.4257580000000  0.5017720000000 1.0
C      1  0.5420190000000  0.5572830000000  0.5449030000000 1.0
C      1  0.4551930000000  0.5666530000000  0.4737950000000 1.0
C      1  0.5436360000000  0.5100950000000  0.4248850000000 1.0
C      1  0.4550650000000  0.4474630000000  0.4598810000000 1.0
C      1  0.5470490000000  0.4322250000000  0.5281670000000 1.0
C      1  0.4531640000000  0.4918140000000  0.5714480000000 1.0
C      1  0.5139780000000  0.4562110000000  0.5637090000000 1.0
C      1  0.4862840000000  0.5275870000000  0.5718090000000 1.0
C      1  0.5117160000000  0.5751830000000  0.5114400000000 1.0
C      1  0.4857840000000  0.5452440000000  0.4353050000000 1.0
C      1  0.5110100000000  0.4763690000000  0.4309510000000 1.0
C      1  0.4887080000000  0.4226370000000  0.4906030000000 1.0
C      1  0.5742830000000  0.4755190000000  0.5128750000000 1.0
C      1  0.4246010000000  0.4978140000000  0.5271430000000 1.0
C      1  0.5662680000000  0.5229890000000  0.5172050000000 1.0
C      1  0.4274400000000  0.5237460000000  0.4892480000000 1.0
C      1  0.5647700000000  0.5009680000000  0.4713990000000 1.0
C      1  0.4259270000000  0.4794360000000  0.4867460000000 1.0
C      1  0.5054780000000  0.4262430000000  0.4666090000000 1.0
C      1  0.4973100000000  0.4396590000000  0.5465620000000 1.0
C      1  0.5057740000000  0.5094150000000  0.5851420000000 1.0
C      1  0.4940710000000  0.5760380000000  0.5350140000000 1.0
C      1  0.5044680000000  0.5628270000000  0.4476620000000 1.0
C      1  0.4935900000000  0.4876630000000  0.4114500000000 1.0
C      1  0.4698370000000  0.4397110000000  0.5535640000000 1.0
C      1  0.5342780000000  0.5090920000000  0.5799460000000 1.0
C      1  0.4655570000000  0.5753490000000  0.5298220000000 1.0
C      1  0.5351040000000  0.5623360000000  0.4464500000000 1.0
C      1  0.4673980000000  0.4879250000000  0.4208900000000 1.0
C      1  0.5344740000000  0.4235830000000  0.4727930000000 1.0
C      1  0.5437300000000  0.4628290000000  0.4780180000000 1.0
C      1  0.4550100000000  0.4614750000000  0.5171260000000 1.0
C      1  0.5499240000000  0.5058440000000  0.5340140000000 1.0
C      1  0.4563320000000  0.5330130000000  0.5255850000000 1.0
C      1  0.5487660000000  0.5242820000000  0.4760540000000 1.0
C      1  0.4600280000000  0.4996290000000  0.4608510000000 1.0
C      1  0.4512910000000  0.5006460000000  0.5412320000000 1.0
C      1  0.5503660000000  0.5454220000000  0.5196800000000 1.0
C      1  0.4418220000000  0.5437710000000  0.4784120000000 1.0
C      1  0.5532660000000  0.4928980000000  0.4470420000000 1.0
C      1  0.4488920000000  0.4631300000000  0.4829830000000 1.0
C      1  0.5513880000000  0.4600500000000  0.5209110000000 1.0
C      1  0.5520670000000  0.5694370000000  0.5016950000000 1.0
C      1  0.4451770000000  0.5353180000000  0.4352460000000 1.0
C      1  0.5545960000000  0.4641090000000  0.4369250000000 1.0
C      1  0.4449690000000  0.4220430000000  0.5014140000000 1.0
C      1  0.5545310000000  0.4640660000000  0.5642450000000 1.0
C      1  0.4439080000000  0.5404020000000  0.5666680000000 1.0
C      1  0.5076900000000  0.5238320000000  0.5041440000000 1.0
C      1  0.4825710000000  0.5223490000000  0.4847320000000 1.0
C      1  0.5137120000000  0.4832370000000  0.4799180000000 1.0
C      1  0.4929200000000  0.4721590000000  0.4979550000000 1.0
C      1  0.5100620000000  0.4828480000000  0.5189700000000 1.0
C      1  0.4915380000000  0.5053520000000  0.5198120000000 1.0
C      1  0.4148520000000  0.5032690000000  0.4706100000000 1.0
C      1  0.5816870000000  0.4817610000000  0.4854810000000 1.0
C      1  0.4144090000000  0.4759800000000  0.5130500000000 1.0
C      1  0.5892310000000  0.4871570000000  0.5338160000000 1.0
C      1  0.4139330000000  0.5222500000000  0.5158860000000 1.0
C      1  0.5852660000000  0.5320880000000  0.4974380000000 1.0
C      1  0.5320310000000  0.4809220000000  0.5694830000000 1.0
C      1  0.4641330000000  0.5503930000000  0.5468090000000 1.0
C      1  0.5343860000000  0.5669140000000  0.4760280000000 1.0
C      1  0.4680990000000  0.5154380000000  0.4369460000000 1.0
C      1  0.5371290000000  0.4466470000000  0.4552450000000 1.0
C      1  0.4653080000000  0.4363380000000  0.5232160000000 1.0
C      1  0.4291410000000  0.5454810000000  0.5240550000000 1.0
C      1  0.5728070000000  0.5410240000000  0.4725340000000 1.0
C      1  0.4329930000000  0.4954340000000  0.4501370000000 1.0
C      1  0.5729480000000  0.4555060000000  0.4770880000000 1.0
C      1  0.4270820000000  0.4575110000000  0.5274350000000 1.0
C      1  0.5727330000000  0.5025040000000  0.5517940000000 1.0
C      1  0.4625450000000  0.4237090000000  0.4775350000000 1.0
C      1  0.5375960000000  0.4412610000000  0.5554080000000 1.0
C      1  0.4598610000000  0.5181340000000  0.5802140000000 1.0
C      1  0.5341180000000  0.5810490000000  0.5291610000000 1.0
C      1  0.4620140000000  0.5582190000000  0.4445170000000 1.0
C      1  0.5310940000000  0.4867960000000  0.4131930000000 1.0
C      1  0.5218510000000  0.5264320000000  0.4633620000000 1.0
C      1  0.4806080000000  0.4768390000000  0.4580580000000 1.0
C      1  0.5310880000000  0.4555610000000  0.5013550000000 1.0
C      1  0.4671840000000  0.4770970000000  0.5365620000000 1.0
C      1  0.5242650000000  0.5169700000000  0.5420270000000 1.0
C      1  0.4737260000000  0.5440120000000  0.5048440000000 1.0
C      1  0.5801270000000  0.4753810000000  0.5578930000000 1.0
C      1  0.4215810000000  0.5384260000000  0.5500790000000 1.0
C      1  0.5793180000000  0.5599660000000  0.4936920000000 1.0
C      1  0.4222490000000  0.5209360000000  0.4442300000000 1.0
C      1  0.5795710000000  0.4619090000000  0.4504660000000 1.0
C      1  0.4232710000000  0.4374690000000  0.5082050000000 1.0
C      1  0.4933210000000  0.4412570000000  0.5128290000000 1.0
C      1  0.5004670000000  0.5062950000000  0.5557430000000 1.0
C      1  0.5021620000000  0.5484840000000  0.5219630000000 1.0
C      1  0.5079510000000  0.5542720000000  0.4762370000000 1.0
C      1  0.5074610000000  0.4966810000000  0.4548000000000 1.0
C      1  0.4965360000000  0.4528990000000  0.4618530000000 1.0
C      1  0.4733970000000  0.4973890000000  0.4978270000000 1.0
C      1  0.5280880000000  0.4999560000000  0.5007900000000 1.0
END
