TITL C-2441154-10-55 0.0910392333398632 125000 -18153.3451041389 0 0 139 (C1) n - 1
REM
REM in /home/bkarasulu/work/CARBON/AIRSS/Generating-Clusters/ReaxFF-fromJPCA2015/Units_Real/with-SteepDescent/Higher-Symm
REM
REM
REM
REM
REM
REM ./C.cell (1df0a924f5614ab8850e4351716899ee)
REM
REM compiler GCC version 9.2.1 20190827 (Red Hat 9.2.1-1)
REM options -cpp -mtune=generic -march=x86-64 -g -O0 -fpre-include=/usr/include/finclude/math-vector-fortran.h
REM seed 162980031 -12512297 67798057 1812016956 240476601 -1781217874 -611698634 -1705342701 -1137879317 650139739 -559826844 -1242766745 -1408600446 -736055365 1100307824 1382972267 265276325 -2100511178 -778842432 1320949594 2113291818 -247475381 -453276425 -234432205 -1187552470 1578036209 -460187122 219591117 111014518 45690652 898500274 1624184170 961131703
REM
CELL 1.54180   50.00000   50.00000   50.00000   90.00000   90.00000   90.00000
LATT -1
SFAC C  
C      1  0.5390770000000  0.4941550000000  0.5971320000000 1.0
C      1  0.5934250000000  0.5421310000000  0.4896190000000 1.0
C      1  0.4874140000000  0.5961950000000  0.5372920000000 1.0
C      1  0.5396720000000  0.5105170000000  0.4068980000000 1.0
C      1  0.4713840000000  0.5089610000000  0.5947270000000 1.0
C      1  0.4708090000000  0.4796060000000  0.4008710000000 1.0
C      1  0.5954610000000  0.4709670000000  0.5137940000000 1.0
C      1  0.4108410000000  0.4560920000000  0.4869210000000 1.0
C      1  0.4028910000000  0.5423230000000  0.5132870000000 1.0
C      1  0.4854940000000  0.4037130000000  0.4724390000000 1.0
C      1  0.5045270000000  0.4077810000000  0.5374980000000 1.0
C      1  0.5127020000000  0.5909440000000  0.4616480000000 1.0
C      1  0.5740490000000  0.4893170000000  0.4820320000000 1.0
C      1  0.4899500000000  0.5887510000000  0.4775230000000 1.0
C      1  0.4899080000000  0.4837280000000  0.5681800000000 1.0
C      1  0.5966060000000  0.5254980000000  0.5130690000000 1.0
C      1  0.4208560000000  0.5116760000000  0.4824100000000 1.0
C      1  0.4080930000000  0.4734150000000  0.5096160000000 1.0
C      1  0.4794820000000  0.4298290000000  0.5083330000000 1.0
C      1  0.5223870000000  0.4289760000000  0.4859570000000 1.0
C      1  0.5179310000000  0.5737650000000  0.5154790000000 1.0
C      1  0.4866920000000  0.5182210000000  0.4224500000000 1.0
C      1  0.5153400000000  0.5181280000000  0.5702260000000 1.0
C      1  0.5222590000000  0.4893030000000  0.4027220000000 1.0
C      1  0.4373840000000  0.5589950000000  0.4810870000000 1.0
C      1  0.4751940000000  0.4364400000000  0.5611780000000 1.0
C      1  0.5639530000000  0.4740720000000  0.4293470000000 1.0
C      1  0.4321650000000  0.4354530000000  0.5292570000000 1.0
C      1  0.5748930000000  0.4334450000000  0.4838210000000 1.0
C      1  0.5702560000000  0.5647060000000  0.5275150000000 1.0
C      1  0.4733810000000  0.5716470000000  0.4374490000000 1.0
C      1  0.5258430000000  0.5702170000000  0.5694590000000 1.0
C      1  0.5255380000000  0.4371100000000  0.4392160000000 1.0
C      1  0.5557090000000  0.5209680000000  0.5618290000000 1.0
C      1  0.4362380000000  0.5194010000000  0.4317380000000 1.0
C      1  0.4410120000000  0.4810880000000  0.5613650000000 1.0
C      1  0.4256360000000  0.5360930000000  0.5490130000000 1.0
C      1  0.5324830000000  0.4119180000000  0.5314040000000 1.0
C      1  0.5330120000000  0.5369170000000  0.4127690000000 1.0
C      1  0.4138970000000  0.4666160000000  0.4607570000000 1.0
C      1  0.5824410000000  0.4673930000000  0.5394930000000 1.0
C      1  0.5856520000000  0.5322620000000  0.4643450000000 1.0
C      1  0.5382070000000  0.5857890000000  0.4682840000000 1.0
C      1  0.4605520000000  0.5857000000000  0.5405370000000 1.0
C      1  0.4500700000000  0.4235670000000  0.4683380000000 1.0
C      1  0.5287310000000  0.4672230000000  0.5943430000000 1.0
C      1  0.4613480000000  0.4591000000000  0.4170690000000 1.0
C      1  0.4683750000000  0.5358740000000  0.5842180000000 1.0
C      1  0.5187390000000  0.4598800000000  0.5291190000000 1.0
C      1  0.5253540000000  0.5141850000000  0.4574190000000 1.0
C      1  0.4568020000000  0.5333960000000  0.5136180000000 1.0
C      1  0.5202310000000  0.5404640000000  0.4691550000000 1.0
C      1  0.4887760000000  0.5428880000000  0.5392400000000 1.0
C      1  0.4859090000000  0.4536640000000  0.4631890000000 1.0
C      1  0.5361630000000  0.4827880000000  0.5475790000000 1.0
C      1  0.4635030000000  0.4885680000000  0.4552940000000 1.0
C      1  0.4689340000000  0.5210700000000  0.5383100000000 1.0
C      1  0.4616200000000  0.4711130000000  0.4792990000000 1.0
C      1  0.5412690000000  0.4650430000000  0.5113040000000 1.0
C      1  0.5407500000000  0.5378050000000  0.4924180000000 1.0
C      1  0.4284470000000  0.5439290000000  0.4413090000000 1.0
C      1  0.4467620000000  0.4121300000000  0.5373770000000 1.0
C      1  0.5326000000000  0.4442480000000  0.4143590000000 1.0
C      1  0.4179950000000  0.4667890000000  0.5568960000000 1.0
C      1  0.5745430000000  0.4535640000000  0.4471470000000 1.0
C      1  0.5778730000000  0.5343880000000  0.5602770000000 1.0
C      1  0.4428450000000  0.5848200000000  0.4711400000000 1.0
C      1  0.5547620000000  0.5873980000000  0.5374090000000 1.0
C      1  0.5632610000000  0.4277970000000  0.4575310000000 1.0
C      1  0.5499050000000  0.5561240000000  0.5781160000000 1.0
C      1  0.4517030000000  0.5555350000000  0.4270680000000 1.0
C      1  0.4644250000000  0.4537480000000  0.5798580000000 1.0
C      1  0.4868780000000  0.5014510000000  0.4491210000000 1.0
C      1  0.4698530000000  0.4810910000000  0.5068390000000 1.0
C      1  0.5070950000000  0.4602340000000  0.4823460000000 1.0
C      1  0.4890960000000  0.4957970000000  0.5399280000000 1.0
C      1  0.5071710000000  0.4950250000000  0.4698190000000 1.0
C      1  0.5164600000000  0.5054190000000  0.5381650000000 1.0
C      1  0.4648550000000  0.5090530000000  0.4991590000000 1.0
C      1  0.5335790000000  0.5143980000000  0.5092450000000 1.0
C      1  0.5458200000000  0.4909860000000  0.4991160000000 1.0
C      1  0.5069920000000  0.5454080000000  0.5166760000000 1.0
C      1  0.4991920000000  0.5384750000000  0.4896310000000 1.0
C      1  0.4934440000000  0.4618190000000  0.5087800000000 1.0
C      1  0.4803400000000  0.5734980000000  0.5562280000000 1.0
C      1  0.5446410000000  0.4767290000000  0.5748780000000 1.0
C      1  0.5661990000000  0.5455580000000  0.4805110000000 1.0
C      1  0.4758610000000  0.4226960000000  0.4548610000000 1.0
C      1  0.5185680000000  0.4326380000000  0.5476960000000 1.0
C      1  0.5226060000000  0.5679960000000  0.4484820000000 1.0
C      1  0.5454860000000  0.5170790000000  0.4361270000000 1.0
C      1  0.4498570000000  0.5281860000000  0.5633020000000 1.0
C      1  0.4468160000000  0.4797710000000  0.4326580000000 1.0
C      1  0.5648190000000  0.4506830000000  0.5220420000000 1.0
C      1  0.4372990000000  0.4510510000000  0.4725130000000 1.0
C      1  0.4296070000000  0.5478040000000  0.5213680000000 1.0
C      1  0.4363260000000  0.4154680000000  0.5108740000000 1.0
C      1  0.5059550000000  0.4388320000000  0.4195760000000 1.0
C      1  0.4224530000000  0.4960120000000  0.4345180000000 1.0
C      1  0.4383250000000  0.5812530000000  0.4992330000000 1.0
C      1  0.5619850000000  0.5839580000000  0.5098370000000 1.0
C      1  0.5647080000000  0.4245440000000  0.5102200000000 1.0
C      1  0.4969410000000  0.5649560000000  0.5782150000000 1.0
C      1  0.5000300000000  0.5656610000000  0.4301420000000 1.0
C      1  0.5002100000000  0.4359420000000  0.5719100000000 1.0
C      1  0.4157050000000  0.4935640000000  0.5598800000000 1.0
C      1  0.5689870000000  0.5004360000000  0.4374440000000 1.0
C      1  0.5791820000000  0.5038580000000  0.5579400000000 1.0
C      1  0.4864100000000  0.4554090000000  0.4329550000000 1.0
C      1  0.4148890000000  0.4942090000000  0.4611220000000 1.0
C      1  0.4561720000000  0.4211440000000  0.4946840000000 1.0
C      1  0.4960000000000  0.5394300000000  0.5680180000000 1.0
C      1  0.5056130000000  0.5416670000000  0.4160670000000 1.0
C      1  0.5039230000000  0.4616440000000  0.5821940000000 1.0
C      1  0.4117880000000  0.5121780000000  0.5377880000000 1.0
C      1  0.5811910000000  0.5061570000000  0.4601540000000 1.0
C      1  0.5636560000000  0.4876350000000  0.5422620000000 1.0
C      1  0.4618490000000  0.5733510000000  0.5147130000000 1.0
C      1  0.5400810000000  0.5779330000000  0.4956160000000 1.0
C      1  0.5391600000000  0.4182800000000  0.5063860000000 1.0
C      1  0.5854410000000  0.5421290000000  0.5339680000000 1.0
C      1  0.5267140000000  0.5844200000000  0.5430540000000 1.0
C      1  0.5394210000000  0.5208290000000  0.5841650000000 1.0
C      1  0.5828330000000  0.4603400000000  0.4746070000000 1.0
C      1  0.4136080000000  0.4560010000000  0.5324040000000 1.0
C      1  0.4235750000000  0.5375640000000  0.4696340000000 1.0
C      1  0.5349320000000  0.4228600000000  0.4603580000000 1.0
C      1  0.4759370000000  0.4177400000000  0.5375210000000 1.0
C      1  0.4678250000000  0.5865540000000  0.4604140000000 1.0
C      1  0.5414540000000  0.4699660000000  0.4107400000000 1.0
C      1  0.4570280000000  0.4811100000000  0.5852220000000 1.0
C      1  0.4588650000000  0.5289670000000  0.4182250000000 1.0
C      1  0.5961560000000  0.4970740000000  0.5038060000000 1.0
C      1  0.4888880000000  0.5886090000000  0.5079040000000 1.0
C      1  0.4992860000000  0.5021560000000  0.5901240000000 1.0
C      1  0.4122910000000  0.5024120000000  0.5091090000000 1.0
C      1  0.4989770000000  0.4101320000000  0.4960220000000 1.0
C      1  0.4937160000000  0.4952440000000  0.4012720000000 1.0
C      1  0.4908550000000  0.5120750000000  0.4887120000000 1.0
END
