TITL C-2441162-9305-1357 0.0898405405033245 125000 -19013.8754507565 0 0 143 (C1) n - 1
REM
REM in /home/bkarasulu/work/CARBON/AIRSS/Generating-Clusters/ReaxFF-fromJPCA2015/Units_Real/with-SteepDescent/Higher-Symm
REM
REM
REM
REM
REM
REM ./C.cell (1df0a924f5614ab8850e4351716899ee)
REM
REM compiler GCC version 9.2.1 20190827 (Red Hat 9.2.1-1)
REM options -cpp -mtune=generic -march=x86-64 -g -O0 -fpre-include=/usr/include/finclude/math-vector-fortran.h
REM seed 442669558 760400089 -1201843147 874560196 1952689680 -68643313 322121052 1476941203 -703137645 -274996331 -1710411752 -1856774620 -230773843 -2121512607 2074483674 -195062233 -1164957087 1124122473 1526492055 -2040071698 -1570690434 -270405047 744485815 -453935150 -1340229573 112373229 -1116605801 -10082421 -125671464 1129338225 -1583602979 -807810816 -1083123863
REM
CELL 1.54180   50.00000   50.00000   50.00000   90.00000   90.00000   90.00000
LATT -1
SFAC C  
C      1  0.4942770000000  0.4582160000000  0.4676560000000 1.0
C      1  0.4850880000000  0.5069060000000  0.4570060000000 1.0
C      1  0.4804690000000  0.5366840000000  0.4930350000000 1.0
C      1  0.4907980000000  0.5165290000000  0.5331740000000 1.0
C      1  0.4834510000000  0.4667970000000  0.5278360000000 1.0
C      1  0.4769800000000  0.4675760000000  0.5967820000000 1.0
C      1  0.4751290000000  0.4022820000000  0.4975840000000 1.0
C      1  0.4744430000000  0.4714410000000  0.3988590000000 1.0
C      1  0.4654660000000  0.5835500000000  0.4492170000000 1.0
C      1  0.4743530000000  0.5792730000000  0.5578840000000 1.0
C      1  0.5844420000000  0.4544740000000  0.5326990000000 1.0
C      1  0.5831720000000  0.4466950000000  0.4617860000000 1.0
C      1  0.5823490000000  0.5164530000000  0.4473330000000 1.0
C      1  0.5817790000000  0.5591540000000  0.5015140000000 1.0
C      1  0.5826310000000  0.5188320000000  0.5625420000000 1.0
C      1  0.5799940000000  0.4617690000000  0.4861470000000 1.0
C      1  0.5906290000000  0.4964180000000  0.4658840000000 1.0
C      1  0.5752400000000  0.5308400000000  0.4938410000000 1.0
C      1  0.5853350000000  0.5314850000000  0.5378690000000 1.0
C      1  0.5838390000000  0.4829960000000  0.5241740000000 1.0
C      1  0.4181140000000  0.5012070000000  0.4348330000000 1.0
C      1  0.4190950000000  0.5609900000000  0.4844920000000 1.0
C      1  0.4197090000000  0.5329630000000  0.5516280000000 1.0
C      1  0.4204470000000  0.4663650000000  0.5511610000000 1.0
C      1  0.4199480000000  0.4411060000000  0.4785570000000 1.0
C      1  0.5439160000000  0.5632390000000  0.5244770000000 1.0
C      1  0.5465170000000  0.4936210000000  0.5575960000000 1.0
C      1  0.5410640000000  0.4485620000000  0.5167950000000 1.0
C      1  0.5430910000000  0.4644350000000  0.4394720000000 1.0
C      1  0.5429440000000  0.5462790000000  0.4475320000000 1.0
C      1  0.4545840000000  0.5730290000000  0.5099840000000 1.0
C      1  0.4544740000000  0.5126960000000  0.5701260000000 1.0
C      1  0.4553030000000  0.4368920000000  0.5376520000000 1.0
C      1  0.4509720000000  0.4480540000000  0.4461790000000 1.0
C      1  0.4494060000000  0.5322570000000  0.4324120000000 1.0
C      1  0.4944750000000  0.5433020000000  0.4113130000000 1.0
C      1  0.5024940000000  0.5679030000000  0.5164380000000 1.0
C      1  0.5020200000000  0.5184040000000  0.5817400000000 1.0
C      1  0.5020180000000  0.4241370000000  0.5408110000000 1.0
C      1  0.4940000000000  0.4416310000000  0.4437850000000 1.0
C      1  0.4990680000000  0.5462410000000  0.5441830000000 1.0
C      1  0.4889550000000  0.4710500000000  0.5559550000000 1.0
C      1  0.4899070000000  0.4392640000000  0.4883260000000 1.0
C      1  0.4865960000000  0.4914580000000  0.4327120000000 1.0
C      1  0.4998270000000  0.5641310000000  0.4609250000000 1.0
C      1  0.5375000000000  0.5796580000000  0.4831690000000 1.0
C      1  0.5370030000000  0.5501280000000  0.5754390000000 1.0
C      1  0.5402000000000  0.4433280000000  0.5650320000000 1.0
C      1  0.5354770000000  0.4266290000000  0.4686670000000 1.0
C      1  0.5348930000000  0.5074020000000  0.4233140000000 1.0
C      1  0.5285520000000  0.5552230000000  0.5008200000000 1.0
C      1  0.5179180000000  0.5323980000000  0.5616050000000 1.0
C      1  0.5241030000000  0.4434460000000  0.5396750000000 1.0
C      1  0.5361560000000  0.4574900000000  0.4670760000000 1.0
C      1  0.5333940000000  0.5180760000000  0.4516400000000 1.0
C      1  0.4810470000000  0.5828440000000  0.5017460000000 1.0
C      1  0.4749870000000  0.5303070000000  0.5828700000000 1.0
C      1  0.4766360000000  0.4276220000000  0.5554400000000 1.0
C      1  0.4702950000000  0.4253490000000  0.4481190000000 1.0
C      1  0.4720000000000  0.5281980000000  0.4109810000000 1.0
C      1  0.4491580000000  0.4463010000000  0.4828740000000 1.0
C      1  0.4462090000000  0.4979660000000  0.4359050000000 1.0
C      1  0.4462220000000  0.5637010000000  0.4811610000000 1.0
C      1  0.4472100000000  0.5398360000000  0.5522060000000 1.0
C      1  0.4480460000000  0.4612550000000  0.5537060000000 1.0
C      1  0.5187250000000  0.5014030000000  0.5979800000000 1.0
C      1  0.5183300000000  0.4013200000000  0.5297690000000 1.0
C      1  0.5113710000000  0.4403650000000  0.4192140000000 1.0
C      1  0.5165100000000  0.5602470000000  0.4127660000000 1.0
C      1  0.5116140000000  0.5940130000000  0.5279060000000 1.0
C      1  0.3949700000000  0.4904080000000  0.4757610000000 1.0
C      1  0.3943550000000  0.5180670000000  0.4829940000000 1.0
C      1  0.3939720000000  0.5214540000000  0.5112340000000 1.0
C      1  0.3949240000000  0.4953450000000  0.5217510000000 1.0
C      1  0.3949080000000  0.4759130000000  0.5009320000000 1.0
C      1  0.5667840000000  0.5770280000000  0.4841170000000 1.0
C      1  0.5606710000000  0.5306680000000  0.5792610000000 1.0
C      1  0.5685670000000  0.4478250000000  0.5568350000000 1.0
C      1  0.5640640000000  0.4267180000000  0.4710530000000 1.0
C      1  0.5644390000000  0.5085420000000  0.4244000000000 1.0
C      1  0.4831130000000  0.4154340000000  0.4726090000000 1.0
C      1  0.4848640000000  0.5017430000000  0.4051940000000 1.0
C      1  0.4839140000000  0.5869870000000  0.4719030000000 1.0
C      1  0.4848940000000  0.5556750000000  0.5705050000000 1.0
C      1  0.4881040000000  0.4470230000000  0.5745700000000 1.0
C      1  0.5451960000000  0.5515080000000  0.4181500000000 1.0
C      1  0.5416720000000  0.5930820000000  0.5285670000000 1.0
C      1  0.5439520000000  0.5069550000000  0.5833800000000 1.0
C      1  0.5462360000000  0.4073330000000  0.5261760000000 1.0
C      1  0.5407670000000  0.4387110000000  0.4227600000000 1.0
C      1  0.4660680000000  0.4300800000000  0.5060230000000 1.0
C      1  0.4624970000000  0.4736740000000  0.4299510000000 1.0
C      1  0.4596970000000  0.5534200000000  0.4561130000000 1.0
C      1  0.4586600000000  0.5632610000000  0.5390830000000 1.0
C      1  0.4643060000000  0.4812660000000  0.5688070000000 1.0
C      1  0.5872080000000  0.4919150000000  0.5525710000000 1.0
C      1  0.5838420000000  0.4427380000000  0.5070360000000 1.0
C      1  0.5885240000000  0.4733140000000  0.4480370000000 1.0
C      1  0.5815050000000  0.5381730000000  0.4654210000000 1.0
C      1  0.5846760000000  0.5585490000000  0.5296020000000 1.0
C      1  0.5336740000000  0.5857620000000  0.4555180000000 1.0
C      1  0.5234020000000  0.5740730000000  0.5688410000000 1.0
C      1  0.5262560000000  0.4567050000000  0.5857050000000 1.0
C      1  0.5207670000000  0.4093230000000  0.4862460000000 1.0
C      1  0.5228540000000  0.4860000000000  0.4085210000000 1.0
C      1  0.5126180000000  0.4953330000000  0.5358700000000 1.0
C      1  0.5067030000000  0.4767560000000  0.5156980000000 1.0
C      1  0.5005400000000  0.4863790000000  0.4704560000000 1.0
C      1  0.4853350000000  0.5397660000000  0.4649710000000 1.0
C      1  0.4994430000000  0.5210610000000  0.5051950000000 1.0
C      1  0.5040810000000  0.3953310000000  0.5027160000000 1.0
C      1  0.5059910000000  0.4644670000000  0.4020010000000 1.0
C      1  0.5126670000000  0.5767700000000  0.4381930000000 1.0
C      1  0.5029310000000  0.5898690000000  0.5571030000000 1.0
C      1  0.5091520000000  0.4734370000000  0.6002960000000 1.0
C      1  0.4079160000000  0.5427040000000  0.5261240000000 1.0
C      1  0.4114500000000  0.4903750000000  0.5437320000000 1.0
C      1  0.4083380000000  0.4506480000000  0.5032570000000 1.0
C      1  0.4085650000000  0.4800980000000  0.4521910000000 1.0
C      1  0.4149400000000  0.5342300000000  0.4698540000000 1.0
C      1  0.5667680000000  0.4805400000000  0.4303790000000 1.0
C      1  0.5668160000000  0.5615130000000  0.4591300000000 1.0
C      1  0.5611750000000  0.5468610000000  0.5422860000000 1.0
C      1  0.5678030000000  0.4752040000000  0.5654170000000 1.0
C      1  0.5588070000000  0.4263990000000  0.5041090000000 1.0
C      1  0.5408030000000  0.5077890000000  0.4779610000000 1.0
C      1  0.5437000000000  0.5248750000000  0.5007630000000 1.0
C      1  0.5400540000000  0.5019810000000  0.5288560000000 1.0
C      1  0.5513890000000  0.4766640000000  0.5150610000000 1.0
C      1  0.5508560000000  0.4772930000000  0.4837950000000 1.0
C      1  0.4603900000000  0.4807950000000  0.5152590000000 1.0
C      1  0.4552560000000  0.4744830000000  0.4874110000000 1.0
C      1  0.4540110000000  0.4978960000000  0.4683110000000 1.0
C      1  0.4547990000000  0.5272960000000  0.5042840000000 1.0
C      1  0.4625250000000  0.5080030000000  0.5241060000000 1.0
C      1  0.4200530000000  0.4414420000000  0.5310030000000 1.0
C      1  0.4220450000000  0.4538050000000  0.4524390000000 1.0
C      1  0.4212410000000  0.5294400000000  0.4391640000000 1.0
C      1  0.4195380000000  0.5647190000000  0.5122560000000 1.0
C      1  0.4247430000000  0.5061180000000  0.5623390000000 1.0
C      1  0.5914630000000  0.5019680000000  0.4964490000000 1.0
C      1  0.4385180000000  0.5181180000000  0.4824740000000 1.0
C      1  0.5063110000000  0.4960490000000  0.4952550000000 1.0
END
