TITL C-2441158-471-1134 0.132513948632221 125000 -24984.8059907761 0 0 184 (C1) n - 1
REM
REM in /home/bkarasulu/work/CARBON/AIRSS/Generating-Clusters/ReaxFF-fromJPCA2015/Units_Real/with-SteepDescent/Higher-Symm
REM
REM
REM
REM
REM
REM ./C.cell (1df0a924f5614ab8850e4351716899ee)
REM
REM compiler GCC version 9.2.1 20190827 (Red Hat 9.2.1-1)
REM options -cpp -mtune=generic -march=x86-64 -g -O0 -fpre-include=/usr/include/finclude/math-vector-fortran.h
REM seed -922595845 -173739369 -165694866 -3996058 745977405 -106529316 1145023550 -305312135 766416254 -735124477 -1462090584 -1656914976 693488 -2033573621 892904557 -1047323227 337153514 930879687 -1011465463 -192697913 175058579 934370965 305885180 1908768028 1645145876 1166612530 -1311462853 384238536 -1600806306 2002878606 -1853748463 649046850 -464028031
REM
CELL 1.54180   50.00000   50.00000   50.00000   90.00000   90.00000   90.00000
LATT -1
SFAC C  
C      1  0.4154280000000  0.5583650000000  0.5284790000000 1.0
C      1  0.4537820000000  0.4433670000000  0.5714210000000 1.0
C      1  0.5025290000000  0.5618990000000  0.5903620000000 1.0
C      1  0.5568270000000  0.4383640000000  0.5686830000000 1.0
C      1  0.5809100000000  0.5603810000000  0.5239160000000 1.0
C      1  0.5802620000000  0.4400310000000  0.4714970000000 1.0
C      1  0.5482210000000  0.5609290000000  0.4287500000000 1.0
C      1  0.4959220000000  0.4384450000000  0.4146570000000 1.0
C      1  0.4462570000000  0.5601710000000  0.4319780000000 1.0
C      1  0.4144620000000  0.4382940000000  0.4944600000000 1.0
C      1  0.4901730000000  0.5115060000000  0.4726250000000 1.0
C      1  0.4850830000000  0.4853060000000  0.4836700000000 1.0
C      1  0.4810790000000  0.5293070000000  0.4894260000000 1.0
C      1  0.4775260000000  0.4898980000000  0.5127830000000 1.0
C      1  0.4954610000000  0.5153570000000  0.5269600000000 1.0
C      1  0.4991810000000  0.4706320000000  0.5191690000000 1.0
C      1  0.5236910000000  0.5107030000000  0.5217430000000 1.0
C      1  0.5299160000000  0.4881230000000  0.5080200000000 1.0
C      1  0.5187130000000  0.5101170000000  0.4751440000000 1.0
C      1  0.5167810000000  0.4842480000000  0.4828140000000 1.0
C      1  0.5938940000000  0.5470040000000  0.4786410000000 1.0
C      1  0.5639590000000  0.4517450000000  0.4269040000000 1.0
C      1  0.5091210000000  0.5487180000000  0.4013140000000 1.0
C      1  0.4480800000000  0.4540770000000  0.4180930000000 1.0
C      1  0.4096490000000  0.5470350000000  0.4586520000000 1.0
C      1  0.4086540000000  0.4461910000000  0.5209880000000 1.0
C      1  0.4356040000000  0.5448680000000  0.5726230000000 1.0
C      1  0.4923130000000  0.4523440000000  0.5965720000000 1.0
C      1  0.5513100000000  0.5483620000000  0.5837060000000 1.0
C      1  0.5853390000000  0.4504460000000  0.5410480000000 1.0
C      1  0.5358010000000  0.4798190000000  0.3985590000000 1.0
C      1  0.4690300000000  0.5222600000000  0.3981110000000 1.0
C      1  0.4136260000000  0.4839930000000  0.4325180000000 1.0
C      1  0.3947890000000  0.5172620000000  0.4954240000000 1.0
C      1  0.4124180000000  0.4787200000000  0.5570430000000 1.0
C      1  0.4764200000000  0.5170720000000  0.5965390000000 1.0
C      1  0.5327120000000  0.4763540000000  0.6023000000000 1.0
C      1  0.5825480000000  0.5209180000000  0.5653150000000 1.0
C      1  0.6068190000000  0.4778400000000  0.4999700000000 1.0
C      1  0.5858630000000  0.5214600000000  0.4404970000000 1.0
C      1  0.5637810000000  0.5841800000000  0.5180710000000 1.0
C      1  0.5626900000000  0.4169560000000  0.4780830000000 1.0
C      1  0.5368290000000  0.5837450000000  0.4451300000000 1.0
C      1  0.4965200000000  0.4171090000000  0.4354280000000 1.0
C      1  0.4564890000000  0.5825890000000  0.4476130000000 1.0
C      1  0.4329270000000  0.4169990000000  0.4886940000000 1.0
C      1  0.4351090000000  0.5820800000000  0.5221850000000 1.0
C      1  0.4639740000000  0.4180010000000  0.5587450000000 1.0
C      1  0.5005900000000  0.5816920000000  0.5648680000000 1.0
C      1  0.5443360000000  0.4157490000000  0.5531910000000 1.0
C      1  0.4871370000000  0.5643630000000  0.4123480000000 1.0
C      1  0.4362990000000  0.4472090000000  0.4450740000000 1.0
C      1  0.4171920000000  0.5579500000000  0.4863190000000 1.0
C      1  0.4228110000000  0.4333750000000  0.5429380000000 1.0
C      1  0.4591440000000  0.5622590000000  0.5771300000000 1.0
C      1  0.5149460000000  0.4431540000000  0.5822300000000 1.0
C      1  0.5617740000000  0.5654360000000  0.5621550000000 1.0
C      1  0.5847040000000  0.4356710000000  0.5158830000000 1.0
C      1  0.5769000000000  0.5639540000000  0.4622080000000 1.0
C      1  0.5404250000000  0.4347550000000  0.4230140000000 1.0
C      1  0.4843770000000  0.5830980000000  0.4364380000000 1.0
C      1  0.4502840000000  0.4212630000000  0.4640540000000 1.0
C      1  0.4335060000000  0.5845470000000  0.4938080000000 1.0
C      1  0.4416490000000  0.4108440000000  0.5415030000000 1.0
C      1  0.4706980000000  0.5841430000000  0.5612290000000 1.0
C      1  0.5159650000000  0.4154840000000  0.5619790000000 1.0
C      1  0.5497090000000  0.5866210000000  0.5435770000000 1.0
C      1  0.5667640000000  0.4143740000000  0.5068310000000 1.0
C      1  0.5568490000000  0.5850300000000  0.4663380000000 1.0
C      1  0.5260850000000  0.4166750000000  0.4406070000000 1.0
C      1  0.5471610000000  0.4995310000000  0.5972530000000 1.0
C      1  0.5905670000000  0.4955440000000  0.5562870000000 1.0
C      1  0.6066750000000  0.4994760000000  0.4835040000000 1.0
C      1  0.5759180000000  0.4995290000000  0.4269880000000 1.0
C      1  0.5191200000000  0.5007330000000  0.3946350000000 1.0
C      1  0.4528510000000  0.5004230000000  0.4024200000000 1.0
C      1  0.4060590000000  0.5097060000000  0.4415090000000 1.0
C      1  0.3948300000000  0.4890500000000  0.5006080000000 1.0
C      1  0.4148050000000  0.5039730000000  0.5691450000000 1.0
C      1  0.4776330000000  0.4911590000000  0.6088250000000 1.0
C      1  0.5527510000000  0.4723390000000  0.5139080000000 1.0
C      1  0.5420160000000  0.5260190000000  0.4782430000000 1.0
C      1  0.5192760000000  0.4701890000000  0.4353840000000 1.0
C      1  0.4776950000000  0.5255020000000  0.4477150000000 1.0
C      1  0.4503440000000  0.4711440000000  0.4608600000000 1.0
C      1  0.4391450000000  0.5372120000000  0.4931730000000 1.0
C      1  0.4550520000000  0.4733670000000  0.5216170000000 1.0
C      1  0.4831220000000  0.5357320000000  0.5444170000000 1.0
C      1  0.5173850000000  0.4668910000000  0.5631110000000 1.0
C      1  0.5417710000000  0.5250100000000  0.5369360000000 1.0
C      1  0.5045910000000  0.6064620000000  0.4753820000000 1.0
C      1  0.4892700000000  0.3933970000000  0.4784520000000 1.0
C      1  0.4778740000000  0.6056900000000  0.4885220000000 1.0
C      1  0.4766230000000  0.3886090000000  0.5047220000000 1.0
C      1  0.4814620000000  0.6065880000000  0.5170970000000 1.0
C      1  0.4959440000000  0.3896330000000  0.5264960000000 1.0
C      1  0.5109420000000  0.6079420000000  0.5224820000000 1.0
C      1  0.5228320000000  0.3920670000000  0.5130610000000 1.0
C      1  0.5251820000000  0.6076110000000  0.4963780000000 1.0
C      1  0.5186410000000  0.3944120000000  0.4843310000000 1.0
C      1  0.5640970000000  0.4783230000000  0.4132980000000 1.0
C      1  0.5002570000000  0.5220310000000  0.3911800000000 1.0
C      1  0.4360990000000  0.4792740000000  0.4107090000000 1.0
C      1  0.3962680000000  0.5223570000000  0.4648620000000 1.0
C      1  0.4040870000000  0.4763240000000  0.5260720000000 1.0
C      1  0.4380490000000  0.5162850000000  0.5800320000000 1.0
C      1  0.5015340000000  0.4752580000000  0.6099690000000 1.0
C      1  0.5628540000000  0.5218990000000  0.5889550000000 1.0
C      1  0.5976530000000  0.4775860000000  0.5333680000000 1.0
C      1  0.6019310000000  0.5218800000000  0.4667340000000 1.0
C      1  0.4607180000000  0.5422040000000  0.5274980000000 1.0
C      1  0.4980910000000  0.4579300000000  0.5447590000000 1.0
C      1  0.5293300000000  0.5500020000000  0.5397410000000 1.0
C      1  0.5415030000000  0.4470530000000  0.5225680000000 1.0
C      1  0.5416800000000  0.5526850000000  0.4917080000000 1.0
C      1  0.5313020000000  0.4595240000000  0.4729800000000 1.0
C      1  0.5115460000000  0.5472820000000  0.4546380000000 1.0
C      1  0.4796690000000  0.4604120000000  0.4686020000000 1.0
C      1  0.4637750000000  0.5512340000000  0.4845380000000 1.0
C      1  0.4554130000000  0.4485470000000  0.5073720000000 1.0
C      1  0.4346500000000  0.4855350000000  0.4859490000000 1.0
C      1  0.4420400000000  0.5175450000000  0.5337680000000 1.0
C      1  0.4753130000000  0.4849620000000  0.5619990000000 1.0
C      1  0.5181060000000  0.5163660000000  0.5728040000000 1.0
C      1  0.5425700000000  0.4782350000000  0.5551500000000 1.0
C      1  0.5743070000000  0.5136390000000  0.5050350000000 1.0
C      1  0.5565910000000  0.4849180000000  0.4624150000000 1.0
C      1  0.5228790000000  0.5204190000000  0.4362680000000 1.0
C      1  0.4808850000000  0.4858770000000  0.4299410000000 1.0
C      1  0.4482830000000  0.5174280000000  0.4511270000000 1.0
C      1  0.4701930000000  0.4646460000000  0.5835790000000 1.0
C      1  0.5230180000000  0.5418450000000  0.5857330000000 1.0
C      1  0.5675890000000  0.4625380000000  0.5585760000000 1.0
C      1  0.5879930000000  0.5393860000000  0.5055240000000 1.0
C      1  0.5739740000000  0.4608520000000  0.4523820000000 1.0
C      1  0.5329860000000  0.5406060000000  0.4154030000000 1.0
C      1  0.4765280000000  0.4595260000000  0.4151650000000 1.0
C      1  0.4297210000000  0.5398130000000  0.4407550000000 1.0
C      1  0.4069840000000  0.4674330000000  0.4808950000000 1.0
C      1  0.4222350000000  0.5376670000000  0.5475680000000 1.0
C      1  0.5402700000000  0.5066820000000  0.5578100000000 1.0
C      1  0.5733490000000  0.4900770000000  0.5201360000000 1.0
C      1  0.5640930000000  0.5081650000000  0.4792370000000 1.0
C      1  0.5359460000000  0.4928960000000  0.4425570000000 1.0
C      1  0.4952810000000  0.5107510000000  0.4293070000000 1.0
C      1  0.4571090000000  0.4908440000000  0.4441230000000 1.0
C      1  0.4384750000000  0.5128600000000  0.4790030000000 1.0
C      1  0.4332700000000  0.4905270000000  0.5166260000000 1.0
C      1  0.4540400000000  0.5042480000000  0.5578950000000 1.0
C      1  0.4921690000000  0.5056900000000  0.5736790000000 1.0
C      1  0.5083370000000  0.4538170000000  0.4561270000000 1.0
C      1  0.4835180000000  0.5527840000000  0.4553450000000 1.0
C      1  0.4652930000000  0.4403390000000  0.4816650000000 1.0
C      1  0.4696480000000  0.5643300000000  0.5103610000000 1.0
C      1  0.4704700000000  0.4273500000000  0.5192610000000 1.0
C      1  0.5028730000000  0.5551710000000  0.5498920000000 1.0
C      1  0.5156740000000  0.4357740000000  0.5352370000000 1.0
C      1  0.5292870000000  0.5625220000000  0.5160680000000 1.0
C      1  0.5306230000000  0.4420540000000  0.4957030000000 1.0
C      1  0.5193750000000  0.5624150000000  0.4766260000000 1.0
C      1  0.5374180000000  0.4074030000000  0.4660160000000 1.0
C      1  0.5099290000000  0.5941220000000  0.4496600000000 1.0
C      1  0.4779820000000  0.4074760000000  0.4557160000000 1.0
C      1  0.4541410000000  0.5929990000000  0.4751070000000 1.0
C      1  0.4507770000000  0.4038000000000  0.5115770000000 1.0
C      1  0.4610900000000  0.5939150000000  0.5354340000000 1.0
C      1  0.4900320000000  0.4048140000000  0.5515200000000 1.0
C      1  0.5225660000000  0.5959790000000  0.5458130000000 1.0
C      1  0.5465010000000  0.4042870000000  0.5261840000000 1.0
C      1  0.5514810000000  0.5951380000000  0.4933910000000 1.0
C      1  0.4009060000000  0.5439990000000  0.5079580000000 1.0
C      1  0.4282260000000  0.4536990000000  0.5630450000000 1.0
C      1  0.4779030000000  0.5479440000000  0.5947390000000 1.0
C      1  0.5411160000000  0.4498580000000  0.5913610000000 1.0
C      1  0.5806330000000  0.5483040000000  0.5503810000000 1.0
C      1  0.5952590000000  0.4516430000000  0.4941200000000 1.0
C      1  0.5719570000000  0.5480110000000  0.4393570000000 1.0
C      1  0.5220170000000  0.4516110000000  0.4067980000000 1.0
C      1  0.4636830000000  0.5488020000000  0.4112390000000 1.0
C      1  0.4114050000000  0.4626510000000  0.4519180000000 1.0
C      1  0.4979890000000  0.5356430000000  0.5059610000000 1.0
C      1  0.5045800000000  0.4504530000000  0.5012540000000 1.0
C      1  0.4976170000000  0.4280790000000  0.5124450000000 1.0
C      1  0.5019590000000  0.5665780000000  0.5040560000000 1.0
END
