TITL C-2441158-471-12 0.0215506845811711 125000 -18589.8867839235 0 0 124 (C1) n - 1
REM
REM in /home/bkarasulu/work/CARBON/AIRSS/Generating-Clusters/ReaxFF-fromJPCA2015/Units_Real/with-SteepDescent/Higher-Symm
REM
REM
REM
REM
REM
REM ./C.cell (1df0a924f5614ab8850e4351716899ee)
REM
REM compiler GCC version 9.2.1 20190827 (Red Hat 9.2.1-1)
REM options -cpp -mtune=generic -march=x86-64 -g -O0 -fpre-include=/usr/include/finclude/math-vector-fortran.h
REM seed 737644380 -1570492729 -52814277 1187239354 1476017453 -797345710 700859119 -92601309 -2000041710 986841282 -551377931 -1525654311 2049613631 -1376855887 1785018824 946474396 380392020 2136254510 -1910675197 -1601904130 -1749670805 130881841 1489838644 -1487170100 1669548535 -1595881516 573503969 -1534071686 -669664287 1169330006 -1491369728 -1301223579 -2083515979
REM
CELL 1.54180   50.00000   50.00000   50.00000   90.00000   90.00000   90.00000
LATT -1
SFAC C  
C      1  0.4904620000000  0.4629560000000  0.5267580000000 1.0
C      1  0.4638710000000  0.5214970000000  0.5001360000000 1.0
C      1  0.5239720000000  0.4935830000000  0.4551730000000 1.0
C      1  0.5030720000000  0.5468770000000  0.4753750000000 1.0
C      1  0.5026280000000  0.4488260000000  0.4803350000000 1.0
C      1  0.4985180000000  0.5405860000000  0.5215540000000 1.0
C      1  0.4536820000000  0.4694080000000  0.4914520000000 1.0
C      1  0.5348510000000  0.5203850000000  0.5037880000000 1.0
C      1  0.5495720000000  0.4786170000000  0.4971260000000 1.0
C      1  0.5304540000000  0.4928310000000  0.5483340000000 1.0
C      1  0.4796710000000  0.5053120000000  0.5462740000000 1.0
C      1  0.4736870000000  0.5096240000000  0.4566490000000 1.0
C      1  0.5010430000000  0.5185490000000  0.4627430000000 1.0
C      1  0.4540080000000  0.5081300000000  0.5326950000000 1.0
C      1  0.5313090000000  0.4544760000000  0.5003780000000 1.0
C      1  0.4967430000000  0.4822020000000  0.5480540000000 1.0
C      1  0.5035770000000  0.4740280000000  0.4661070000000 1.0
C      1  0.4935440000000  0.5334860000000  0.5497900000000 1.0
C      1  0.4559270000000  0.5019180000000  0.4781270000000 1.0
C      1  0.5459570000000  0.5019600000000  0.5226880000000 1.0
C      1  0.5475660000000  0.4923510000000  0.4717770000000 1.0
C      1  0.5228290000000  0.5466450000000  0.5055700000000 1.0
C      1  0.4761220000000  0.5481090000000  0.4886220000000 1.0
C      1  0.4769950000000  0.4534140000000  0.5026390000000 1.0
C      1  0.5393960000000  0.4952910000000  0.4244510000000 1.0
C      1  0.4830830000000  0.4142050000000  0.5375230000000 1.0
C      1  0.4153080000000  0.5357230000000  0.4838660000000 1.0
C      1  0.5339020000000  0.5118820000000  0.5742810000000 1.0
C      1  0.4630650000000  0.4837190000000  0.5868090000000 1.0
C      1  0.4648880000000  0.5148920000000  0.4275870000000 1.0
C      1  0.4864860000000  0.5862750000000  0.4603690000000 1.0
C      1  0.5041750000000  0.4227660000000  0.4601100000000 1.0
C      1  0.5173830000000  0.5859200000000  0.5370690000000 1.0
C      1  0.4277130000000  0.4665210000000  0.5114390000000 1.0
C      1  0.5856250000000  0.5377810000000  0.5178050000000 1.0
C      1  0.5777210000000  0.4600420000000  0.4957190000000 1.0
C      1  0.5385100000000  0.4133430000000  0.4854650000000 1.0
C      1  0.4826540000000  0.5374030000000  0.4142950000000 1.0
C      1  0.4268680000000  0.4881870000000  0.5339000000000 1.0
C      1  0.5367910000000  0.5767550000000  0.5149930000000 1.0
C      1  0.4597400000000  0.5734480000000  0.4957160000000 1.0
C      1  0.4651470000000  0.4236620000000  0.5140740000000 1.0
C      1  0.4853320000000  0.4650940000000  0.5768610000000 1.0
C      1  0.5038500000000  0.4560150000000  0.4178080000000 1.0
C      1  0.5129830000000  0.5346910000000  0.5758540000000 1.0
C      1  0.4263400000000  0.5138050000000  0.4657790000000 1.0
C      1  0.5756640000000  0.5147260000000  0.5349990000000 1.0
C      1  0.5752020000000  0.4968820000000  0.4597170000000 1.0
C      1  0.4154120000000  0.4860710000000  0.4663160000000 1.0
C      1  0.4964400000000  0.4817440000000  0.4073460000000 1.0
C      1  0.4689490000000  0.4090190000000  0.4878750000000 1.0
C      1  0.4067900000000  0.5019870000000  0.5156130000000 1.0
C      1  0.5903800000000  0.4885550000000  0.5312830000000 1.0
C      1  0.5918740000000  0.5050590000000  0.4832800000000 1.0
C      1  0.4980410000000  0.5156940000000  0.5947880000000 1.0
C      1  0.5135530000000  0.4666840000000  0.5872580000000 1.0
C      1  0.5110940000000  0.5311830000000  0.4119750000000 1.0
C      1  0.4834620000000  0.5926440000000  0.5024900000000 1.0
C      1  0.5182170000000  0.4058820000000  0.5032110000000 1.0
C      1  0.5332040000000  0.5863980000000  0.4865670000000 1.0
C      1  0.4078830000000  0.4821680000000  0.4945920000000 1.0
C      1  0.4971240000000  0.4033840000000  0.4830390000000 1.0
C      1  0.4679010000000  0.4875180000000  0.4144350000000 1.0
C      1  0.4112620000000  0.5306630000000  0.5118140000000 1.0
C      1  0.5855690000000  0.5336920000000  0.4888890000000 1.0
C      1  0.5949720000000  0.4842400000000  0.5027550000000 1.0
C      1  0.4892960000000  0.5890100000000  0.5304430000000 1.0
C      1  0.5038650000000  0.5938540000000  0.4813810000000 1.0
C      1  0.5115670000000  0.4149380000000  0.5331370000000 1.0
C      1  0.4695270000000  0.5119360000000  0.5894270000000 1.0
C      1  0.5166660000000  0.5025350000000  0.4070810000000 1.0
C      1  0.5178560000000  0.4948630000000  0.5941310000000 1.0
C      1  0.4418380000000  0.5384470000000  0.4219600000000 1.0
C      1  0.5319980000000  0.4259050000000  0.4457000000000 1.0
C      1  0.4239530000000  0.4460410000000  0.5346370000000 1.0
C      1  0.4428600000000  0.4640440000000  0.5775050000000 1.0
C      1  0.5546680000000  0.5348740000000  0.5774280000000 1.0
C      1  0.5524100000000  0.4672840000000  0.4268520000000 1.0
C      1  0.5369520000000  0.5774800000000  0.5575690000000 1.0
C      1  0.4620770000000  0.4215600000000  0.5569200000000 1.0
C      1  0.4644790000000  0.5781320000000  0.4450820000000 1.0
C      1  0.4236260000000  0.5572570000000  0.4645960000000 1.0
C      1  0.5736030000000  0.4471540000000  0.4674640000000 1.0
C      1  0.5793730000000  0.5569090000000  0.5391760000000 1.0
C      1  0.4420840000000  0.4238030000000  0.5354990000000 1.0
C      1  0.5311850000000  0.4470140000000  0.4259810000000 1.0
C      1  0.4229980000000  0.5373640000000  0.4430830000000 1.0
C      1  0.4457890000000  0.5756090000000  0.4674010000000 1.0
C      1  0.5582800000000  0.5768000000000  0.5375580000000 1.0
C      1  0.5546250000000  0.4239420000000  0.4642650000000 1.0
C      1  0.5350270000000  0.5556470000000  0.5770700000000 1.0
C      1  0.4634260000000  0.5576890000000  0.4215270000000 1.0
C      1  0.4633540000000  0.4431110000000  0.5764640000000 1.0
C      1  0.4243500000000  0.4662430000000  0.5549230000000 1.0
C      1  0.5728610000000  0.4663460000000  0.4467870000000 1.0
C      1  0.5764450000000  0.5351460000000  0.5587690000000 1.0
C      1  0.4552160000000  0.5335790000000  0.5741300000000 1.0
C      1  0.5219510000000  0.5604400000000  0.4548280000000 1.0
C      1  0.5721490000000  0.4486520000000  0.5238780000000 1.0
C      1  0.4542110000000  0.4677620000000  0.4295850000000 1.0
C      1  0.5498910000000  0.5249320000000  0.4293130000000 1.0
C      1  0.5492110000000  0.4727880000000  0.5594970000000 1.0
C      1  0.5302360000000  0.4319510000000  0.5473280000000 1.0
C      1  0.4661470000000  0.5738940000000  0.5430760000000 1.0
C      1  0.4767830000000  0.4259890000000  0.4467250000000 1.0
C      1  0.5689780000000  0.5480540000000  0.4690820000000 1.0
C      1  0.4419440000000  0.4505440000000  0.4715290000000 1.0
C      1  0.4278650000000  0.5466420000000  0.5310750000000 1.0
C      1  0.4456500000000  0.5680270000000  0.5238980000000 1.0
C      1  0.5322380000000  0.4517270000000  0.5702900000000 1.0
C      1  0.5696000000000  0.5272110000000  0.4494550000000 1.0
C      1  0.4559360000000  0.4243570000000  0.4667090000000 1.0
C      1  0.5455520000000  0.4379860000000  0.5232310000000 1.0
C      1  0.5464320000000  0.5687810000000  0.4682270000000 1.0
C      1  0.5293510000000  0.5454000000000  0.4304950000000 1.0
C      1  0.4729630000000  0.5526700000000  0.5617830000000 1.0
C      1  0.4772470000000  0.4484600000000  0.4287440000000 1.0
C      1  0.5753030000000  0.4679580000000  0.5454350000000 1.0
C      1  0.4320270000000  0.4673740000000  0.4501450000000 1.0
C      1  0.4395680000000  0.5274760000000  0.5502000000000 1.0
C      1  0.4893580000000  0.5181590000000  0.5088950000000 1.0
C      1  0.5072580000000  0.5099950000000  0.4916530000000 1.0
C      1  0.5131600000000  0.4727650000000  0.5133720000000 1.0
C      1  0.5015550000000  0.4854450000000  0.4929410000000 1.0
END
