TITL C-2441166-8118-985 0.0538939322638386 125000 -19463.3857324096 0 0 137 (C1) n - 1
REM
REM in /home/bkarasulu/work/CARBON/AIRSS/Generating-Clusters/ReaxFF-fromJPCA2015/Units_Real/with-SteepDescent/Higher-Symm
REM
REM
REM
REM
REM
REM ./C.cell (1df0a924f5614ab8850e4351716899ee)
REM
REM compiler GCC version 9.2.1 20190827 (Red Hat 9.2.1-1)
REM options -cpp -mtune=generic -march=x86-64 -g -O0 -fpre-include=/usr/include/finclude/math-vector-fortran.h
REM seed -1213840879 1697827514 1115645133 1050116156 756094330 2054359810 243623572 1192388493 -1272138567 1628104682 1434469489 -962723623 1528828820 1169874373 -1435617694 -681876478 895094215 -1172686835 320526223 428607557 -1084167838 -1575379398 -40682125 2138091104 1041854627 1411787023 -1044179424 -946617292 -1353664589 1277545144 -928404418 -148169298 863590834
REM
CELL 1.54180   50.00000   50.00000   50.00000   90.00000   90.00000   90.00000
LATT -1
SFAC C  
C      1  0.5124390000000  0.5330490000000  0.4494750000000 1.0
C      1  0.4525010000000  0.5076270000000  0.5274860000000 1.0
C      1  0.5321560000000  0.4504080000000  0.5112040000000 1.0
C      1  0.4872130000000  0.5312400000000  0.5523580000000 1.0
C      1  0.5085310000000  0.4692610000000  0.5524210000000 1.0
C      1  0.4851170000000  0.4707890000000  0.4456340000000 1.0
C      1  0.5538950000000  0.5111590000000  0.4701400000000 1.0
C      1  0.4467770000000  0.4860060000000  0.4648190000000 1.0
C      1  0.5522020000000  0.4880410000000  0.5319330000000 1.0
C      1  0.4658030000000  0.4524640000000  0.4911500000000 1.0
C      1  0.5287740000000  0.5517660000000  0.4875010000000 1.0
C      1  0.4682820000000  0.5491100000000  0.5119060000000 1.0
C      1  0.4470310000000  0.5326000000000  0.5169030000000 1.0
C      1  0.5296440000000  0.5098620000000  0.4503220000000 1.0
C      1  0.5092860000000  0.4493470000000  0.5280530000000 1.0
C      1  0.5517320000000  0.5357540000000  0.4850580000000 1.0
C      1  0.5527840000000  0.4692440000000  0.5094880000000 1.0
C      1  0.4531410000000  0.4775250000000  0.4908360000000 1.0
C      1  0.4666100000000  0.5091480000000  0.5522630000000 1.0
C      1  0.4698010000000  0.4926120000000  0.4505390000000 1.0
C      1  0.5344540000000  0.4804050000000  0.5532390000000 1.0
C      1  0.4844570000000  0.4500470000000  0.4680110000000 1.0
C      1  0.4835460000000  0.5533780000000  0.5338090000000 1.0
C      1  0.5124820000000  0.5543220000000  0.4665750000000 1.0
C      1  0.4170430000000  0.5011570000000  0.5607720000000 1.0
C      1  0.5545550000000  0.4174840000000  0.4905110000000 1.0
C      1  0.4923780000000  0.5600960000000  0.4144710000000 1.0
C      1  0.5788300000000  0.4920870000000  0.4431800000000 1.0
C      1  0.4185070000000  0.5030550000000  0.4361010000000 1.0
C      1  0.5791720000000  0.5102990000000  0.5597110000000 1.0
C      1  0.4412810000000  0.4189420000000  0.5005070000000 1.0
C      1  0.5632500000000  0.5801170000000  0.5144280000000 1.0
C      1  0.4396420000000  0.5776840000000  0.5009700000000 1.0
C      1  0.5076120000000  0.5599890000000  0.5767700000000 1.0
C      1  0.4898240000000  0.4426530000000  0.5779410000000 1.0
C      1  0.4993730000000  0.4371390000000  0.4165560000000 1.0
C      1  0.5564540000000  0.4915980000000  0.4241910000000 1.0
C      1  0.4910850000000  0.4221150000000  0.5576540000000 1.0
C      1  0.4210520000000  0.5550970000000  0.4955590000000 1.0
C      1  0.4369810000000  0.4994630000000  0.5831210000000 1.0
C      1  0.4381740000000  0.5115660000000  0.4170270000000 1.0
C      1  0.5610960000000  0.5024240000000  0.5820000000000 1.0
C      1  0.4980760000000  0.4176050000000  0.4381510000000 1.0
C      1  0.4980430000000  0.5811280000000  0.5587560000000 1.0
C      1  0.4870640000000  0.5761130000000  0.4370990000000 1.0
C      1  0.5847360000000  0.5623940000000  0.5058620000000 1.0
C      1  0.5824610000000  0.4349340000000  0.4967430000000 1.0
C      1  0.4214060000000  0.4381570000000  0.5121500000000 1.0
C      1  0.4876410000000  0.5173620000000  0.4002920000000 1.0
C      1  0.4072660000000  0.4933080000000  0.5142890000000 1.0
C      1  0.5311520000000  0.3994090000000  0.4984680000000 1.0
C      1  0.4917780000000  0.5199720000000  0.6013010000000 1.0
C      1  0.5085940000000  0.4820210000000  0.6008130000000 1.0
C      1  0.5063690000000  0.4805090000000  0.4004640000000 1.0
C      1  0.6016730000000  0.5092530000000  0.4833550000000 1.0
C      1  0.3986160000000  0.5037420000000  0.4757710000000 1.0
C      1  0.6009080000000  0.4919470000000  0.5212260000000 1.0
C      1  0.4903370000000  0.4010930000000  0.5051170000000 1.0
C      1  0.5288220000000  0.5989270000000  0.4915570000000 1.0
C      1  0.4866760000000  0.5990130000000  0.4912630000000 1.0
C      1  0.4070220000000  0.5182250000000  0.4985190000000 1.0
C      1  0.5159930000000  0.5083730000000  0.4013220000000 1.0
C      1  0.5135770000000  0.4014980000000  0.5209600000000 1.0
C      1  0.6021280000000  0.5188150000000  0.5111710000000 1.0
C      1  0.6030440000000  0.4816010000000  0.4936550000000 1.0
C      1  0.4058040000000  0.4777360000000  0.4892070000000 1.0
C      1  0.4811870000000  0.4920430000000  0.6018170000000 1.0
C      1  0.4780690000000  0.4903530000000  0.4033070000000 1.0
C      1  0.5183540000000  0.5093510000000  0.6012730000000 1.0
C      1  0.5083230000000  0.3995740000000  0.4808280000000 1.0
C      1  0.5088000000000  0.5994260000000  0.5126830000000 1.0
C      1  0.5082440000000  0.6001190000000  0.4711380000000 1.0
C      1  0.4651010000000  0.4110290000000  0.5158650000000 1.0
C      1  0.5202840000000  0.4577140000000  0.4116680000000 1.0
C      1  0.4101040000000  0.5198260000000  0.4579120000000 1.0
C      1  0.5448170000000  0.4283910000000  0.4645560000000 1.0
C      1  0.4621020000000  0.5861940000000  0.4819250000000 1.0
C      1  0.5446680000000  0.5753200000000  0.5367910000000 1.0
C      1  0.4632340000000  0.4547090000000  0.5757660000000 1.0
C      1  0.5342080000000  0.5467330000000  0.5752870000000 1.0
C      1  0.4742760000000  0.5400440000000  0.4092010000000 1.0
C      1  0.5755450000000  0.5363920000000  0.5472170000000 1.0
C      1  0.4151480000000  0.4805830000000  0.5395290000000 1.0
C      1  0.5797410000000  0.4649670000000  0.4554090000000 1.0
C      1  0.5187140000000  0.4166580000000  0.4595800000000 1.0
C      1  0.4269820000000  0.4540700000000  0.5369630000000 1.0
C      1  0.4512410000000  0.5365100000000  0.4255400000000 1.0
C      1  0.4658050000000  0.4216720000000  0.5428950000000 1.0
C      1  0.4631150000000  0.5739260000000  0.4553110000000 1.0
C      1  0.5177310000000  0.5875860000000  0.5381280000000 1.0
C      1  0.5925590000000  0.4575550000000  0.4805640000000 1.0
C      1  0.5908220000000  0.5409040000000  0.5235440000000 1.0
C      1  0.4258720000000  0.5423170000000  0.4699810000000 1.0
C      1  0.5397440000000  0.5221020000000  0.5889100000000 1.0
C      1  0.5450220000000  0.4645180000000  0.4256130000000 1.0
C      1  0.4578090000000  0.4797580000000  0.5895900000000 1.0
C      1  0.5154660000000  0.5488160000000  0.4258590000000 1.0
C      1  0.4268170000000  0.5286080000000  0.5550960000000 1.0
C      1  0.5498560000000  0.4297050000000  0.5212680000000 1.0
C      1  0.4863360000000  0.5405580000000  0.5814200000000 1.0
C      1  0.5130120000000  0.4606190000000  0.5814010000000 1.0
C      1  0.4743770000000  0.4498340000000  0.4262800000000 1.0
C      1  0.5832170000000  0.5134560000000  0.4616630000000 1.0
C      1  0.4331940000000  0.4779560000000  0.4400590000000 1.0
C      1  0.5811810000000  0.4881510000000  0.5417030000000 1.0
C      1  0.4435770000000  0.4364320000000  0.4771710000000 1.0
C      1  0.5526990000000  0.5804660000000  0.4864160000000 1.0
C      1  0.4454310000000  0.5754500000000  0.5303900000000 1.0
C      1  0.4284540000000  0.5503920000000  0.5305330000000 1.0
C      1  0.5370630000000  0.5136570000000  0.4213670000000 1.0
C      1  0.5143340000000  0.4216460000000  0.5397560000000 1.0
C      1  0.5710890000000  0.5569970000000  0.4806110000000 1.0
C      1  0.5731310000000  0.4469680000000  0.5204410000000 1.0
C      1  0.4183990000000  0.4510640000000  0.4860060000000 1.0
C      1  0.4495960000000  0.5241510000000  0.5725770000000 1.0
C      1  0.4521700000000  0.4840560000000  0.4166290000000 1.0
C      1  0.5467720000000  0.4785080000000  0.5771370000000 1.0
C      1  0.4729160000000  0.4298490000000  0.4483910000000 1.0
C      1  0.4704360000000  0.5760680000000  0.5465290000000 1.0
C      1  0.5105430000000  0.5782730000000  0.4528090000000 1.0
C      1  0.4856750000000  0.5423620000000  0.4920360000000 1.0
C      1  0.5094750000000  0.4632330000000  0.4824880000000 1.0
C      1  0.5108480000000  0.5438490000000  0.5067650000000 1.0
C      1  0.5046810000000  0.5117620000000  0.5416870000000 1.0
C      1  0.5435560000000  0.5074200000000  0.5119860000000 1.0
C      1  0.4924970000000  0.4604130000000  0.5057340000000 1.0
C      1  0.4886180000000  0.5067250000000  0.4637250000000 1.0
C      1  0.5106320000000  0.4852150000000  0.4619970000000 1.0
C      1  0.4880280000000  0.4890100000000  0.5446260000000 1.0
C      1  0.4782640000000  0.5149330000000  0.4887090000000 1.0
C      1  0.5478980000000  0.4903990000000  0.4899330000000 1.0
C      1  0.4697810000000  0.4942680000000  0.5083610000000 1.0
C      1  0.4456970000000  0.5519890000000  0.4495710000000 1.0
C      1  0.5570570000000  0.4488530000000  0.4474770000000 1.0
C      1  0.5526390000000  0.5535530000000  0.5539570000000 1.0
C      1  0.4487170000000  0.4433060000000  0.5530040000000 1.0
C      1  0.5183240000000  0.5192480000000  0.5183830000000 1.0
END
