TITL C-2441167-4473-1075 0.000462490019296772 125000 -7154.30020501006 0 0 49 (C1) n - 1
REM
REM in /home/bkarasulu/work/CARBON/AIRSS/Generating-Clusters/ReaxFF-fromJPCA2015/Units_Real/with-SteepDescent/Higher-Symm
REM
REM
REM
REM
REM
REM ./C.cell (1df0a924f5614ab8850e4351716899ee)
REM
REM compiler GCC version 9.2.1 20190827 (Red Hat 9.2.1-1)
REM options -cpp -mtune=generic -march=x86-64 -g -O0 -fpre-include=/usr/include/finclude/math-vector-fortran.h
REM seed -1579511433 511875605 -263315523 -1361612749 -208455294 855215576 -820894029 1342215861 -516683002 2078709663 -208855946 1967858367 -461183251 -2102873075 1904038647 366578555 669335983 -78356320 -1197509410 -145536757 -1373440293 1149471209 -26648618 1647052713 2014215109 559175422 -2041068357 -1782365465 -604018948 411768764 592300612 -515111763 -502628327
REM
CELL 1.54180   50.00000   50.00000   50.00000   90.00000   90.00000   90.00000
LATT -1
SFAC C  
C      1  0.5873910000000  0.5257390000000  0.5088300000000 1.0
C      1  0.5745660000000  0.4724220000000  0.4896390000000 1.0
C      1  0.5867860000000  0.5200050000000  0.4804870000000 1.0
C      1  0.5747590000000  0.4782790000000  0.5175660000000 1.0
C      1  0.5144600000000  0.4454460000000  0.5339920000000 1.0
C      1  0.5181900000000  0.5431260000000  0.4635200000000 1.0
C      1  0.5179520000000  0.4560390000000  0.4624940000000 1.0
C      1  0.5128850000000  0.5456790000000  0.5388710000000 1.0
C      1  0.4865080000000  0.4311150000000  0.4856450000000 1.0
C      1  0.4709710000000  0.5571140000000  0.5103250000000 1.0
C      1  0.4707790000000  0.4398170000000  0.5082860000000 1.0
C      1  0.4896110000000  0.5637850000000  0.4890550000000 1.0
C      1  0.5282820000000  0.4341540000000  0.5107930000000 1.0
C      1  0.5367600000000  0.5475030000000  0.4903430000000 1.0
C      1  0.5319510000000  0.4403570000000  0.4826130000000 1.0
C      1  0.5286190000000  0.5581020000000  0.5170660000000 1.0
C      1  0.4699810000000  0.5239160000000  0.4669830000000 1.0
C      1  0.4721370000000  0.4685160000000  0.5433630000000 1.0
C      1  0.4657060000000  0.5224280000000  0.5424680000000 1.0
C      1  0.4694910000000  0.4731410000000  0.4649700000000 1.0
C      1  0.4435970000000  0.5324110000000  0.5284990000000 1.0
C      1  0.4445600000000  0.4722250000000  0.4795630000000 1.0
C      1  0.4443020000000  0.5261960000000  0.4793820000000 1.0
C      1  0.4512080000000  0.4764310000000  0.5278240000000 1.0
C      1  0.5361040000000  0.4874870000000  0.5574330000000 1.0
C      1  0.5292850000000  0.5021810000000  0.4335380000000 1.0
C      1  0.5532130000000  0.4916260000000  0.4482440000000 1.0
C      1  0.5510840000000  0.5105410000000  0.5501040000000 1.0
C      1  0.5259610000000  0.4668760000000  0.5474780000000 1.0
C      1  0.5191630000000  0.5240740000000  0.4466660000000 1.0
C      1  0.5320650000000  0.4731400000000  0.4434160000000 1.0
C      1  0.5278880000000  0.5253590000000  0.5505690000000 1.0
C      1  0.4850630000000  0.4463620000000  0.5325720000000 1.0
C      1  0.4892220000000  0.5467290000000  0.4652140000000 1.0
C      1  0.4892220000000  0.4513180000000  0.4650730000000 1.0
C      1  0.4824290000000  0.5449960000000  0.5346070000000 1.0
C      1  0.5129350000000  0.4219180000000  0.4918010000000 1.0
C      1  0.5167150000000  0.5679780000000  0.4961000000000 1.0
C      1  0.5644410000000  0.5081720000000  0.5213820000000 1.0
C      1  0.5636320000000  0.4990870000000  0.4754600000000 1.0
C      1  0.4753360000000  0.4940940000000  0.5311550000000 1.0
C      1  0.4824550000000  0.4980160000000  0.4749280000000 1.0
C      1  0.4485360000000  0.4587390000000  0.5048210000000 1.0
C      1  0.4445240000000  0.5441390000000  0.5026770000000 1.0
C      1  0.5425730000000  0.5142850000000  0.4975800000000 1.0
C      1  0.5167820000000  0.5046980000000  0.5001880000000 1.0
C      1  0.4031550000000  0.4990960000000  0.4882990000000 1.0
C      1  0.4929180000000  0.4958270000000  0.5026010000000 1.0
C      1  0.4282910000000  0.4991660000000  0.4801260000000 1.0
END
