TITL C-2441164-471-1217 0.196852669449975 125000 -20022.0616028592 0 0 168 (C1) n - 1
REM
REM in /home/bkarasulu/work/CARBON/AIRSS/Generating-Clusters/ReaxFF-fromJPCA2015/Units_Real/with-SteepDescent/Higher-Symm
REM
REM
REM
REM
REM
REM ./C.cell (1df0a924f5614ab8850e4351716899ee)
REM
REM compiler GCC version 9.2.1 20190827 (Red Hat 9.2.1-1)
REM options -cpp -mtune=generic -march=x86-64 -g -O0 -fpre-include=/usr/include/finclude/math-vector-fortran.h
REM seed -1924975485 -259746266 778109869 -590455384 1409229620 -338470058 586233009 -500145031 -1236998617 -587722899 918962488 981911054 1153941346 456270945 563537160 -2112586062 -1098919249 -1844146965 -596791848 -1847255970 2143747887 1466392638 1561924403 262084622 -1207119491 1596613971 765066730 1937976497 -918142757 1993576852 -1230944960 -1996221555 1949106887
REM
CELL 1.54180   50.00000   50.00000   50.00000   90.00000   90.00000   90.00000
LATT -1
SFAC C  
C      1  0.5230330000000  0.4502700000000  0.5659830000000 1.0
C      1  0.4790650000000  0.4138840000000  0.4843950000000 1.0
C      1  0.5216890000000  0.4708320000000  0.4168730000000 1.0
C      1  0.4769170000000  0.5562520000000  0.4311990000000 1.0
C      1  0.5196900000000  0.5732620000000  0.5193710000000 1.0
C      1  0.4785840000000  0.5282440000000  0.5780010000000 1.0
C      1  0.5356640000000  0.4954420000000  0.4869730000000 1.0
C      1  0.4609940000000  0.5096650000000  0.4894210000000 1.0
C      1  0.5320620000000  0.5195270000000  0.4997080000000 1.0
C      1  0.4614370000000  0.5193110000000  0.5217660000000 1.0
C      1  0.5432660000000  0.4853210000000  0.5307220000000 1.0
C      1  0.4617850000000  0.4808060000000  0.5000740000000 1.0
C      1  0.5085660000000  0.5183080000000  0.5414190000000 1.0
C      1  0.4783650000000  0.4780000000000  0.5513990000000 1.0
C      1  0.5214210000000  0.4530810000000  0.5021090000000 1.0
C      1  0.4839770000000  0.4625920000000  0.4603780000000 1.0
C      1  0.5243040000000  0.5235630000000  0.4487830000000 1.0
C      1  0.4781180000000  0.5600560000000  0.4969270000000 1.0
C      1  0.4781870000000  0.5101020000000  0.4391410000000 1.0
C      1  0.5200640000000  0.5631090000000  0.4750270000000 1.0
C      1  0.4861670000000  0.5525660000000  0.5433820000000 1.0
C      1  0.5185120000000  0.4800600000000  0.5706500000000 1.0
C      1  0.4881920000000  0.4378280000000  0.5221220000000 1.0
C      1  0.5206120000000  0.4464270000000  0.4543050000000 1.0
C      1  0.4908340000000  0.5201550000000  0.4136840000000 1.0
C      1  0.4946800000000  0.5764130000000  0.4787320000000 1.0
C      1  0.5042840000000  0.5623320000000  0.5629880000000 1.0
C      1  0.4982690000000  0.4768270000000  0.5900210000000 1.0
C      1  0.5063320000000  0.4160000000000  0.5221820000000 1.0
C      1  0.4947280000000  0.4419210000000  0.4407600000000 1.0
C      1  0.4941740000000  0.4649190000000  0.5295740000000 1.0
C      1  0.5064480000000  0.4494940000000  0.4782780000000 1.0
C      1  0.4925010000000  0.4906550000000  0.4549080000000 1.0
C      1  0.5100850000000  0.5387430000000  0.4673570000000 1.0
C      1  0.4978940000000  0.5542500000000  0.5177310000000 1.0
C      1  0.4908130000000  0.5069930000000  0.5616010000000 1.0
C      1  0.4508670000000  0.5032930000000  0.4461610000000 1.0
C      1  0.5576080000000  0.5502480000000  0.4721770000000 1.0
C      1  0.4439960000000  0.5446440000000  0.5258650000000 1.0
C      1  0.5563720000000  0.4999980000000  0.5485570000000 1.0
C      1  0.4453940000000  0.4446640000000  0.5304520000000 1.0
C      1  0.5554330000000  0.4589260000000  0.4678650000000 1.0
C      1  0.4536490000000  0.5431420000000  0.4192540000000 1.0
C      1  0.5408190000000  0.5938300000000  0.4914690000000 1.0
C      1  0.4566640000000  0.5459290000000  0.5737910000000 1.0
C      1  0.5491140000000  0.4555420000000  0.5800400000000 1.0
C      1  0.4556720000000  0.4107530000000  0.5008720000000 1.0
C      1  0.5447540000000  0.4522790000000  0.4199820000000 1.0
C      1  0.5568440000000  0.5259780000000  0.5412620000000 1.0
C      1  0.4434160000000  0.4768070000000  0.5221660000000 1.0
C      1  0.5521990000000  0.4541850000000  0.4970700000000 1.0
C      1  0.4425930000000  0.4797440000000  0.4588730000000 1.0
C      1  0.5644130000000  0.5236370000000  0.4650310000000 1.0
C      1  0.4371360000000  0.5487420000000  0.4996160000000 1.0
C      1  0.5409540000000  0.4813090000000  0.5899860000000 1.0
C      1  0.4640040000000  0.4258120000000  0.5226880000000 1.0
C      1  0.5394250000000  0.4306870000000  0.4389450000000 1.0
C      1  0.4613400000000  0.5201440000000  0.4032600000000 1.0
C      1  0.5368430000000  0.5851430000000  0.4632700000000 1.0
C      1  0.4637030000000  0.5674960000000  0.5559970000000 1.0
C      1  0.4561630000000  0.4725030000000  0.4106670000000 1.0
C      1  0.5341650000000  0.5464040000000  0.4351200000000 1.0
C      1  0.4670830000000  0.5838050000000  0.5134550000000 1.0
C      1  0.5421420000000  0.5265080000000  0.5890740000000 1.0
C      1  0.4684970000000  0.4530800000000  0.5639180000000 1.0
C      1  0.5425520000000  0.4103140000000  0.4796070000000 1.0
C      1  0.5900590000000  0.5305030000000  0.5073610000000 1.0
C      1  0.4081530000000  0.5090610000000  0.5298770000000 1.0
C      1  0.5930340000000  0.4809880000000  0.5197240000000 1.0
C      1  0.4080520000000  0.4705610000000  0.4903600000000 1.0
C      1  0.5925600000000  0.4874990000000  0.4708250000000 1.0
C      1  0.4084140000000  0.5206700000000  0.4799720000000 1.0
C      1  0.5121270000000  0.4792100000000  0.4918390000000 1.0
C      1  0.4865580000000  0.5070320000000  0.4773800000000 1.0
C      1  0.5042160000000  0.5238400000000  0.4896310000000 1.0
C      1  0.4900210000000  0.5139070000000  0.5179480000000 1.0
C      1  0.5215970000000  0.4964020000000  0.5308040000000 1.0
C      1  0.4899470000000  0.4848700000000  0.5092230000000 1.0
C      1  0.5431510000000  0.5029780000000  0.4598610000000 1.0
C      1  0.4536030000000  0.5371780000000  0.4792060000000 1.0
C      1  0.5471100000000  0.5361910000000  0.5172110000000 1.0
C      1  0.4512630000000  0.4981760000000  0.5405330000000 1.0
C      1  0.5525260000000  0.4633340000000  0.5233730000000 1.0
C      1  0.4556420000000  0.4630090000000  0.4780580000000 1.0
C      1  0.5999190000000  0.5411330000000  0.4634240000000 1.0
C      1  0.4030740000000  0.5548520000000  0.5182130000000 1.0
C      1  0.5933030000000  0.5129450000000  0.5555470000000 1.0
C      1  0.4022780000000  0.4573260000000  0.5361480000000 1.0
C      1  0.5953620000000  0.4477590000000  0.4828470000000 1.0
C      1  0.4061920000000  0.4896850000000  0.4427780000000 1.0
C      1  0.5608740000000  0.4248650000000  0.5548910000000 1.0
C      1  0.4387530000000  0.4141730000000  0.4628560000000 1.0
C      1  0.5608030000000  0.4910200000000  0.4051850000000 1.0
C      1  0.4376490000000  0.5751950000000  0.4464270000000 1.0
C      1  0.5578640000000  0.5850670000000  0.5364970000000 1.0
C      1  0.4406100000000  0.5101510000000  0.5914580000000 1.0
C      1  0.5787170000000  0.4356470000000  0.5048990000000 1.0
C      1  0.4218920000000  0.4654690000000  0.4444080000000 1.0
C      1  0.5836080000000  0.5320290000000  0.4419920000000 1.0
C      1  0.4180500000000  0.5703320000000  0.4986130000000 1.0
C      1  0.5783480000000  0.5377840000000  0.5573750000000 1.0
C      1  0.4108920000000  0.4682380000000  0.5608250000000 1.0
C      1  0.4282930000000  0.4503690000000  0.4866350000000 1.0
C      1  0.5680710000000  0.4812850000000  0.4531920000000 1.0
C      1  0.4285470000000  0.5349080000000  0.4639310000000 1.0
C      1  0.5703710000000  0.5518630000000  0.5105450000000 1.0
C      1  0.4275120000000  0.5124230000000  0.5508230000000 1.0
C      1  0.5776890000000  0.4592810000000  0.5329560000000 1.0
C      1  0.5713560000000  0.4512880000000  0.5617560000000 1.0
C      1  0.4302470000000  0.4215490000000  0.4907360000000 1.0
C      1  0.5663280000000  0.4705880000000  0.4245890000000 1.0
C      1  0.4305660000000  0.5476260000000  0.4373820000000 1.0
C      1  0.5614440000000  0.5806180000000  0.5080410000000 1.0
C      1  0.4318940000000  0.5310110000000  0.5727180000000 1.0
C      1  0.5019320000000  0.4472300000000  0.5872350000000 1.0
C      1  0.5012420000000  0.3997720000000  0.4979060000000 1.0
C      1  0.4992440000000  0.4525640000000  0.4126360000000 1.0
C      1  0.4993250000000  0.5510900000000  0.4150810000000 1.0
C      1  0.5105830000000  0.5961540000000  0.5023190000000 1.0
C      1  0.4991740000000  0.5472700000000  0.5876180000000 1.0
C      1  0.5571940000000  0.5475570000000  0.5749610000000 1.0
C      1  0.4388610000000  0.4559460000000  0.5745300000000 1.0
C      1  0.5588310000000  0.4140750000000  0.5040470000000 1.0
C      1  0.4412960000000  0.4529140000000  0.4270860000000 1.0
C      1  0.5619670000000  0.5413450000000  0.4247750000000 1.0
C      1  0.4405750000000  0.5891890000000  0.5005880000000 1.0
C      1  0.5464630000000  0.5665100000000  0.5560360000000 1.0
C      1  0.4490850000000  0.4843570000000  0.5837370000000 1.0
C      1  0.5469980000000  0.4187990000000  0.5299710000000 1.0
C      1  0.4506870000000  0.4321000000000  0.4439950000000 1.0
C      1  0.5521280000000  0.5166510000000  0.4128570000000 1.0
C      1  0.4477920000000  0.5837700000000  0.4725730000000 1.0
C      1  0.4887390000000  0.5791630000000  0.4478860000000 1.0
C      1  0.5071280000000  0.5888910000000  0.5480230000000 1.0
C      1  0.4951410000000  0.5015280000000  0.6038170000000 1.0
C      1  0.5071590000000  0.4151990000000  0.5509790000000 1.0
C      1  0.4901320000000  0.4121800000000  0.4561490000000 1.0
C      1  0.5092990000000  0.4958730000000  0.4031910000000 1.0
C      1  0.4898160000000  0.5996790000000  0.5243710000000 1.0
C      1  0.5141540000000  0.5246560000000  0.5979690000000 1.0
C      1  0.4866540000000  0.4303970000000  0.5686190000000 1.0
C      1  0.5161070000000  0.4000030000000  0.4734710000000 1.0
C      1  0.4834130000000  0.4730360000000  0.4012350000000 1.0
C      1  0.5159530000000  0.5687870000000  0.4305160000000 1.0
C      1  0.4034210000000  0.4928410000000  0.4719120000000 1.0
C      1  0.5900430000000  0.5160690000000  0.4803010000000 1.0
C      1  0.4026620000000  0.5273530000000  0.5084380000000 1.0
C      1  0.5952270000000  0.5090830000000  0.5263480000000 1.0
C      1  0.4132920000000  0.4819530000000  0.5181490000000 1.0
C      1  0.5990230000000  0.4740770000000  0.4929630000000 1.0
C      1  0.5354450000000  0.4104860000000  0.5547730000000 1.0
C      1  0.4624630000000  0.4072910000000  0.4474760000000 1.0
C      1  0.5361440000000  0.5023770000000  0.3956450000000 1.0
C      1  0.4620140000000  0.5908780000000  0.4485500000000 1.0
C      1  0.5357690000000  0.5927120000000  0.5529630000000 1.0
C      1  0.4657150000000  0.4985000000000  0.6026140000000 1.0
C      1  0.4408680000000  0.5761010000000  0.5398810000000 1.0
C      1  0.5595820000000  0.5028840000000  0.5902860000000 1.0
C      1  0.4329130000000  0.4346250000000  0.5541520000000 1.0
C      1  0.5589490000000  0.4185380000000  0.4565190000000 1.0
C      1  0.4422780000000  0.4983710000000  0.4060090000000 1.0
C      1  0.5614050000000  0.5722490000000  0.4529260000000 1.0
C      1  0.5768840000000  0.4922400000000  0.5682270000000 1.0
C      1  0.4177410000000  0.4333300000000  0.5292100000000 1.0
C      1  0.5772480000000  0.4408270000000  0.4607230000000 1.0
C      1  0.4262130000000  0.5069680000000  0.4295160000000 1.0
C      1  0.5835970000000  0.5637620000000  0.4709910000000 1.0
C      1  0.4199630000000  0.5551570000000  0.5419440000000 1.0
END
