TITL C-2441166-8118-668 0.0619036724884034 125000 -15050.5068009206 0 0 114 (C1) n - 1
REM
REM in /home/bkarasulu/work/CARBON/AIRSS/Generating-Clusters/ReaxFF-fromJPCA2015/Units_Real/with-SteepDescent/Higher-Symm
REM
REM
REM
REM
REM
REM ./C.cell (1df0a924f5614ab8850e4351716899ee)
REM
REM compiler GCC version 9.2.1 20190827 (Red Hat 9.2.1-1)
REM options -cpp -mtune=generic -march=x86-64 -g -O0 -fpre-include=/usr/include/finclude/math-vector-fortran.h
REM seed -603519322 1991155426 1505868765 656397124 914901952 1884818749 1397913893 -959451737 238380518 -1077476286 -468188044 -1235690495 -915510902 -72894601 1819654249 875246546 -597077142 -1602617131 -1660583419 -293699830 -1243384851 -69796882 -887265095 1573681022 -1693304540 547489031 1038758510 458515608 1522278097 112474841 -1908552786 -1885768325 -1044197773
REM
CELL 1.54180   50.00000   50.00000   50.00000   90.00000   90.00000   90.00000
LATT -1
SFAC C  
C      1  0.5102100000000  0.4715730000000  0.4495560000000 1.0
C      1  0.4494530000000  0.4712220000000  0.5160130000000 1.0
C      1  0.5369280000000  0.4706540000000  0.5358980000000 1.0
C      1  0.5192900000000  0.4669580000000  0.5761150000000 1.0
C      1  0.5574010000000  0.4648040000000  0.4459580000000 1.0
C      1  0.4238980000000  0.4665000000000  0.4788050000000 1.0
C      1  0.5300720000000  0.4267310000000  0.4536360000000 1.0
C      1  0.4510390000000  0.4328300000000  0.4997840000000 1.0
C      1  0.5253040000000  0.4290540000000  0.5463960000000 1.0
C      1  0.5142700000000  0.5018820000000  0.4749120000000 1.0
C      1  0.4711320000000  0.5043760000000  0.5004300000000 1.0
C      1  0.5152330000000  0.4983330000000  0.5170230000000 1.0
C      1  0.4635140000000  0.5159920000000  0.4183350000000 1.0
C      1  0.4511210000000  0.5293030000000  0.5701010000000 1.0
C      1  0.5911990000000  0.5298790000000  0.5007260000000 1.0
C      1  0.4393020000000  0.5511590000000  0.5528220000000 1.0
C      1  0.5785770000000  0.5446990000000  0.5202650000000 1.0
C      1  0.4789490000000  0.5397530000000  0.4237150000000 1.0
C      1  0.4801150000000  0.5677290000000  0.4320430000000 1.0
C      1  0.4564470000000  0.5731350000000  0.5451860000000 1.0
C      1  0.5636470000000  0.5716320000000  0.5204420000000 1.0
C      1  0.5279690000000  0.4457460000000  0.4964990000000 1.0
C      1  0.4855380000000  0.4393180000000  0.4659960000000 1.0
C      1  0.4865990000000  0.4442410000000  0.5297530000000 1.0
C      1  0.4737130000000  0.4874150000000  0.5866420000000 1.0
C      1  0.5875470000000  0.4841790000000  0.4800720000000 1.0
C      1  0.4390020000000  0.4838470000000  0.4333810000000 1.0
C      1  0.5309190000000  0.5059070000000  0.5517370000000 1.0
C      1  0.5274700000000  0.5078060000000  0.4467890000000 1.0
C      1  0.4420300000000  0.5080910000000  0.5022690000000 1.0
C      1  0.5705600000000  0.4881210000000  0.5528040000000 1.0
C      1  0.4996970000000  0.5040590000000  0.4110990000000 1.0
C      1  0.4177070000000  0.4899510000000  0.5345660000000 1.0
C      1  0.5087370000000  0.5305720000000  0.4795620000000 1.0
C      1  0.4886550000000  0.5344300000000  0.5012770000000 1.0
C      1  0.5064960000000  0.5257550000000  0.5247750000000 1.0
C      1  0.4771470000000  0.4485640000000  0.5584070000000 1.0
C      1  0.5572470000000  0.4495270000000  0.4920410000000 1.0
C      1  0.4616090000000  0.4493790000000  0.4522730000000 1.0
C      1  0.5208860000000  0.5668850000000  0.5112420000000 1.0
C      1  0.4903390000000  0.5724000000000  0.4740740000000 1.0
C      1  0.4894050000000  0.5645340000000  0.5030600000000 1.0
C      1  0.4805230000000  0.4918000000000  0.4742790000000 1.0
C      1  0.4884410000000  0.4894910000000  0.5221460000000 1.0
C      1  0.5340120000000  0.4930400000000  0.4949020000000 1.0
C      1  0.5528210000000  0.4425130000000  0.4637390000000 1.0
C      1  0.4411150000000  0.4453290000000  0.4724560000000 1.0
C      1  0.5049100000000  0.4450850000000  0.5661140000000 1.0
C      1  0.4325630000000  0.4729970000000  0.5566940000000 1.0
C      1  0.5811520000000  0.4726460000000  0.5287800000000 1.0
C      1  0.4824810000000  0.4788600000000  0.4139390000000 1.0
C      1  0.4360910000000  0.4469960000000  0.5472260000000 1.0
C      1  0.5714500000000  0.4460860000000  0.5292190000000 1.0
C      1  0.4945840000000  0.4517020000000  0.4169240000000 1.0
C      1  0.5154180000000  0.5840110000000  0.5349240000000 1.0
C      1  0.5133870000000  0.5876400000000  0.4608340000000 1.0
C      1  0.4706260000000  0.5918330000000  0.5051650000000 1.0
C      1  0.4882580000000  0.5262220000000  0.4488030000000 1.0
C      1  0.4612650000000  0.5183310000000  0.5453860000000 1.0
C      1  0.5529820000000  0.5283650000000  0.5181060000000 1.0
C      1  0.5502830000000  0.4953320000000  0.5326400000000 1.0
C      1  0.4984030000000  0.5002110000000  0.4406970000000 1.0
C      1  0.4469180000000  0.4934740000000  0.5278540000000 1.0
C      1  0.4189620000000  0.5169210000000  0.5169120000000 1.0
C      1  0.5530280000000  0.5181740000000  0.5635000000000 1.0
C      1  0.5233630000000  0.5209840000000  0.4215010000000 1.0
C      1  0.5491210000000  0.4652630000000  0.5625770000000 1.0
C      1  0.5321460000000  0.4640350000000  0.4308060000000 1.0
C      1  0.4212590000000  0.4653260000000  0.5110350000000 1.0
C      1  0.5258680000000  0.5476740000000  0.4346100000000 1.0
C      1  0.4285580000000  0.5435400000000  0.5233830000000 1.0
C      1  0.5395520000000  0.5433720000000  0.5600900000000 1.0
C      1  0.5515570000000  0.5587240000000  0.4716970000000 1.0
C      1  0.4441780000000  0.5583690000000  0.4719650000000 1.0
C      1  0.4968260000000  0.5594040000000  0.5632400000000 1.0
C      1  0.4715610000000  0.4099130000000  0.4997270000000 1.0
C      1  0.5153490000000  0.4091180000000  0.5253060000000 1.0
C      1  0.5162510000000  0.4092810000000  0.4729410000000 1.0
C      1  0.4703670000000  0.4558030000000  0.5094120000000 1.0
C      1  0.5184680000000  0.4527590000000  0.5239720000000 1.0
C      1  0.5055580000000  0.4587580000000  0.4747420000000 1.0
C      1  0.4392690000000  0.5588920000000  0.5011450000000 1.0
C      1  0.5297430000000  0.5426870000000  0.5296130000000 1.0
C      1  0.5253000000000  0.5487190000000  0.4640410000000 1.0
C      1  0.5264100000000  0.4151380000000  0.4993580000000 1.0
C      1  0.4868190000000  0.4112800000000  0.4751870000000 1.0
C      1  0.4870930000000  0.4140390000000  0.5232900000000 1.0
C      1  0.5806920000000  0.5154670000000  0.4537030000000 1.0
C      1  0.4205910000000  0.5155940000000  0.4528770000000 1.0
C      1  0.5006500000000  0.5188430000000  0.5891100000000 1.0
C      1  0.4668540000000  0.4761910000000  0.4409910000000 1.0
C      1  0.4606900000000  0.4712920000000  0.5673150000000 1.0
C      1  0.5696080000000  0.4741980000000  0.5003190000000 1.0
C      1  0.4211990000000  0.4864740000000  0.4579110000000 1.0
C      1  0.5030910000000  0.4888510000000  0.5862640000000 1.0
C      1  0.5764540000000  0.4862130000000  0.4534020000000 1.0
C      1  0.4417720000000  0.5299520000000  0.4661840000000 1.0
C      1  0.5135310000000  0.5422550000000  0.5761430000000 1.0
C      1  0.5613120000000  0.5305860000000  0.4690990000000 1.0
C      1  0.4360560000000  0.5124410000000  0.4261820000000 1.0
C      1  0.4711350000000  0.5165660000000  0.5883630000000 1.0
C      1  0.5974580000000  0.5123070000000  0.4790410000000 1.0
C      1  0.5477050000000  0.5730770000000  0.4967150000000 1.0
C      1  0.4661740000000  0.5717160000000  0.4574480000000 1.0
C      1  0.4863190000000  0.5767250000000  0.5489170000000 1.0
C      1  0.4293150000000  0.4382460000000  0.5215660000000 1.0
C      1  0.5540560000000  0.4380310000000  0.5501360000000 1.0
C      1  0.5184960000000  0.4378040000000  0.4284140000000 1.0
C      1  0.5091270000000  0.5730740000000  0.4351440000000 1.0
C      1  0.4465840000000  0.5821600000000  0.5183120000000 1.0
C      1  0.5442690000000  0.5826650000000  0.5413940000000 1.0
C      1  0.4880910000000  0.5094330000000  0.5440290000000 1.0
C      1  0.5513000000000  0.5161040000000  0.4919330000000 1.0
C      1  0.4668080000000  0.5146700000000  0.4617300000000 1.0
END
