TITL C-2441166-8118-1147 0.00905834389827706 125000 -6585.41971782364 0 0 46 (C1) n - 1
REM
REM in /home/bkarasulu/work/CARBON/AIRSS/Generating-Clusters/ReaxFF-fromJPCA2015/Units_Real/with-SteepDescent/Higher-Symm
REM
REM
REM
REM
REM
REM ./C.cell (1df0a924f5614ab8850e4351716899ee)
REM
REM compiler GCC version 9.2.1 20190827 (Red Hat 9.2.1-1)
REM options -cpp -mtune=generic -march=x86-64 -g -O0 -fpre-include=/usr/include/finclude/math-vector-fortran.h
REM seed -1788538612 1754618321 -2134126254 -1611084444 -863575378 -1429828930 680295101 -499243505 -1532578607 -895616335 -635813158 -1176430386 -761369273 2069946687 61069535 586894117 481180301 -1064806626 -979270034 -711151116 -764229501 -1511397075 -429608224 -1895887463 454127027 -300919523 -537405611 1595928443 -2064348578 -852134049 552974919 1586991304 51859833
REM
CELL 1.54180   50.00000   50.00000   50.00000   90.00000   90.00000   90.00000
LATT -1
SFAC C  
C      1  0.4989850000000  0.5149980000000  0.4423030000000 1.0
C      1  0.4989110000000  0.4849810000000  0.4420320000000 1.0
C      1  0.4563910000000  0.5590260000000  0.5165780000000 1.0
C      1  0.4576040000000  0.4408490000000  0.5191980000000 1.0
C      1  0.5329700000000  0.4684660000000  0.5588400000000 1.0
C      1  0.5335780000000  0.5303630000000  0.5590540000000 1.0
C      1  0.4857510000000  0.5224330000000  0.5431550000000 1.0
C      1  0.4843760000000  0.4775810000000  0.5500590000000 1.0
C      1  0.5538870000000  0.4854250000000  0.4854230000000 1.0
C      1  0.5571350000000  0.5141060000000  0.4842280000000 1.0
C      1  0.4807240000000  0.5317340000000  0.4582370000000 1.0
C      1  0.4806110000000  0.4682510000000  0.4579750000000 1.0
C      1  0.4837860000000  0.4430850000000  0.4736260000000 1.0
C      1  0.4837410000000  0.5569510000000  0.4738790000000 1.0
C      1  0.4350800000000  0.5490000000000  0.5236500000000 1.0
C      1  0.4364920000000  0.4523530000000  0.5269860000000 1.0
C      1  0.5486790000000  0.5292940000000  0.5119080000000 1.0
C      1  0.5401930000000  0.4739370000000  0.5106040000000 1.0
C      1  0.4382900000000  0.4854080000000  0.4875230000000 1.0
C      1  0.4381360000000  0.5147070000000  0.4870860000000 1.0
C      1  0.5237260000000  0.5142760000000  0.5092670000000 1.0
C      1  0.5119110000000  0.4910980000000  0.5097520000000 1.0
C      1  0.5561420000000  0.5236530000000  0.5438920000000 1.0
C      1  0.5525930000000  0.4773020000000  0.5400180000000 1.0
C      1  0.4838080000000  0.4882080000000  0.5210950000000 1.0
C      1  0.4668930000000  0.5119720000000  0.5257840000000 1.0
C      1  0.4821240000000  0.4390190000000  0.5046390000000 1.0
C      1  0.4823760000000  0.5608160000000  0.5047160000000 1.0
C      1  0.5353310000000  0.4434350000000  0.4767690000000 1.0
C      1  0.5351470000000  0.5561750000000  0.4769880000000 1.0
C      1  0.5432600000000  0.5296690000000  0.4643000000000 1.0
C      1  0.5430690000000  0.4697940000000  0.4639100000000 1.0
C      1  0.4393460000000  0.5218790000000  0.5157220000000 1.0
C      1  0.4329850000000  0.4714340000000  0.5111420000000 1.0
C      1  0.5284150000000  0.4848330000000  0.4433360000000 1.0
C      1  0.5285020000000  0.5149140000000  0.4435780000000 1.0
C      1  0.5060160000000  0.4576340000000  0.5468600000000 1.0
C      1  0.5060860000000  0.5406600000000  0.5470240000000 1.0
C      1  0.4609630000000  0.4856580000000  0.4683260000000 1.0
C      1  0.4604680000000  0.5143370000000  0.4676920000000 1.0
C      1  0.5096180000000  0.5671520000000  0.4741630000000 1.0
C      1  0.5096130000000  0.4325540000000  0.4741860000000 1.0
C      1  0.5320810000000  0.5550930000000  0.5067190000000 1.0
C      1  0.5313060000000  0.4462890000000  0.5059650000000 1.0
C      1  0.5064060000000  0.4438930000000  0.5205840000000 1.0
C      1  0.5064960000000  0.5553040000000  0.5212300000000 1.0
END
