TITL C-2441164-471-667 0.0404526437323068 125000 -12746.4131176964 0 0 95 (C1) n - 1
REM
REM in /home/bkarasulu/work/CARBON/AIRSS/Generating-Clusters/ReaxFF-fromJPCA2015/Units_Real/with-SteepDescent/Higher-Symm
REM
REM
REM
REM
REM
REM ./C.cell (1df0a924f5614ab8850e4351716899ee)
REM
REM compiler GCC version 9.2.1 20190827 (Red Hat 9.2.1-1)
REM options -cpp -mtune=generic -march=x86-64 -g -O0 -fpre-include=/usr/include/finclude/math-vector-fortran.h
REM seed -617310902 -2078272305 1905519483 245378742 -505415816 1049053229 1845184788 994548096 -2086914842 1649289262 1547190453 -1749540145 -731037509 -1550282368 719451387 -31130264 1910519933 1026398846 982583854 1792311175 -917227300 1098902830 -381825144 1120142711 -932718117 -754295808 335171925 891390880 1441957606 -633323664 1823865365 1620765603 -769693149
REM
CELL 1.54180   50.00000   50.00000   50.00000   90.00000   90.00000   90.00000
LATT -1
SFAC C  
C      1  0.4561370000000  0.5507830000000  0.4469730000000 1.0
C      1  0.5480950000000  0.5440050000000  0.5524750000000 1.0
C      1  0.5456120000000  0.4491960000000  0.4476980000000 1.0
C      1  0.4513300000000  0.4537380000000  0.5515910000000 1.0
C      1  0.4383510000000  0.4741930000000  0.4687130000000 1.0
C      1  0.4857080000000  0.5628570000000  0.5401580000000 1.0
C      1  0.5749460000000  0.5197900000000  0.4575000000000 1.0
C      1  0.5327030000000  0.4333660000000  0.5352800000000 1.0
C      1  0.4623270000000  0.4649300000000  0.4298340000000 1.0
C      1  0.4597360000000  0.5411280000000  0.5699500000000 1.0
C      1  0.5358890000000  0.5373790000000  0.4289850000000 1.0
C      1  0.5322620000000  0.4658800000000  0.5709370000000 1.0
C      1  0.5823700000000  0.5028850000000  0.4767240000000 1.0
C      1  0.5080700000000  0.4249950000000  0.5229210000000 1.0
C      1  0.4195260000000  0.4938280000000  0.4771640000000 1.0
C      1  0.4981330000000  0.5820640000000  0.5232780000000 1.0
C      1  0.5210910000000  0.4687070000000  0.5061920000000 1.0
C      1  0.4630310000000  0.4780480000000  0.4916690000000 1.0
C      1  0.4822710000000  0.5235360000000  0.5038520000000 1.0
C      1  0.5238600000000  0.5161490000000  0.4947400000000 1.0
C      1  0.5278880000000  0.5512940000000  0.4542700000000 1.0
C      1  0.5491690000000  0.4727420000000  0.5481710000000 1.0
C      1  0.4721360000000  0.4464300000000  0.4508570000000 1.0
C      1  0.4493480000000  0.5282520000000  0.5456900000000 1.0
C      1  0.4205690000000  0.5199930000000  0.5182060000000 1.0
C      1  0.5203280000000  0.5803220000000  0.4821300000000 1.0
C      1  0.5767010000000  0.4762060000000  0.5176010000000 1.0
C      1  0.4785670000000  0.4226660000000  0.4842660000000 1.0
C      1  0.4767230000000  0.5657250000000  0.4598390000000 1.0
C      1  0.5638960000000  0.5239360000000  0.5405790000000 1.0
C      1  0.5231460000000  0.4328980000000  0.4573340000000 1.0
C      1  0.4331530000000  0.4759000000000  0.5418770000000 1.0
C      1  0.4950640000000  0.5220860000000  0.4323710000000 1.0
C      1  0.5204260000000  0.5054590000000  0.5675720000000 1.0
C      1  0.5035200000000  0.4744740000000  0.4280590000000 1.0
C      1  0.4800240000000  0.5016150000000  0.5677550000000 1.0
C      1  0.4473380000000  0.4541320000000  0.5040190000000 1.0
C      1  0.4482110000000  0.5569290000000  0.4958260000000 1.0
C      1  0.5577840000000  0.5513230000000  0.5030280000000 1.0
C      1  0.5433460000000  0.4474670000000  0.4950960000000 1.0
C      1  0.4977230000000  0.4343790000000  0.4434790000000 1.0
C      1  0.4370130000000  0.5025980000000  0.5537730000000 1.0
C      1  0.5033050000000  0.5660140000000  0.4466300000000 1.0
C      1  0.5653000000000  0.4967130000000  0.5534700000000 1.0
C      1  0.5311400000000  0.5076850000000  0.4270790000000 1.0
C      1  0.5028110000000  0.4594020000000  0.5667490000000 1.0
C      1  0.4643380000000  0.4956430000000  0.4279390000000 1.0
C      1  0.4847480000000  0.5405560000000  0.5847820000000 1.0
C      1  0.4435510000000  0.5146890000000  0.4744240000000 1.0
C      1  0.5169290000000  0.5595210000000  0.5169150000000 1.0
C      1  0.5549140000000  0.4869720000000  0.4747390000000 1.0
C      1  0.4876290000000  0.4441150000000  0.5272300000000 1.0
C      1  0.4886470000000  0.4948930000000  0.5415730000000 1.0
C      1  0.4917260000000  0.5118460000000  0.4590390000000 1.0
C      1  0.5090260000000  0.5144690000000  0.5396190000000 1.0
C      1  0.5070120000000  0.4869680000000  0.4605900000000 1.0
C      1  0.4680940000000  0.4642440000000  0.5721550000000 1.0
C      1  0.4699240000000  0.5365370000000  0.4254810000000 1.0
C      1  0.5356770000000  0.5290210000000  0.5741790000000 1.0
C      1  0.5318800000000  0.4607200000000  0.4254860000000 1.0
C      1  0.5050230000000  0.5427090000000  0.5374110000000 1.0
C      1  0.5339260000000  0.4957790000000  0.4532270000000 1.0
C      1  0.4991530000000  0.4677820000000  0.5368840000000 1.0
C      1  0.4651870000000  0.5075220000000  0.4544130000000 1.0
C      1  0.5423210000000  0.5629110000000  0.4785660000000 1.0
C      1  0.5591370000000  0.4530940000000  0.5250440000000 1.0
C      1  0.4573610000000  0.4379460000000  0.4756700000000 1.0
C      1  0.4375760000000  0.5419530000000  0.5210070000000 1.0
C      1  0.5618470000000  0.5319430000000  0.4392390000000 1.0
C      1  0.5246060000000  0.4385280000000  0.5622030000000 1.0
C      1  0.4404070000000  0.4789830000000  0.4400300000000 1.0
C      1  0.4778590000000  0.5626220000000  0.5673000000000 1.0
C      1  0.4965890000000  0.5497460000000  0.4233790000000 1.0
C      1  0.5493210000000  0.5031410000000  0.5768240000000 1.0
C      1  0.5072880000000  0.4478390000000  0.4199250000000 1.0
C      1  0.4550480000000  0.4900940000000  0.5740220000000 1.0
C      1  0.4240420000000  0.4707390000000  0.5150670000000 1.0
C      1  0.4704690000000  0.5727150000000  0.4863860000000 1.0
C      1  0.5719710000000  0.5285990000000  0.5137760000000 1.0
C      1  0.5275640000000  0.4254570000000  0.4840920000000 1.0
C      1  0.4416520000000  0.5448050000000  0.4711430000000 1.0
C      1  0.5449770000000  0.5578830000000  0.5273900000000 1.0
C      1  0.5566270000000  0.4585880000000  0.4725350000000 1.0
C      1  0.4607590000000  0.4417690000000  0.5270160000000 1.0
C      1  0.5840820000000  0.5024730000000  0.5059560000000 1.0
C      1  0.5033430000000  0.4140170000000  0.4955020000000 1.0
C      1  0.4115630000000  0.4956210000000  0.5051660000000 1.0
C      1  0.4951390000000  0.5868800000000  0.4950760000000 1.0
C      1  0.5065510000000  0.5390570000000  0.4972970000000 1.0
C      1  0.5372980000000  0.4918800000000  0.5003770000000 1.0
C      1  0.4959220000000  0.4736910000000  0.4883670000000 1.0
C      1  0.4603530000000  0.5060500000000  0.4983980000000 1.0
C      1  0.5038340000000  0.5001570000000  0.4158230000000 1.0
C      1  0.4984940000000  0.5148680000000  0.5844350000000 1.0
C      1  0.4994570000000  0.5010100000000  0.4992950000000 1.0
END
