TITL C-2441157-2117-1141 0.0675239004133952 125000 -23183.1257430758 0 0 164 (C1) n - 1
REM
REM in /home/bkarasulu/work/CARBON/AIRSS/Generating-Clusters/ReaxFF-fromJPCA2015/Units_Real/with-SteepDescent/Higher-Symm
REM
REM
REM
REM
REM
REM ./C.cell (1df0a924f5614ab8850e4351716899ee)
REM
REM compiler GCC version 9.2.1 20190827 (Red Hat 9.2.1-1)
REM options -cpp -mtune=generic -march=x86-64 -g -O0 -fpre-include=/usr/include/finclude/math-vector-fortran.h
REM seed 2012624201 699347699 1221869045 -1257706690 783951423 -1670019968 -1188655870 1899506464 1088498567 1591019297 145633972 -200046142 1745258897 -784779182 -2057432297 2071885065 -2080734589 1040294500 1880813351 -1324629494 -1468563319 1932038068 1270387439 -89628763 928637393 1780350776 -589022018 -635120415 1792974532 -1152176715 1894118416 -591914990 -562267341
REM
CELL 1.54180   50.00000   50.00000   50.00000   90.00000   90.00000   90.00000
LATT -1
SFAC C  
C      1  0.5173670000000  0.4669090000000  0.4853240000000 1.0
C      1  0.4881960000000  0.5137860000000  0.4602290000000 1.0
C      1  0.4652360000000  0.4911850000000  0.5102250000000 1.0
C      1  0.5171890000000  0.5475590000000  0.5197770000000 1.0
C      1  0.4743890000000  0.5467170000000  0.4925760000000 1.0
C      1  0.4872800000000  0.4414440000000  0.5114510000000 1.0
C      1  0.4847940000000  0.4946180000000  0.5314610000000 1.0
C      1  0.5056670000000  0.4674790000000  0.4590300000000 1.0
C      1  0.5283770000000  0.5281610000000  0.5411210000000 1.0
C      1  0.4667440000000  0.5220140000000  0.4789010000000 1.0
C      1  0.5486090000000  0.5152910000000  0.5258940000000 1.0
C      1  0.5411300000000  0.4810330000000  0.4938800000000 1.0
C      1  0.4694780000000  0.4503640000000  0.4932130000000 1.0
C      1  0.5144960000000  0.5225200000000  0.4748520000000 1.0
C      1  0.5351580000000  0.4916970000000  0.5202100000000 1.0
C      1  0.4855530000000  0.5472410000000  0.5201910000000 1.0
C      1  0.5159180000000  0.5473100000000  0.4899520000000 1.0
C      1  0.5088690000000  0.4589420000000  0.5104570000000 1.0
C      1  0.5105770000000  0.4809260000000  0.5291290000000 1.0
C      1  0.4902950000000  0.4879320000000  0.4483610000000 1.0
C      1  0.4821610000000  0.5234430000000  0.5385860000000 1.0
C      1  0.5380100000000  0.5052810000000  0.4737400000000 1.0
C      1  0.4489360000000  0.5116520000000  0.4995360000000 1.0
C      1  0.4669050000000  0.4779490000000  0.4842040000000 1.0
C      1  0.5988850000000  0.4851170000000  0.5581770000000 1.0
C      1  0.5571140000000  0.5966120000000  0.4793300000000 1.0
C      1  0.4870210000000  0.5604270000000  0.5984090000000 1.0
C      1  0.5929270000000  0.5163140000000  0.4399220000000 1.0
C      1  0.4035000000000  0.5170580000000  0.5558890000000 1.0
C      1  0.4040620000000  0.4881220000000  0.4417820000000 1.0
C      1  0.5599030000000  0.4068040000000  0.5145950000000 1.0
C      1  0.4402550000000  0.4052930000000  0.4830190000000 1.0
C      1  0.4417420000000  0.5958540000000  0.5137370000000 1.0
C      1  0.4851570000000  0.4420710000000  0.4056390000000 1.0
C      1  0.5172760000000  0.4448600000000  0.5954410000000 1.0
C      1  0.5143870000000  0.5594500000000  0.4039280000000 1.0
C      1  0.4010360000000  0.4879270000000  0.5579080000000 1.0
C      1  0.4417670000000  0.5952820000000  0.4831280000000 1.0
C      1  0.5171710000000  0.5597590000000  0.5966430000000 1.0
C      1  0.4047300000000  0.5174880000000  0.4418970000000 1.0
C      1  0.5954630000000  0.5158550000000  0.5574890000000 1.0
C      1  0.5941330000000  0.4858670000000  0.4398410000000 1.0
C      1  0.4404200000000  0.4048780000000  0.5134940000000 1.0
C      1  0.5599040000000  0.4070190000000  0.4840230000000 1.0
C      1  0.5593870000000  0.5909090000000  0.5093930000000 1.0
C      1  0.5162920000000  0.4410420000000  0.4044920000000 1.0
C      1  0.4881970000000  0.4431680000000  0.5964870000000 1.0
C      1  0.4844880000000  0.5589360000000  0.4038100000000 1.0
C      1  0.5223380000000  0.4892510000000  0.5824320000000 1.0
C      1  0.5838800000000  0.5294090000000  0.4859250000000 1.0
C      1  0.4862760000000  0.5817240000000  0.5284760000000 1.0
C      1  0.5315670000000  0.5146760000000  0.4082960000000 1.0
C      1  0.4713340000000  0.5160350000000  0.5859740000000 1.0
C      1  0.4752530000000  0.4870580000000  0.4221150000000 1.0
C      1  0.5972940000000  0.4665400000000  0.5125430000000 1.0
C      1  0.4031880000000  0.4675050000000  0.4850920000000 1.0
C      1  0.4205710000000  0.5248860000000  0.5103250000000 1.0
C      1  0.4866380000000  0.4078210000000  0.4666300000000 1.0
C      1  0.5160540000000  0.4142270000000  0.5281340000000 1.0
C      1  0.5133550000000  0.5779390000000  0.4749160000000 1.0
C      1  0.4700120000000  0.4868440000000  0.5920610000000 1.0
C      1  0.4094140000000  0.5321960000000  0.4853210000000 1.0
C      1  0.5162650000000  0.5824060000000  0.5284210000000 1.0
C      1  0.4750400000000  0.5170630000000  0.4217880000000 1.0
C      1  0.5221430000000  0.5175080000000  0.5718660000000 1.0
C      1  0.5329940000000  0.4872250000000  0.4086780000000 1.0
C      1  0.4051750000000  0.4666550000000  0.5127680000000 1.0
C      1  0.5954410000000  0.4674230000000  0.4847180000000 1.0
C      1  0.5793880000000  0.5253580000000  0.5147600000000 1.0
C      1  0.5146790000000  0.4060180000000  0.4658590000000 1.0
C      1  0.4865430000000  0.4165250000000  0.5273950000000 1.0
C      1  0.4871980000000  0.5896880000000  0.4668090000000 1.0
C      1  0.4271160000000  0.5345610000000  0.4325130000000 1.0
C      1  0.4318260000000  0.4255950000000  0.5355860000000 1.0
C      1  0.5377830000000  0.4308870000000  0.4227610000000 1.0
C      1  0.4261080000000  0.4660280000000  0.5636060000000 1.0
C      1  0.5744090000000  0.4649200000000  0.4310260000000 1.0
C      1  0.5744710000000  0.5330880000000  0.5681530000000 1.0
C      1  0.4317720000000  0.5761400000000  0.4617880000000 1.0
C      1  0.5702130000000  0.5726140000000  0.5408370000000 1.0
C      1  0.5692210000000  0.4258690000000  0.4627240000000 1.0
C      1  0.5342500000000  0.5692910000000  0.5746740000000 1.0
C      1  0.4624080000000  0.5698230000000  0.4210200000000 1.0
C      1  0.4725210000000  0.4401300000000  0.5685430000000 1.0
C      1  0.5734520000000  0.5363770000000  0.4294910000000 1.0
C      1  0.5688380000000  0.4260790000000  0.5353720000000 1.0
C      1  0.4635560000000  0.4323900000000  0.4256510000000 1.0
C      1  0.5750320000000  0.4661290000000  0.5593860000000 1.0
C      1  0.4301560000000  0.4709750000000  0.4395150000000 1.0
C      1  0.4261100000000  0.5375300000000  0.5661890000000 1.0
C      1  0.5664420000000  0.5744300000000  0.4613260000000 1.0
C      1  0.4317560000000  0.5766640000000  0.5361400000000 1.0
C      1  0.4299130000000  0.4247710000000  0.4614730000000 1.0
C      1  0.4720540000000  0.5612250000000  0.5709430000000 1.0
C      1  0.5356570000000  0.5688220000000  0.4230490000000 1.0
C      1  0.5340430000000  0.4349440000000  0.5724830000000 1.0
C      1  0.5330300000000  0.3953090000000  0.5141880000000 1.0
C      1  0.5141370000000  0.5319150000000  0.3951230000000 1.0
C      1  0.3975270000000  0.5150370000000  0.5276520000000 1.0
C      1  0.5290750000000  0.6003830000000  0.4840040000000 1.0
C      1  0.4696940000000  0.6025450000000  0.5135970000000 1.0
C      1  0.4671190000000  0.3932020000000  0.4832910000000 1.0
C      1  0.5151310000000  0.4731030000000  0.6054650000000 1.0
C      1  0.4866120000000  0.4694660000000  0.3979850000000 1.0
C      1  0.4869490000000  0.5329790000000  0.6068140000000 1.0
C      1  0.3925070000000  0.4880650000000  0.4681600000000 1.0
C      1  0.6091300000000  0.4862560000000  0.5305480000000 1.0
C      1  0.6022540000000  0.5163860000000  0.4677660000000 1.0
C      1  0.4672420000000  0.3952220000000  0.5127640000000 1.0
C      1  0.4851810000000  0.5306250000000  0.3981360000000 1.0
C      1  0.6031740000000  0.5150840000000  0.5295310000000 1.0
C      1  0.4695100000000  0.6052670000000  0.4836880000000 1.0
C      1  0.5324810000000  0.6012310000000  0.5122920000000 1.0
C      1  0.5338930000000  0.3938630000000  0.4841510000000 1.0
C      1  0.4857590000000  0.4694010000000  0.6091310000000 1.0
C      1  0.5157940000000  0.4683430000000  0.3937030000000 1.0
C      1  0.5150120000000  0.5304890000000  0.5986010000000 1.0
C      1  0.6070560000000  0.4866390000000  0.4661060000000 1.0
C      1  0.3915150000000  0.4857470000000  0.5305090000000 1.0
C      1  0.3943760000000  0.5168520000000  0.4688630000000 1.0
C      1  0.4459130000000  0.4867810000000  0.4222750000000 1.0
C      1  0.4228440000000  0.4479670000000  0.4777680000000 1.0
C      1  0.4792510000000  0.4300850000000  0.4500260000000 1.0
C      1  0.4423970000000  0.5164350000000  0.5745050000000 1.0
C      1  0.5480880000000  0.5227730000000  0.4293970000000 1.0
C      1  0.5504680000000  0.4859410000000  0.5853630000000 1.0
C      1  0.4335330000000  0.5518910000000  0.5218360000000 1.0
C      1  0.5683760000000  0.5521740000000  0.4797350000000 1.0
C      1  0.5745720000000  0.4494730000000  0.5184360000000 1.0
C      1  0.4877990000000  0.5820810000000  0.5574870000000 1.0
C      1  0.5204940000000  0.5713640000000  0.4466770000000 1.0
C      1  0.5153020000000  0.4198430000000  0.5562840000000 1.0
C      1  0.5496050000000  0.4795210000000  0.4310950000000 1.0
C      1  0.5725290000000  0.4519670000000  0.4750460000000 1.0
C      1  0.5218310000000  0.4259260000000  0.4463620000000 1.0
C      1  0.5544680000000  0.5144890000000  0.5785790000000 1.0
C      1  0.4458850000000  0.5156090000000  0.4216520000000 1.0
C      1  0.4469250000000  0.4744880000000  0.5838080000000 1.0
C      1  0.5772580000000  0.5540010000000  0.5216440000000 1.0
C      1  0.4263150000000  0.5532660000000  0.4785760000000 1.0
C      1  0.4283500000000  0.4518110000000  0.5221920000000 1.0
C      1  0.5161690000000  0.5830390000000  0.5579230000000 1.0
C      1  0.4794800000000  0.5786770000000  0.4423310000000 1.0
C      1  0.4871260000000  0.4191550000000  0.5565040000000 1.0
C      1  0.4841320000000  0.4641550000000  0.5543740000000 1.0
C      1  0.5518570000000  0.5022320000000  0.4494540000000 1.0
C      1  0.4480530000000  0.5572070000000  0.4972250000000 1.0
C      1  0.4973610000000  0.5531420000000  0.4438990000000 1.0
C      1  0.4790320000000  0.5329710000000  0.5630470000000 1.0
C      1  0.5019710000000  0.4436890000000  0.4465100000000 1.0
C      1  0.5581760000000  0.4891080000000  0.5582370000000 1.0
C      1  0.4479400000000  0.4808490000000  0.4623740000000 1.0
C      1  0.4418190000000  0.4913260000000  0.5619440000000 1.0
C      1  0.4422880000000  0.4447600000000  0.4978510000000 1.0
C      1  0.5564360000000  0.4555650000000  0.4977150000000 1.0
C      1  0.5617890000000  0.5641550000000  0.5035910000000 1.0
C      1  0.5635660000000  0.4375900000000  0.4359720000000 1.0
C      1  0.4385670000000  0.5615750000000  0.4367790000000 1.0
C      1  0.4405990000000  0.4388430000000  0.5589500000000 1.0
C      1  0.5604060000000  0.4393820000000  0.5601110000000 1.0
C      1  0.5625370000000  0.5634850000000  0.4346090000000 1.0
C      1  0.4394410000000  0.5629560000000  0.5608240000000 1.0
C      1  0.5618540000000  0.5603350000000  0.5646980000000 1.0
C      1  0.4381880000000  0.4388530000000  0.4376210000000 1.0
END
