TITL C-2441160-1326-1095 0.179120784207893 125000 -24014.2185020567 0 0 189 (C1) n - 1
REM
REM in /home/bkarasulu/work/CARBON/AIRSS/Generating-Clusters/ReaxFF-fromJPCA2015/Units_Real/with-SteepDescent/Higher-Symm
REM
REM
REM
REM
REM
REM ./C.cell (1df0a924f5614ab8850e4351716899ee)
REM
REM compiler GCC version 9.2.1 20190827 (Red Hat 9.2.1-1)
REM options -cpp -mtune=generic -march=x86-64 -g -O0 -fpre-include=/usr/include/finclude/math-vector-fortran.h
REM seed 887440426 605080084 -546910563 1592384548 829285257 993311347 1469523111 -1220484862 778547564 587623943 798969939 875189038 2059909429 -1288203099 -260000571 459014442 -1024405869 480419796 1777158941 799199432 1972322189 -1826232112 -1818340876 -1543907549 1039913204 134356809 -550105317 2003551099 -70016904 1599178883 1016092277 -807112827 243463450
REM
CELL 1.54180   50.00000   50.00000   50.00000   90.00000   90.00000   90.00000
LATT -1
SFAC C  
C      1  0.4680740000000  0.4611080000000  0.6065440000000 1.0
C      1  0.5957240000000  0.4604970000000  0.4625440000000 1.0
C      1  0.4170490000000  0.4583070000000  0.4398740000000 1.0
C      1  0.5623220000000  0.5254770000000  0.4231050000000 1.0
C      1  0.4013170000000  0.5266780000000  0.4855680000000 1.0
C      1  0.5365450000000  0.5232640000000  0.5908360000000 1.0
C      1  0.5127880000000  0.4153870000000  0.5128620000000 1.0
C      1  0.5079240000000  0.4193320000000  0.4846260000000 1.0
C      1  0.4866070000000  0.4192850000000  0.5017460000000 1.0
C      1  0.4938360000000  0.5620700000000  0.5272790000000 1.0
C      1  0.5294620000000  0.5589020000000  0.4871050000000 1.0
C      1  0.4846070000000  0.5610690000000  0.4784130000000 1.0
C      1  0.4468720000000  0.4227830000000  0.5323890000000 1.0
C      1  0.5586390000000  0.4235700000000  0.5239670000000 1.0
C      1  0.4977670000000  0.4233140000000  0.4365200000000 1.0
C      1  0.5304650000000  0.4709420000000  0.5392270000000 1.0
C      1  0.5245090000000  0.4976250000000  0.4495170000000 1.0
C      1  0.4678490000000  0.4816620000000  0.5100660000000 1.0
C      1  0.5410180000000  0.4901100000000  0.5030700000000 1.0
C      1  0.4808390000000  0.4909100000000  0.4659960000000 1.0
C      1  0.4817400000000  0.4885400000000  0.5345870000000 1.0
C      1  0.5578450000000  0.5911640000000  0.5030380000000 1.0
C      1  0.4743400000000  0.5914830000000  0.4482280000000 1.0
C      1  0.4698030000000  0.5902720000000  0.5477650000000 1.0
C      1  0.5401820000000  0.4157840000000  0.4363330000000 1.0
C      1  0.4270260000000  0.4115080000000  0.4961290000000 1.0
C      1  0.5338850000000  0.4163030000000  0.5737810000000 1.0
C      1  0.4767620000000  0.5275820000000  0.4391070000000 1.0
C      1  0.4633800000000  0.5293520000000  0.5487700000000 1.0
C      1  0.5643830000000  0.5298030000000  0.5073560000000 1.0
C      1  0.5815450000000  0.4743880000000  0.5599210000000 1.0
C      1  0.5019190000000  0.4700900000000  0.4083520000000 1.0
C      1  0.4191410000000  0.4731040000000  0.5423790000000 1.0
C      1  0.4839700000000  0.4665380000000  0.4305680000000 1.0
C      1  0.4470550000000  0.4673180000000  0.5463200000000 1.0
C      1  0.5753950000000  0.4634390000000  0.5305520000000 1.0
C      1  0.4464320000000  0.5476230000000  0.4498880000000 1.0
C      1  0.4806630000000  0.5452600000000  0.5709960000000 1.0
C      1  0.5722130000000  0.5447660000000  0.4821830000000 1.0
C      1  0.5262560000000  0.5539330000000  0.5778890000000 1.0
C      1  0.5548670000000  0.5517830000000  0.4390510000000 1.0
C      1  0.4166160000000  0.5544600000000  0.4857050000000 1.0
C      1  0.4138460000000  0.5616670000000  0.5132590000000 1.0
C      1  0.5515410000000  0.5594250000000  0.5654190000000 1.0
C      1  0.5328540000000  0.5579360000000  0.4232320000000 1.0
C      1  0.5665030000000  0.4292460000000  0.4437050000000 1.0
C      1  0.4264270000000  0.4258730000000  0.4708000000000 1.0
C      1  0.5178120000000  0.4299010000000  0.5931900000000 1.0
C      1  0.4457590000000  0.4162120000000  0.4519560000000 1.0
C      1  0.4900070000000  0.4223480000000  0.5760460000000 1.0
C      1  0.5689730000000  0.4204480000000  0.4710390000000 1.0
C      1  0.4440730000000  0.5029240000000  0.6090040000000 1.0
C      1  0.6273810000000  0.5066430000000  0.4943100000000 1.0
C      1  0.4407270000000  0.5014470000000  0.3965780000000 1.0
C      1  0.4387620000000  0.5308300000000  0.4061730000000 1.0
C      1  0.4523070000000  0.5325140000000  0.6023210000000 1.0
C      1  0.6144900000000  0.5337260000000  0.4903530000000 1.0
C      1  0.5708650000000  0.5768060000000  0.4816070000000 1.0
C      1  0.4478450000000  0.5783240000000  0.4497320000000 1.0
C      1  0.4824940000000  0.5770140000000  0.5705070000000 1.0
C      1  0.5795740000000  0.4563850000000  0.4395930000000 1.0
C      1  0.4067980000000  0.4623990000000  0.4674190000000 1.0
C      1  0.5245440000000  0.4582010000000  0.5954220000000 1.0
C      1  0.4876900000000  0.5561660000000  0.4101070000000 1.0
C      1  0.4287590000000  0.5591320000000  0.5591040000000 1.0
C      1  0.5861320000000  0.5581470000000  0.5307560000000 1.0
C      1  0.5132850000000  0.4659300000000  0.5669750000000 1.0
C      1  0.5342630000000  0.4712860000000  0.4409270000000 1.0
C      1  0.4244160000000  0.4648110000000  0.4902430000000 1.0
C      1  0.5211400000000  0.5564480000000  0.5168280000000 1.0
C      1  0.5105940000000  0.5655790000000  0.4680800000000 1.0
C      1  0.4740630000000  0.5572350000000  0.5065610000000 1.0
C      1  0.4856130000000  0.5144130000000  0.5407190000000 1.0
C      1  0.5252900000000  0.5091170000000  0.4908310000000 1.0
C      1  0.4779460000000  0.5181970000000  0.4622260000000 1.0
C      1  0.5303350000000  0.6027070000000  0.5024390000000 1.0
C      1  0.4880870000000  0.6032120000000  0.4722250000000 1.0
C      1  0.4840700000000  0.6020810000000  0.5236000000000 1.0
C      1  0.5239330000000  0.5031010000000  0.6046790000000 1.0
C      1  0.5820390000000  0.5052060000000  0.4298530000000 1.0
C      1  0.3932160000000  0.5087340000000  0.4654060000000 1.0
C      1  0.5582200000000  0.5041950000000  0.5197990000000 1.0
C      1  0.4836020000000  0.5056750000000  0.4235380000000 1.0
C      1  0.4443000000000  0.5073200000000  0.5478490000000 1.0
C      1  0.4935260000000  0.4437370000000  0.5328360000000 1.0
C      1  0.5206590000000  0.4436650000000  0.4792660000000 1.0
C      1  0.4740220000000  0.4426760000000  0.4787180000000 1.0
C      1  0.4910050000000  0.5056810000000  0.6051740000000 1.0
C      1  0.5989690000000  0.5091290000000  0.4526740000000 1.0
C      1  0.4132370000000  0.5078200000000  0.4412470000000 1.0
C      1  0.4110840000000  0.4598890000000  0.5166420000000 1.0
C      1  0.5516680000000  0.4380170000000  0.5729690000000 1.0
C      1  0.5275330000000  0.4606280000000  0.4147080000000 1.0
C      1  0.4058400000000  0.5110470000000  0.5098070000000 1.0
C      1  0.5591350000000  0.5159780000000  0.5755920000000 1.0
C      1  0.5424360000000  0.5137930000000  0.4076420000000 1.0
C      1  0.5109610000000  0.4617040000000  0.5212420000000 1.0
C      1  0.5094890000000  0.4648640000000  0.4941790000000 1.0
C      1  0.4823850000000  0.4622180000000  0.4948700000000 1.0
C      1  0.5022420000000  0.4415350000000  0.5586710000000 1.0
C      1  0.5414860000000  0.4547180000000  0.4639640000000 1.0
C      1  0.4455950000000  0.4510270000000  0.4776030000000 1.0
C      1  0.4439420000000  0.5942310000000  0.4942920000000 1.0
C      1  0.5231750000000  0.5938030000000  0.5516060000000 1.0
C      1  0.5361010000000  0.5959750000000  0.4552580000000 1.0
C      1  0.4721540000000  0.6029580000000  0.4962730000000 1.0
C      1  0.5131210000000  0.6038920000000  0.5262280000000 1.0
C      1  0.5179990000000  0.6051940000000  0.4762390000000 1.0
C      1  0.5502330000000  0.4522450000000  0.5228940000000 1.0
C      1  0.4874170000000  0.4454790000000  0.4509660000000 1.0
C      1  0.4626180000000  0.4463360000000  0.5329200000000 1.0
C      1  0.4826890000000  0.5084080000000  0.3950740000000 1.0
C      1  0.4224140000000  0.5085320000000  0.5683700000000 1.0
C      1  0.5979580000000  0.5023300000000  0.5228070000000 1.0
C      1  0.5150600000000  0.5286260000000  0.5099440000000 1.0
C      1  0.4879780000000  0.5334350000000  0.4773320000000 1.0
C      1  0.4850620000000  0.5274370000000  0.5039360000000 1.0
C      1  0.4628300000000  0.5455880000000  0.4069470000000 1.0
C      1  0.4397960000000  0.5468170000000  0.5814700000000 1.0
C      1  0.6013940000000  0.5482870000000  0.5112790000000 1.0
C      1  0.5396280000000  0.4060990000000  0.5087620000000 1.0
C      1  0.4977420000000  0.4019430000000  0.4579800000000 1.0
C      1  0.4692290000000  0.4041450000000  0.5215190000000 1.0
C      1  0.6009970000000  0.4904710000000  0.5487650000000 1.0
C      1  0.4911820000000  0.4829310000000  0.3855660000000 1.0
C      1  0.4080970000000  0.4842540000000  0.5661440000000 1.0
C      1  0.4540030000000  0.3985520000000  0.4943280000000 1.0
C      1  0.5168170000000  0.4004490000000  0.5505310000000 1.0
C      1  0.5277560000000  0.3998310000000  0.4577210000000 1.0
C      1  0.4636840000000  0.4923400000000  0.3808870000000 1.0
C      1  0.4214550000000  0.4937400000000  0.5930640000000 1.0
C      1  0.6251110000000  0.4982630000000  0.5207970000000 1.0
C      1  0.4159010000000  0.5436110000000  0.5355460000000 1.0
C      1  0.5697830000000  0.5393410000000  0.5565580000000 1.0
C      1  0.5171770000000  0.5375950000000  0.4105950000000 1.0
C      1  0.5425160000000  0.4813180000000  0.6000070000000 1.0
C      1  0.5730640000000  0.4789980000000  0.4207860000000 1.0
C      1  0.3882090000000  0.4829440000000  0.4781960000000 1.0
C      1  0.4166550000000  0.4825840000000  0.4239200000000 1.0
C      1  0.4676430000000  0.4884830000000  0.6184920000000 1.0
C      1  0.6080530000000  0.4877340000000  0.4714160000000 1.0
C      1  0.5887650000000  0.4495320000000  0.5101280000000 1.0
C      1  0.4573700000000  0.4597360000000  0.4209480000000 1.0
C      1  0.4473200000000  0.4524920000000  0.5722800000000 1.0
C      1  0.5596980000000  0.5800070000000  0.4561900000000 1.0
C      1  0.4302620000000  0.5822600000000  0.4718510000000 1.0
C      1  0.5101290000000  0.5808730000000  0.5739140000000 1.0
C      1  0.5067260000000  0.5208830000000  0.4333020000000 1.0
C      1  0.4298790000000  0.5202010000000  0.5259250000000 1.0
C      1  0.5553640000000  0.5301990000000  0.5326630000000 1.0
C      1  0.5478600000000  0.5416680000000  0.4670320000000 1.0
C      1  0.4447340000000  0.5446850000000  0.4802920000000 1.0
C      1  0.5066790000000  0.5447270000000  0.5559110000000 1.0
C      1  0.4420670000000  0.4825920000000  0.4157300000000 1.0
C      1  0.4564780000000  0.4763110000000  0.5836850000000 1.0
C      1  0.5881860000000  0.4934060000000  0.4931430000000 1.0
C      1  0.4898750000000  0.5791890000000  0.4272100000000 1.0
C      1  0.4427720000000  0.5805260000000  0.5439710000000 1.0
C      1  0.5670300000000  0.5792310000000  0.5277490000000 1.0
C      1  0.5666940000000  0.4958470000000  0.4743600000000 1.0
C      1  0.4379610000000  0.4994600000000  0.4597350000000 1.0
C      1  0.4777960000000  0.4944310000000  0.5796140000000 1.0
C      1  0.5638580000000  0.4883760000000  0.5793290000000 1.0
C      1  0.5491750000000  0.4857150000000  0.4056270000000 1.0
C      1  0.3930260000000  0.4845820000000  0.5068430000000 1.0
C      1  0.4225600000000  0.4289790000000  0.5184580000000 1.0
C      1  0.5661270000000  0.4281380000000  0.5516110000000 1.0
C      1  0.5215280000000  0.4306360000000  0.4213930000000 1.0
C      1  0.4402660000000  0.4411240000000  0.4344460000000 1.0
C      1  0.4669640000000  0.4387140000000  0.5876000000000 1.0
C      1  0.5887080000000  0.4401640000000  0.4830750000000 1.0
C      1  0.5119420000000  0.5172020000000  0.5512730000000 1.0
C      1  0.5442080000000  0.5136840000000  0.4681880000000 1.0
C      1  0.4444100000000  0.5156260000000  0.4830640000000 1.0
C      1  0.5257380000000  0.4990320000000  0.5364700000000 1.0
C      1  0.5079870000000  0.4898070000000  0.4750570000000 1.0
C      1  0.4630950000000  0.5079340000000  0.5017320000000 1.0
C      1  0.4654730000000  0.4019300000000  0.4682900000000 1.0
C      1  0.4897120000000  0.4032360000000  0.5482040000000 1.0
C      1  0.5462500000000  0.4040660000000  0.4802840000000 1.0
C      1  0.4556450000000  0.4773820000000  0.4619260000000 1.0
C      1  0.4894030000000  0.4804720000000  0.5594490000000 1.0
C      1  0.5540850000000  0.4722360000000  0.4843260000000 1.0
C      1  0.5440090000000  0.5748840000000  0.5441600000000 1.0
C      1  0.5178940000000  0.5766440000000  0.4388850000000 1.0
C      1  0.4318270000000  0.5823180000000  0.5179830000000 1.0
C      1  0.4270050000000  0.5337590000000  0.4321590000000 1.0
C      1  0.4807550000000  0.5330000000000  0.5988150000000 1.0
C      1  0.5965880000000  0.5330290000000  0.4679420000000 1.0
END
