TITL C-2441164-471-1085 0.0085840233005577 125000 -12577.1551332753 0 0 85 (C1) n - 1
REM
REM in /home/bkarasulu/work/CARBON/AIRSS/Generating-Clusters/ReaxFF-fromJPCA2015/Units_Real/with-SteepDescent/Higher-Symm
REM
REM
REM
REM
REM
REM ./C.cell (1df0a924f5614ab8850e4351716899ee)
REM
REM compiler GCC version 9.2.1 20190827 (Red Hat 9.2.1-1)
REM options -cpp -mtune=generic -march=x86-64 -g -O0 -fpre-include=/usr/include/finclude/math-vector-fortran.h
REM seed -1057739327 968650125 708426845 -567846869 1919418069 26647172 -1548576103 -1506882867 -1455666689 478058180 1215908112 -1844648437 -798571081 -1353722239 741416217 264025181 1217297702 -965496956 -2105372887 1313614910 -1383946044 402380404 1887570762 -1324463363 -504850670 -1366841146 1422667985 1804061327 903768953 281029375 1501099145 376678747 1815498733
REM
CELL 1.54180   50.00000   50.00000   50.00000   90.00000   90.00000   90.00000
LATT -1
SFAC C  
C      1  0.4439920000000  0.4602950000000  0.5542640000000 1.0
C      1  0.4454250000000  0.5500290000000  0.5348960000000 1.0
C      1  0.4407800000000  0.5349660000000  0.4465290000000 1.0
C      1  0.4455010000000  0.4447020000000  0.4612670000000 1.0
C      1  0.5460670000000  0.5018200000000  0.5453520000000 1.0
C      1  0.5548490000000  0.5401520000000  0.5033010000000 1.0
C      1  0.5505240000000  0.5020790000000  0.4497800000000 1.0
C      1  0.5439090000000  0.4500530000000  0.5034700000000 1.0
C      1  0.5176390000000  0.4995510000000  0.5367650000000 1.0
C      1  0.5261270000000  0.5309760000000  0.5023230000000 1.0
C      1  0.5255480000000  0.5017720000000  0.4645940000000 1.0
C      1  0.5186530000000  0.4656150000000  0.5026370000000 1.0
C      1  0.5344270000000  0.5424820000000  0.4358360000000 1.0
C      1  0.5358990000000  0.4414240000000  0.4500050000000 1.0
C      1  0.5342140000000  0.4490470000000  0.5606950000000 1.0
C      1  0.5340620000000  0.5623480000000  0.5495730000000 1.0
C      1  0.4645030000000  0.5141040000000  0.4481490000000 1.0
C      1  0.4655120000000  0.4392780000000  0.4852450000000 1.0
C      1  0.4606960000000  0.4816360000000  0.5682470000000 1.0
C      1  0.4671240000000  0.5551580000000  0.5136410000000 1.0
C      1  0.5578750000000  0.4585250000000  0.5455540000000 1.0
C      1  0.5544200000000  0.5492500000000  0.5340920000000 1.0
C      1  0.5581030000000  0.5438390000000  0.4531620000000 1.0
C      1  0.5588780000000  0.4567280000000  0.4604780000000 1.0
C      1  0.4843210000000  0.4899810000000  0.4840550000000 1.0
C      1  0.4756930000000  0.4913100000000  0.5125730000000 1.0
C      1  0.4811000000000  0.5245180000000  0.5089810000000 1.0
C      1  0.4825670000000  0.5188810000000  0.4791240000000 1.0
C      1  0.4526820000000  0.5077860000000  0.5637220000000 1.0
C      1  0.4588050000000  0.5678690000000  0.4851580000000 1.0
C      1  0.4486150000000  0.4878100000000  0.4499290000000 1.0
C      1  0.4555850000000  0.4397380000000  0.5104500000000 1.0
C      1  0.4904980000000  0.5553420000000  0.5605400000000 1.0
C      1  0.4924090000000  0.5628330000000  0.4477870000000 1.0
C      1  0.4938130000000  0.4451100000000  0.4414690000000 1.0
C      1  0.4927680000000  0.4402250000000  0.5547510000000 1.0
C      1  0.5091970000000  0.4310830000000  0.4596250000000 1.0
C      1  0.5066580000000  0.4583990000000  0.5696200000000 1.0
C      1  0.5048890000000  0.5717350000000  0.5440140000000 1.0
C      1  0.5051810000000  0.5417130000000  0.4321950000000 1.0
C      1  0.5532070000000  0.5599360000000  0.4782200000000 1.0
C      1  0.5572290000000  0.4757240000000  0.4373850000000 1.0
C      1  0.5552680000000  0.4355280000000  0.5266580000000 1.0
C      1  0.5571810000000  0.5278310000000  0.5539440000000 1.0
C      1  0.5182120000000  0.4793210000000  0.4202170000000 1.0
C      1  0.5182020000000  0.4163250000000  0.5238300000000 1.0
C      1  0.5174380000000  0.5248890000000  0.5803090000000 1.0
C      1  0.5205020000000  0.5821130000000  0.4842160000000 1.0
C      1  0.4442670000000  0.4942690000000  0.5180380000000 1.0
C      1  0.4261820000000  0.5141320000000  0.5062200000000 1.0
C      1  0.4142270000000  0.5076900000000  0.4803510000000 1.0
C      1  0.4271620000000  0.4834420000000  0.4688210000000 1.0
C      1  0.5366280000000  0.4583840000000  0.4245250000000 1.0
C      1  0.5356130000000  0.4227400000000  0.5453170000000 1.0
C      1  0.5382470000000  0.5424170000000  0.5723300000000 1.0
C      1  0.5254000000000  0.5588500000000  0.4722960000000 1.0
C      1  0.5026390000000  0.4791330000000  0.5229050000000 1.0
C      1  0.5076500000000  0.5237370000000  0.5225690000000 1.0
C      1  0.5132890000000  0.5275720000000  0.4752610000000 1.0
C      1  0.5108250000000  0.4800860000000  0.4775980000000 1.0
C      1  0.4805840000000  0.4617150000000  0.4238800000000 1.0
C      1  0.4792530000000  0.4219770000000  0.5394100000000 1.0
C      1  0.4777060000000  0.5379730000000  0.5771960000000 1.0
C      1  0.4808860000000  0.5793320000000  0.4688420000000 1.0
C      1  0.4955280000000  0.5894900000000  0.4946610000000 1.0
C      1  0.4937740000000  0.4908710000000  0.4173940000000 1.0
C      1  0.4944680000000  0.4147180000000  0.5110370000000 1.0
C      1  0.4950050000000  0.5101180000000  0.5836320000000 1.0
C      1  0.5645860000000  0.4640300000000  0.4884000000000 1.0
C      1  0.5651100000000  0.4839650000000  0.5326930000000 1.0
C      1  0.5715840000000  0.5151470000000  0.4925140000000 1.0
C      1  0.5705980000000  0.5185610000000  0.4640830000000 1.0
C      1  0.4920640000000  0.4269470000000  0.4845530000000 1.0
C      1  0.4892960000000  0.4826320000000  0.5758770000000 1.0
C      1  0.4885410000000  0.5752530000000  0.5194980000000 1.0
C      1  0.4870360000000  0.5166580000000  0.4291850000000 1.0
C      1  0.4203150000000  0.4535410000000  0.4735650000000 1.0
C      1  0.4274650000000  0.4771060000000  0.5361460000000 1.0
C      1  0.4215550000000  0.5407820000000  0.5210550000000 1.0
C      1  0.4136420000000  0.5277880000000  0.4576960000000 1.0
C      1  0.4523270000000  0.4367890000000  0.5376090000000 1.0
C      1  0.4516920000000  0.5351140000000  0.5614130000000 1.0
C      1  0.4466500000000  0.5534050000000  0.4656580000000 1.0
C      1  0.4548430000000  0.4619990000000  0.4384550000000 1.0
C      1  0.5714100000000  0.4886470000000  0.5037960000000 1.0
END
