TITL C-2441165-58-918 0.00109077021683302 125000 -515.873103933617 0 0 5 (Cs) n - 1
REM
REM in /home/bkarasulu/work/CARBON/AIRSS/Generating-Clusters/ReaxFF-fromJPCA2015/Units_Real/with-SteepDescent/Higher-Symm
REM
REM
REM
REM
REM
REM ./C.cell (1df0a924f5614ab8850e4351716899ee)
REM
REM compiler GCC version 9.2.1 20190827 (Red Hat 9.2.1-1)
REM options -cpp -mtune=generic -march=x86-64 -g -O0 -fpre-include=/usr/include/finclude/math-vector-fortran.h
REM seed -169413981 1495526242 2009283352 -1861167968 -203778726 1040847714 1153709468 1834480318 1204441689 -1179080946 1768684251 -800631816 -1223423325 -1744369984 1830964804 -263461430 -1240643644 -2107942150 -276515102 884358747 539136170 -802925489 -2042531991 2065383517 -65022381 -1910870997 -1334284979 740127827 937804287 295992226 -1438092528 551458129 -1794717265
REM
CELL 1.54180   50.00000   50.00000   50.00000   90.00000   90.00000   90.00000
LATT -1
SFAC C  
C      1  0.4961320000000  0.5282770000000  0.4870820000000 1.0
C      1  0.4958620000000  0.4775040000000  0.5156400000000 1.0
C      1  0.4961890000000  0.5285150000000  0.5162880000000 1.0
C      1  0.4957940000000  0.4777280000000  0.4877220000000 1.0
C      1  0.5109190000000  0.5044170000000  0.5018490000000 1.0
END
