TITL C-2441166-8118-206 0.0329112965209559 125000 -13869.2040997657 0 0 100 (C1) n - 1
REM
REM in /home/bkarasulu/work/CARBON/AIRSS/Generating-Clusters/ReaxFF-fromJPCA2015/Units_Real/with-SteepDescent/Higher-Symm
REM
REM
REM
REM
REM
REM ./C.cell (1df0a924f5614ab8850e4351716899ee)
REM
REM compiler GCC version 9.2.1 20190827 (Red Hat 9.2.1-1)
REM options -cpp -mtune=generic -march=x86-64 -g -O0 -fpre-include=/usr/include/finclude/math-vector-fortran.h
REM seed -2125679149 287573798 -71948359 -2036876655 79215101 1597648497 2023317054 1420663714 1108954366 1171392228 101335063 -1426414406 1574333062 -676208813 53057891 -2005201721 1479869627 1192456558 -2099323210 -1967925256 632519098 2042721356 -913448369 -914942264 -1338263221 -1381415282 -1704840714 105666190 -1313997969 613784101 -264080133 -308802275 1517919622
REM
CELL 1.54180   50.00000   50.00000   50.00000   90.00000   90.00000   90.00000
LATT -1
SFAC C  
C      1  0.4773620000000  0.5847750000000  0.5126000000000 1.0
C      1  0.4805790000000  0.5860060000000  0.4838490000000 1.0
C      1  0.5085610000000  0.5842950000000  0.4756540000000 1.0
C      1  0.5227090000000  0.5836370000000  0.5010990000000 1.0
C      1  0.5039950000000  0.5845470000000  0.5227580000000 1.0
C      1  0.5065360000000  0.5641630000000  0.5485570000000 1.0
C      1  0.4553960000000  0.5636350000000  0.5214790000000 1.0
C      1  0.4619060000000  0.5735110000000  0.4626140000000 1.0
C      1  0.5065050000000  0.5683440000000  0.4484920000000 1.0
C      1  0.5480570000000  0.5640200000000  0.5089920000000 1.0
C      1  0.4470120000000  0.4738100000000  0.4961670000000 1.0
C      1  0.4861400000000  0.4760670000000  0.4429010000000 1.0
C      1  0.5468240000000  0.4717120000000  0.4749600000000 1.0
C      1  0.5438220000000  0.4735190000000  0.5381460000000 1.0
C      1  0.4804930000000  0.4737180000000  0.5512860000000 1.0
C      1  0.5664830000000  0.4817800000000  0.5193120000000 1.0
C      1  0.5040430000000  0.4842650000000  0.5694690000000 1.0
C      1  0.4369070000000  0.4819960000000  0.5251660000000 1.0
C      1  0.4556710000000  0.4816830000000  0.4461990000000 1.0
C      1  0.5406850000000  0.4782490000000  0.4455310000000 1.0
C      1  0.4832320000000  0.4185960000000  0.4814990000000 1.0
C      1  0.5126050000000  0.4192170000000  0.4781790000000 1.0
C      1  0.5239770000000  0.4175380000000  0.5049040000000 1.0
C      1  0.5019090000000  0.4160980000000  0.5228520000000 1.0
C      1  0.4766750000000  0.4171800000000  0.5092290000000 1.0
C      1  0.5721660000000  0.5505910000000  0.4962200000000 1.0
C      1  0.5260080000000  0.5509760000000  0.5675920000000 1.0
C      1  0.4437400000000  0.5499850000000  0.5454480000000 1.0
C      1  0.4421160000000  0.5513390000000  0.4602880000000 1.0
C      1  0.5196080000000  0.5500130000000  0.4285830000000 1.0
C      1  0.4805440000000  0.4355850000000  0.5651040000000 1.0
C      1  0.4316770000000  0.4361370000000  0.5012870000000 1.0
C      1  0.4786860000000  0.4360020000000  0.4356080000000 1.0
C      1  0.5554110000000  0.4352300000000  0.4592060000000 1.0
C      1  0.5563160000000  0.4345090000000  0.5399050000000 1.0
C      1  0.5697300000000  0.4501520000000  0.5054900000000 1.0
C      1  0.5183970000000  0.4472190000000  0.5647040000000 1.0
C      1  0.4415580000000  0.4513570000000  0.5373220000000 1.0
C      1  0.4466630000000  0.4525340000000  0.4553560000000 1.0
C      1  0.5268900000000  0.4535870000000  0.4363450000000 1.0
C      1  0.4278350000000  0.5403860000000  0.4825800000000 1.0
C      1  0.5037880000000  0.5255670000000  0.4351070000000 1.0
C      1  0.5678470000000  0.5400940000000  0.4689440000000 1.0
C      1  0.5494510000000  0.5404830000000  0.5567460000000 1.0
C      1  0.4612670000000  0.5406130000000  0.5646100000000 1.0
C      1  0.4301710000000  0.5542660000000  0.5068170000000 1.0
C      1  0.4784310000000  0.5621620000000  0.4425490000000 1.0
C      1  0.5500980000000  0.5526550000000  0.4514710000000 1.0
C      1  0.5610910000000  0.5547620000000  0.5355820000000 1.0
C      1  0.4849840000000  0.5555280000000  0.5688480000000 1.0
C      1  0.5190070000000  0.5032490000000  0.4760380000000 1.0
C      1  0.5172510000000  0.4957570000000  0.5173530000000 1.0
C      1  0.4941440000000  0.4999980000000  0.5270220000000 1.0
C      1  0.4769940000000  0.4993140000000  0.4936070000000 1.0
C      1  0.4974910000000  0.4894600000000  0.4802990000000 1.0
C      1  0.5439190000000  0.5344550000000  0.4328260000000 1.0
C      1  0.5763460000000  0.5350650000000  0.5208230000000 1.0
C      1  0.5036620000000  0.5365240000000  0.5795720000000 1.0
C      1  0.4261030000000  0.5344560000000  0.5276940000000 1.0
C      1  0.4577190000000  0.5374570000000  0.4399960000000 1.0
C      1  0.4588550000000  0.4523210000000  0.5608140000000 1.0
C      1  0.4300440000000  0.4532520000000  0.4794610000000 1.0
C      1  0.4980990000000  0.4539120000000  0.4257270000000 1.0
C      1  0.5709640000000  0.4501560000000  0.4767280000000 1.0
C      1  0.5465300000000  0.4514750000000  0.5599750000000 1.0
C      1  0.5347170000000  0.5104910000000  0.4992920000000 1.0
C      1  0.5111060000000  0.5142400000000  0.5390150000000 1.0
C      1  0.4711940000000  0.5107420000000  0.5196740000000 1.0
C      1  0.4666050000000  0.5164740000000  0.4743590000000 1.0
C      1  0.5152670000000  0.5240410000000  0.4612530000000 1.0
C      1  0.5089460000000  0.5435690000000  0.4802300000000 1.0
C      1  0.5264490000000  0.5414050000000  0.5044330000000 1.0
C      1  0.5064210000000  0.5416760000000  0.5279530000000 1.0
C      1  0.4774010000000  0.5411210000000  0.5151480000000 1.0
C      1  0.4802510000000  0.5394830000000  0.4854750000000 1.0
C      1  0.4441000000000  0.4969580000000  0.4735780000000 1.0
C      1  0.5014330000000  0.4954180000000  0.4265330000000 1.0
C      1  0.5591070000000  0.4950630000000  0.4897620000000 1.0
C      1  0.5313830000000  0.4941340000000  0.5574700000000 1.0
C      1  0.4591700000000  0.4954210000000  0.5451250000000 1.0
C      1  0.5547410000000  0.5128970000000  0.5546670000000 1.0
C      1  0.4649550000000  0.5129930000000  0.5682560000000 1.0
C      1  0.4237680000000  0.5129180000000  0.4881610000000 1.0
C      1  0.4799500000000  0.5110080000000  0.4157260000000 1.0
C      1  0.5673350000000  0.5103620000000  0.4650360000000 1.0
C      1  0.4918450000000  0.5089090000000  0.5788080000000 1.0
C      1  0.4232530000000  0.5073840000000  0.5166720000000 1.0
C      1  0.4558940000000  0.5091980000000  0.4307840000000 1.0
C      1  0.5523940000000  0.5044960000000  0.4413590000000 1.0
C      1  0.5719980000000  0.5080200000000  0.5321400000000 1.0
C      1  0.5037870000000  0.4251790000000  0.5537880000000 1.0
C      1  0.4488960000000  0.4279520000000  0.5211210000000 1.0
C      1  0.4642560000000  0.4287460000000  0.4584830000000 1.0
C      1  0.5294050000000  0.4290840000000  0.4530460000000 1.0
C      1  0.5532690000000  0.4271070000000  0.5135180000000 1.0
C      1  0.4894450000000  0.4610910000000  0.5241200000000 1.0
C      1  0.4744190000000  0.4603220000000  0.5002560000000 1.0
C      1  0.4955850000000  0.4607170000000  0.4776730000000 1.0
C      1  0.5228190000000  0.4576020000000  0.4883700000000 1.0
C      1  0.5187570000000  0.4628350000000  0.5171810000000 1.0
END
