TITL C-2441154-10-270 0.105069819888688 125000 -16068.58065116 0 0 125 (C1) n - 1
REM
REM in /home/bkarasulu/work/CARBON/AIRSS/Generating-Clusters/ReaxFF-fromJPCA2015/Units_Real/with-SteepDescent/Higher-Symm
REM
REM
REM
REM
REM
REM ./C.cell (1df0a924f5614ab8850e4351716899ee)
REM
REM compiler GCC version 9.2.1 20190827 (Red Hat 9.2.1-1)
REM options -cpp -mtune=generic -march=x86-64 -g -O0 -fpre-include=/usr/include/finclude/math-vector-fortran.h
REM seed -1210706806 1968123490 -1510436212 -1584256726 1269428828 938220842 1411703980 58312251 -12897239 1062020268 562892852 1941602932 1379633773 350226603 -1911988393 -839971385 -1214935691 1988783572 568628749 -1025934849 293182373 -635360382 -1519595750 307915754 -1067642718 -1177703817 1175046792 1190196497 -582188981 -510877460 -1679602282 -234647582 -1300917039
REM
CELL 1.54180   50.00000   50.00000   50.00000   90.00000   90.00000   90.00000
LATT -1
SFAC C  
C      1  0.5231750000000  0.5352950000000  0.4807770000000 1.0
C      1  0.5363670000000  0.4969240000000  0.5467950000000 1.0
C      1  0.5253290000000  0.4668720000000  0.4789580000000 1.0
C      1  0.5704230000000  0.5030180000000  0.4330130000000 1.0
C      1  0.5692580000000  0.5568240000000  0.5343530000000 1.0
C      1  0.5714870000000  0.4410530000000  0.5320350000000 1.0
C      1  0.5845950000000  0.4721990000000  0.4970740000000 1.0
C      1  0.5852410000000  0.5159720000000  0.4755170000000 1.0
C      1  0.5867000000000  0.5132100000000  0.5240410000000 1.0
C      1  0.4659350000000  0.4597040000000  0.5772470000000 1.0
C      1  0.4689920000000  0.4544000000000  0.4272200000000 1.0
C      1  0.4687740000000  0.5868960000000  0.4972790000000 1.0
C      1  0.4325180000000  0.4769320000000  0.5443320000000 1.0
C      1  0.4316770000000  0.4751650000000  0.4563880000000 1.0
C      1  0.4306590000000  0.5491990000000  0.4983670000000 1.0
C      1  0.4624750000000  0.5805670000000  0.5259210000000 1.0
C      1  0.4598630000000  0.4368500000000  0.5584170000000 1.0
C      1  0.4631660000000  0.4818810000000  0.4165060000000 1.0
C      1  0.4381280000000  0.5676960000000  0.5347100000000 1.0
C      1  0.4366450000000  0.4371240000000  0.5401120000000 1.0
C      1  0.4415380000000  0.5004450000000  0.4264430000000 1.0
C      1  0.4640890000000  0.5348820000000  0.5795860000000 1.0
C      1  0.4662080000000  0.4185590000000  0.4880610000000 1.0
C      1  0.4694310000000  0.5529010000000  0.4376030000000 1.0
C      1  0.4253540000000  0.4474060000000  0.4574560000000 1.0
C      1  0.4251580000000  0.5626150000000  0.4738760000000 1.0
C      1  0.4263460000000  0.4916830000000  0.5673780000000 1.0
C      1  0.5289920000000  0.4311410000000  0.5266680000000 1.0
C      1  0.5290370000000  0.5114540000000  0.4265270000000 1.0
C      1  0.5225060000000  0.5615070000000  0.5417600000000 1.0
C      1  0.5345060000000  0.5011560000000  0.4514000000000 1.0
C      1  0.5419910000000  0.5265200000000  0.5148480000000 1.0
C      1  0.5316250000000  0.4595270000000  0.5228610000000 1.0
C      1  0.5568080000000  0.4812440000000  0.4180780000000 1.0
C      1  0.5558920000000  0.5808200000000  0.5221760000000 1.0
C      1  0.5565590000000  0.4398910000000  0.5583420000000 1.0
C      1  0.4981700000000  0.5235680000000  0.5344160000000 1.0
C      1  0.4980100000000  0.4488360000000  0.5078600000000 1.0
C      1  0.4961030000000  0.5100100000000  0.4555840000000 1.0
C      1  0.4843890000000  0.5493870000000  0.4857380000000 1.0
C      1  0.4947550000000  0.4790120000000  0.5444620000000 1.0
C      1  0.4846260000000  0.4606030000000  0.4649120000000 1.0
C      1  0.4507850000000  0.4842960000000  0.5813200000000 1.0
C      1  0.4496150000000  0.4395140000000  0.4435240000000 1.0
C      1  0.4494960000000  0.5799920000000  0.4758920000000 1.0
C      1  0.4829280000000  0.5036300000000  0.4139860000000 1.0
C      1  0.4819350000000  0.5739260000000  0.5468670000000 1.0
C      1  0.4830100000000  0.4259440000000  0.5446680000000 1.0
C      1  0.4172020000000  0.4966120000000  0.4426190000000 1.0
C      1  0.4158950000000  0.5529900000000  0.5222580000000 1.0
C      1  0.4152440000000  0.4561280000000  0.5343760000000 1.0
C      1  0.5326620000000  0.5066420000000  0.5844790000000 1.0
C      1  0.5375100000000  0.4259110000000  0.4634970000000 1.0
C      1  0.5357480000000  0.5707430000000  0.4543100000000 1.0
C      1  0.5129240000000  0.5489600000000  0.5658950000000 1.0
C      1  0.5166750000000  0.4130670000000  0.5083360000000 1.0
C      1  0.5167540000000  0.5375080000000  0.4221910000000 1.0
C      1  0.5448440000000  0.5752530000000  0.4958020000000 1.0
C      1  0.5451630000000  0.4637890000000  0.5683930000000 1.0
C      1  0.5450860000000  0.4595570000000  0.4332700000000 1.0
C      1  0.5377150000000  0.5139340000000  0.4755310000000 1.0
C      1  0.5260600000000  0.5187100000000  0.5346000000000 1.0
C      1  0.5362880000000  0.4771780000000  0.5012620000000 1.0
C      1  0.5079750000000  0.4933630000000  0.5812680000000 1.0
C      1  0.5099860000000  0.4296620000000  0.4550530000000 1.0
C      1  0.5069810000000  0.5715880000000  0.4604630000000 1.0
C      1  0.4947760000000  0.4638850000000  0.5755310000000 1.0
C      1  0.4953340000000  0.4481850000000  0.4385130000000 1.0
C      1  0.4942100000000  0.5790910000000  0.4850880000000 1.0
C      1  0.4509680000000  0.4434530000000  0.5159480000000 1.0
C      1  0.4552590000000  0.5155410000000  0.4465920000000 1.0
C      1  0.4509200000000  0.5427810000000  0.5425570000000 1.0
C      1  0.4380360000000  0.5357000000000  0.5669380000000 1.0
C      1  0.4394100000000  0.4260650000000  0.4959960000000 1.0
C      1  0.4426290000000  0.5396930000000  0.4383300000000 1.0
C      1  0.4148410000000  0.5094830000000  0.4716470000000 1.0
C      1  0.4150610000000  0.5241700000000  0.5267860000000 1.0
C      1  0.4159400000000  0.4666880000000  0.5068900000000 1.0
C      1  0.4359320000000  0.5216600000000  0.5040280000000 1.0
C      1  0.4368310000000  0.4855550000000  0.5184740000000 1.0
C      1  0.4401580000000  0.4889490000000  0.4787760000000 1.0
C      1  0.5339820000000  0.5871600000000  0.5397990000000 1.0
C      1  0.5303980000000  0.4269100000000  0.5559660000000 1.0
C      1  0.5307500000000  0.4892170000000  0.4062400000000 1.0
C      1  0.4197700000000  0.5169260000000  0.5547300000000 1.0
C      1  0.4206660000000  0.4464590000000  0.4861180000000 1.0
C      1  0.4210970000000  0.5381680000000  0.4584690000000 1.0
C      1  0.5634140000000  0.5322040000000  0.4337220000000 1.0
C      1  0.5592370000000  0.5437650000000  0.5588860000000 1.0
C      1  0.5641410000000  0.4257750000000  0.5083030000000 1.0
C      1  0.4882090000000  0.4212950000000  0.5125110000000 1.0
C      1  0.4880950000000  0.5350430000000  0.4236350000000 1.0
C      1  0.4849470000000  0.5528980000000  0.5676700000000 1.0
C      1  0.4665000000000  0.5070340000000  0.5747270000000 1.0
C      1  0.4655660000000  0.4383680000000  0.4672890000000 1.0
C      1  0.4652510000000  0.5580320000000  0.4661160000000 1.0
C      1  0.4866440000000  0.4741440000000  0.5166310000000 1.0
C      1  0.4844540000000  0.4920580000000  0.4735190000000 1.0
C      1  0.4837490000000  0.5286090000000  0.5111260000000 1.0
C      1  0.5059860000000  0.5827350000000  0.5349210000000 1.0
C      1  0.5027350000000  0.4364070000000  0.5622910000000 1.0
C      1  0.5023860000000  0.4879340000000  0.4085450000000 1.0
C      1  0.4587750000000  0.5221950000000  0.5226880000000 1.0
C      1  0.4594680000000  0.4710340000000  0.5062040000000 1.0
C      1  0.4594880000000  0.5090600000000  0.4747040000000 1.0
C      1  0.5802670000000  0.4690430000000  0.5258240000000 1.0
C      1  0.5783650000000  0.4932600000000  0.4590370000000 1.0
C      1  0.5802050000000  0.5396010000000  0.5130620000000 1.0
C      1  0.4896450000000  0.5042650000000  0.5576800000000 1.0
C      1  0.5050900000000  0.4483620000000  0.4807070000000 1.0
C      1  0.5025240000000  0.5415910000000  0.4658750000000 1.0
C      1  0.5584040000000  0.5641390000000  0.4728360000000 1.0
C      1  0.5567990000000  0.4913160000000  0.5666630000000 1.0
C      1  0.5577810000000  0.4460570000000  0.4565180000000 1.0
C      1  0.5291860000000  0.5500610000000  0.5044210000000 1.0
C      1  0.5250770000000  0.4736050000000  0.5465750000000 1.0
C      1  0.5291590000000  0.4748230000000  0.4531060000000 1.0
C      1  0.5411160000000  0.4158140000000  0.4921000000000 1.0
C      1  0.5422470000000  0.5518950000000  0.4322230000000 1.0
C      1  0.5369040000000  0.5353170000000  0.5758510000000 1.0
C      1  0.5736130000000  0.4665650000000  0.4709510000000 1.0
C      1  0.5752980000000  0.5419270000000  0.4841470000000 1.0
C      1  0.5776760000000  0.4927790000000  0.5416270000000 1.0
C      1  0.5898930000000  0.5000880000000  0.4985700000000 1.0
C      1  0.5501730000000  0.5031000000000  0.4996140000000 1.0
END
