TITL C-2441167-4473-575 0.122009775891901 125000 -27324.4468822997 0 0 197 (C1) n - 1
REM
REM in /home/bkarasulu/work/CARBON/AIRSS/Generating-Clusters/ReaxFF-fromJPCA2015/Units_Real/with-SteepDescent/Higher-Symm
REM
REM
REM
REM
REM
REM ./C.cell (1df0a924f5614ab8850e4351716899ee)
REM
REM compiler GCC version 9.2.1 20190827 (Red Hat 9.2.1-1)
REM options -cpp -mtune=generic -march=x86-64 -g -O0 -fpre-include=/usr/include/finclude/math-vector-fortran.h
REM seed 1477054238 1430548616 651086065 883649829 978111833 1578317837 1221280812 1634927221 -1528668162 550737740 1922984445 -1688171353 -128229253 -1573351012 -1506915018 1066781852 -906767405 -847914442 -345721577 1543211058 37880016 468955359 -1999243584 630527079 1861122754 1558744274 -1034296510 -804900935 430110826 623215709 178293232 -1045509585 279996282
REM
CELL 1.54180   50.00000   50.00000   50.00000   90.00000   90.00000   90.00000
LATT -1
SFAC C  
C      1  0.5687340000000  0.5591190000000  0.5599510000000 1.0
C      1  0.4381990000000  0.5607630000000  0.5716230000000 1.0
C      1  0.4288800000000  0.5612350000000  0.4405670000000 1.0
C      1  0.5611230000000  0.5588620000000  0.4298770000000 1.0
C      1  0.5199350000000  0.3880880000000  0.5086250000000 1.0
C      1  0.4923210000000  0.3864750000000  0.5185450000000 1.0
C      1  0.4819440000000  0.3872400000000  0.4912720000000 1.0
C      1  0.5095120000000  0.3889640000000  0.4803490000000 1.0
C      1  0.5432990000000  0.4038850000000  0.5227410000000 1.0
C      1  0.4792310000000  0.4053890000000  0.5410450000000 1.0
C      1  0.4596290000000  0.4073620000000  0.4808350000000 1.0
C      1  0.5222270000000  0.4044950000000  0.4574670000000 1.0
C      1  0.4932680000000  0.5379460000000  0.4102780000000 1.0
C      1  0.5894030000000  0.5395550000000  0.4957280000000 1.0
C      1  0.5038600000000  0.5411530000000  0.5893950000000 1.0
C      1  0.4110360000000  0.5385710000000  0.5085330000000 1.0
C      1  0.5174540000000  0.4310870000000  0.5042760000000 1.0
C      1  0.4936560000000  0.4297350000000  0.5228380000000 1.0
C      1  0.4757010000000  0.4310550000000  0.4992240000000 1.0
C      1  0.4993420000000  0.4325960000000  0.4831670000000 1.0
C      1  0.4154710000000  0.5654390000000  0.5191580000000 1.0
C      1  0.4843400000000  0.5653840000000  0.4134030000000 1.0
C      1  0.5882150000000  0.5660860000000  0.4841370000000 1.0
C      1  0.5157620000000  0.5672220000000  0.5879110000000 1.0
C      1  0.4011170000000  0.4528600000000  0.5008440000000 1.0
C      1  0.4988000000000  0.4515000000000  0.4029860000000 1.0
C      1  0.5993860000000  0.4521900000000  0.4987860000000 1.0
C      1  0.5021030000000  0.4506770000000  0.5990650000000 1.0
C      1  0.4173230000000  0.4660160000000  0.4313950000000 1.0
C      1  0.5612530000000  0.4704130000000  0.4190820000000 1.0
C      1  0.5837050000000  0.4685100000000  0.5676860000000 1.0
C      1  0.4344380000000  0.4676690000000  0.5827890000000 1.0
C      1  0.4887230000000  0.5796070000000  0.5881360000000 1.0
C      1  0.4165310000000  0.5770550000000  0.4909790000000 1.0
C      1  0.5105490000000  0.5779190000000  0.4158630000000 1.0
C      1  0.5870140000000  0.5780040000000  0.5109160000000 1.0
C      1  0.4603190000000  0.5686760000000  0.5880520000000 1.0
C      1  0.4145720000000  0.5635030000000  0.4655730000000 1.0
C      1  0.5385410000000  0.5657390000000  0.4138140000000 1.0
C      1  0.5871760000000  0.5665170000000  0.5395490000000 1.0
C      1  0.4656740000000  0.5079200000000  0.4029600000000 1.0
C      1  0.6005780000000  0.5107600000000  0.4586180000000 1.0
C      1  0.5421690000000  0.5106720000000  0.6014950000000 1.0
C      1  0.4013880000000  0.5132500000000  0.5403520000000 1.0
C      1  0.5812420000000  0.5220160000000  0.5728920000000 1.0
C      1  0.4313910000000  0.5207750000000  0.5800570000000 1.0
C      1  0.4137730000000  0.5165410000000  0.4322530000000 1.0
C      1  0.5725820000000  0.5220370000000  0.4171180000000 1.0
C      1  0.4809740000000  0.5882800000000  0.4693900000000 1.0
C      1  0.5306890000000  0.5862610000000  0.4776220000000 1.0
C      1  0.5242250000000  0.6032950000000  0.5311030000000 1.0
C      1  0.4688500000000  0.5908850000000  0.5207270000000 1.0
C      1  0.5207310000000  0.5264110000000  0.5058820000000 1.0
C      1  0.4845890000000  0.5047420000000  0.5194540000000 1.0
C      1  0.4803690000000  0.5157900000000  0.4937730000000 1.0
C      1  0.5056340000000  0.5177210000000  0.4835610000000 1.0
C      1  0.4705620000000  0.5330370000000  0.5576540000000 1.0
C      1  0.4444940000000  0.5338970000000  0.4703050000000 1.0
C      1  0.5351610000000  0.5223350000000  0.4420490000000 1.0
C      1  0.5569920000000  0.5203100000000  0.5376460000000 1.0
C      1  0.4596270000000  0.5265470000000  0.5844620000000 1.0
C      1  0.4171450000000  0.5246300000000  0.4602670000000 1.0
C      1  0.5419550000000  0.5234680000000  0.4157010000000 1.0
C      1  0.5835220000000  0.5227190000000  0.5431630000000 1.0
C      1  0.4349480000000  0.4470940000000  0.4196470000000 1.0
C      1  0.5762470000000  0.4502950000000  0.4349970000000 1.0
C      1  0.5685070000000  0.4480760000000  0.5806340000000 1.0
C      1  0.4219400000000  0.4486140000000  0.5659930000000 1.0
C      1  0.4289340000000  0.4142570000000  0.4822420000000 1.0
C      1  0.5188210000000  0.4131640000000  0.4290770000000 1.0
C      1  0.5711620000000  0.4145270000000  0.5182000000000 1.0
C      1  0.4827990000000  0.4127050000000  0.5711370000000 1.0
C      1  0.4787820000000  0.4667300000000  0.5541150000000 1.0
C      1  0.4502350000000  0.4676910000000  0.4834150000000 1.0
C      1  0.5243010000000  0.4583740000000  0.4531660000000 1.0
C      1  0.5479460000000  0.4707130000000  0.5151820000000 1.0
C      1  0.4907570000000  0.4968130000000  0.6081370000000 1.0
C      1  0.3927990000000  0.4988990000000  0.4882740000000 1.0
C      1  0.5138390000000  0.4964650000000  0.3884820000000 1.0
C      1  0.6087200000000  0.4982570000000  0.5116820000000 1.0
C      1  0.4379890000000  0.4247970000000  0.4382240000000 1.0
C      1  0.5611250000000  0.4261710000000  0.4372510000000 1.0
C      1  0.5634210000000  0.4255220000000  0.5620130000000 1.0
C      1  0.4385500000000  0.4244040000000  0.5635790000000 1.0
C      1  0.4902090000000  0.5611850000000  0.4799770000000 1.0
C      1  0.5201270000000  0.5597950000000  0.4811610000000 1.0
C      1  0.5090790000000  0.5473930000000  0.5202080000000 1.0
C      1  0.4828170000000  0.5589520000000  0.5115510000000 1.0
C      1  0.4033360000000  0.4964570000000  0.5155080000000 1.0
C      1  0.4917140000000  0.4935830000000  0.4096810000000 1.0
C      1  0.5957590000000  0.4961400000000  0.4848030000000 1.0
C      1  0.5171340000000  0.4967860000000  0.5960160000000 1.0
C      1  0.5566450000000  0.5770510000000  0.5139830000000 1.0
C      1  0.4846180000000  0.5807310000000  0.5580060000000 1.0
C      1  0.4391410000000  0.5931990000000  0.4806300000000 1.0
C      1  0.5186800000000  0.5916380000000  0.4402560000000 1.0
C      1  0.5197330000000  0.4373730000000  0.5587570000000 1.0
C      1  0.4370160000000  0.4285070000000  0.5209210000000 1.0
C      1  0.4819600000000  0.4297150000000  0.4400740000000 1.0
C      1  0.5589420000000  0.4329190000000  0.4824370000000 1.0
C      1  0.4555850000000  0.5902080000000  0.4568580000000 1.0
C      1  0.5448510000000  0.5886070000000  0.4522920000000 1.0
C      1  0.5434050000000  0.5849440000000  0.5398180000000 1.0
C      1  0.4575360000000  0.5846420000000  0.5447050000000 1.0
C      1  0.4813630000000  0.4692910000000  0.6042460000000 1.0
C      1  0.3974970000000  0.4711190000000  0.4788520000000 1.0
C      1  0.5201050000000  0.4678050000000  0.3923510000000 1.0
C      1  0.6044640000000  0.4704130000000  0.5205640000000 1.0
C      1  0.4620550000000  0.4586810000000  0.5850220000000 1.0
C      1  0.4084030000000  0.4569100000000  0.4567520000000 1.0
C      1  0.5431290000000  0.4538240000000  0.4026090000000 1.0
C      1  0.5920130000000  0.4577110000000  0.5426190000000 1.0
C      1  0.6012380000000  0.5245230000000  0.5197030000000 1.0
C      1  0.4822210000000  0.5240070000000  0.6018820000000 1.0
C      1  0.3985370000000  0.5268780000000  0.4827250000000 1.0
C      1  0.5184300000000  0.5230750000000  0.3982270000000 1.0
C      1  0.5256250000000  0.4676690000000  0.5916630000000 1.0
C      1  0.4032450000000  0.4692330000000  0.5226200000000 1.0
C      1  0.4784210000000  0.4672910000000  0.4153230000000 1.0
C      1  0.5955080000000  0.4688220000000  0.4776920000000 1.0
C      1  0.5225480000000  0.4903370000000  0.5533670000000 1.0
C      1  0.4460170000000  0.4942650000000  0.5232410000000 1.0
C      1  0.4600450000000  0.5021070000000  0.4477040000000 1.0
C      1  0.5484970000000  0.4947390000000  0.4767770000000 1.0
C      1  0.5599840000000  0.5438320000000  0.5008260000000 1.0
C      1  0.4937520000000  0.5496230000000  0.5604770000000 1.0
C      1  0.4381200000000  0.5415190000000  0.4966070000000 1.0
C      1  0.4908700000000  0.5348250000000  0.4393620000000 1.0
C      1  0.5837990000000  0.4278640000000  0.4962740000000 1.0
C      1  0.5037180000000  0.4275250000000  0.5829040000000 1.0
C      1  0.4139110000000  0.4261860000000  0.5037660000000 1.0
C      1  0.4968520000000  0.4258570000000  0.4153690000000 1.0
C      1  0.6000220000000  0.4895680000000  0.4387880000000 1.0
C      1  0.5622080000000  0.4893240000000  0.6021790000000 1.0
C      1  0.4015030000000  0.4912670000000  0.5597720000000 1.0
C      1  0.4434890000000  0.4895960000000  0.4008340000000 1.0
C      1  0.5012230000000  0.4834520000000  0.5140260000000 1.0
C      1  0.4772830000000  0.4712540000000  0.4740310000000 1.0
C      1  0.5267810000000  0.4762160000000  0.4755030000000 1.0
C      1  0.5252940000000  0.4840680000000  0.5263030000000 1.0
C      1  0.4611050000000  0.4286580000000  0.5805410000000 1.0
C      1  0.4197090000000  0.4299400000000  0.4597620000000 1.0
C      1  0.5406600000000  0.4283630000000  0.4170530000000 1.0
C      1  0.5810430000000  0.4306280000000  0.5398530000000 1.0
C      1  0.4684110000000  0.4760710000000  0.4470780000000 1.0
C      1  0.5341680000000  0.4779210000000  0.4350860000000 1.0
C      1  0.5302290000000  0.4640740000000  0.5633070000000 1.0
C      1  0.4593610000000  0.4716780000000  0.5315130000000 1.0
C      1  0.4380250000000  0.4911230000000  0.4951930000000 1.0
C      1  0.5102370000000  0.4920470000000  0.4344120000000 1.0
C      1  0.5620100000000  0.4919340000000  0.5013520000000 1.0
C      1  0.4950730000000  0.4912020000000  0.5624840000000 1.0
C      1  0.4465990000000  0.5239530000000  0.5349420000000 1.0
C      1  0.4550360000000  0.5206750000000  0.4260230000000 1.0
C      1  0.5532500000000  0.5201140000000  0.4618130000000 1.0
C      1  0.5364440000000  0.5216620000000  0.5566460000000 1.0
C      1  0.5820800000000  0.4940150000000  0.5815960000000 1.0
C      1  0.4212970000000  0.4931820000000  0.5807220000000 1.0
C      1  0.4210150000000  0.4916810000000  0.4194940000000 1.0
C      1  0.5813720000000  0.4946110000000  0.4175010000000 1.0
C      1  0.5488000000000  0.4150540000000  0.4617260000000 1.0
C      1  0.5402370000000  0.4146680000000  0.5487360000000 1.0
C      1  0.4495570000000  0.4109530000000  0.5400330000000 1.0
C      1  0.4610470000000  0.4132940000000  0.4515350000000 1.0
C      1  0.5653940000000  0.5674740000000  0.4582810000000 1.0
C      1  0.5401690000000  0.5681170000000  0.5637250000000 1.0
C      1  0.4327720000000  0.5704910000000  0.5443570000000 1.0
C      1  0.4592080000000  0.5690320000000  0.4368770000000 1.0
C      1  0.4797440000000  0.6228270000000  0.4998020000000 1.0
C      1  0.5046820000000  0.6197870000000  0.4849620000000 1.0
C      1  0.5264500000000  0.6153150000000  0.5043160000000 1.0
C      1  0.4833520000000  0.6170850000000  0.5280530000000 1.0
C      1  0.4311460000000  0.5376210000000  0.4234890000000 1.0
C      1  0.5806660000000  0.5267300000000  0.4454380000000 1.0
C      1  0.5533560000000  0.5282920000000  0.5811150000000 1.0
C      1  0.4228030000000  0.5292740000000  0.5525620000000 1.0
C      1  0.4582910000000  0.5428660000000  0.5156380000000 1.0
C      1  0.4713230000000  0.5482670000000  0.4560080000000 1.0
C      1  0.5464570000000  0.5468020000000  0.4760100000000 1.0
C      1  0.5191390000000  0.5458930000000  0.5478780000000 1.0
C      1  0.4993250000000  0.4482910000000  0.5427450000000 1.0
C      1  0.4554390000000  0.4514200000000  0.5083560000000 1.0
C      1  0.5006160000000  0.4421700000000  0.4574210000000 1.0
C      1  0.5421130000000  0.4459710000000  0.5020800000000 1.0
C      1  0.5097400000000  0.5172660000000  0.4515040000000 1.0
C      1  0.5496010000000  0.5197750000000  0.5115460000000 1.0
C      1  0.4832800000000  0.5107110000000  0.5456970000000 1.0
C      1  0.4562120000000  0.5094360000000  0.4770540000000 1.0
C      1  0.4560000000000  0.6056280000000  0.4998520000000 1.0
C      1  0.5012680000000  0.6054900000000  0.4591290000000 1.0
C      1  0.5475960000000  0.5987230000000  0.4964970000000 1.0
C      1  0.5003840000000  0.6032550000000  0.5458880000000 1.0
C      1  0.4526720000000  0.4627020000000  0.4033760000000 1.0
C      1  0.5952670000000  0.4636270000000  0.4508230000000 1.0
C      1  0.5533540000000  0.4621310000000  0.6002290000000 1.0
C      1  0.4036620000000  0.4642940000000  0.5498950000000 1.0
C      1  0.5019470000000  0.4747960000000  0.4882130000000 1.0
END
