TITL C-2441160-1326-1031 0.0652637553443631 125000 -24917.1424167701 0 0 169 (C1) n - 1
REM
REM in /home/bkarasulu/work/CARBON/AIRSS/Generating-Clusters/ReaxFF-fromJPCA2015/Units_Real/with-SteepDescent/Higher-Symm
REM
REM
REM
REM
REM
REM ./C.cell (1df0a924f5614ab8850e4351716899ee)
REM
REM compiler GCC version 9.2.1 20190827 (Red Hat 9.2.1-1)
REM options -cpp -mtune=generic -march=x86-64 -g -O0 -fpre-include=/usr/include/finclude/math-vector-fortran.h
REM seed 1173904331 987744224 496249862 -104342744 -1448675477 889651920 -539088903 1986427336 -1776403753 -756811657 992142523 -186189938 -1272617159 267527197 1687307436 -1590340304 -584360613 -1101083734 1874370011 -869935253 2084095510 1760325999 -513796967 -1882529628 1231030677 -199047669 115927812 1303640676 959533652 1362311150 -1985926976 2111600445 -198036322
REM
CELL 1.54180   50.00000   50.00000   50.00000   90.00000   90.00000   90.00000
LATT -1
SFAC C  
C      1  0.5686700000000  0.5603610000000  0.4444450000000 1.0
C      1  0.5853840000000  0.5607960000000  0.5295010000000 1.0
C      1  0.5181150000000  0.5568880000000  0.5853920000000 1.0
C      1  0.4305270000000  0.5591400000000  0.5587940000000 1.0
C      1  0.4145390000000  0.5592720000000  0.4707280000000 1.0
C      1  0.4836790000000  0.5594990000000  0.4117970000000 1.0
C      1  0.5648350000000  0.4395390000000  0.4448880000000 1.0
C      1  0.5838630000000  0.4413000000000  0.5287750000000 1.0
C      1  0.5170840000000  0.4391150000000  0.5880770000000 1.0
C      1  0.4354450000000  0.4401380000000  0.5566030000000 1.0
C      1  0.4159110000000  0.4408270000000  0.4702580000000 1.0
C      1  0.4823560000000  0.4392090000000  0.4128790000000 1.0
C      1  0.5463250000000  0.5775090000000  0.4509130000000 1.0
C      1  0.5714020000000  0.5759590000000  0.5101090000000 1.0
C      1  0.5218170000000  0.5732270000000  0.5617910000000 1.0
C      1  0.4537010000000  0.5769220000000  0.5576940000000 1.0
C      1  0.4315830000000  0.5777270000000  0.4865000000000 1.0
C      1  0.4732960000000  0.5810530000000  0.4310050000000 1.0
C      1  0.5430480000000  0.4227540000000  0.4515230000000 1.0
C      1  0.5663910000000  0.4286270000000  0.5101040000000 1.0
C      1  0.5265260000000  0.4202980000000  0.5668770000000 1.0
C      1  0.4578590000000  0.4245050000000  0.5493200000000 1.0
C      1  0.4263130000000  0.4220060000000  0.4900470000000 1.0
C      1  0.4740910000000  0.4236100000000  0.4356120000000 1.0
C      1  0.4691310000000  0.5197990000000  0.5522890000000 1.0
C      1  0.4406720000000  0.5151670000000  0.5064670000000 1.0
C      1  0.4606550000000  0.5172990000000  0.4483060000000 1.0
C      1  0.5291540000000  0.5158590000000  0.4477400000000 1.0
C      1  0.5616560000000  0.5173180000000  0.4979930000000 1.0
C      1  0.5454680000000  0.5113360000000  0.5523450000000 1.0
C      1  0.4747880000000  0.4860410000000  0.5548730000000 1.0
C      1  0.4420220000000  0.4845060000000  0.5133040000000 1.0
C      1  0.4609090000000  0.4899740000000  0.4424590000000 1.0
C      1  0.5294840000000  0.4888530000000  0.4366320000000 1.0
C      1  0.5706150000000  0.4896480000000  0.4941840000000 1.0
C      1  0.5296410000000  0.4863760000000  0.5576610000000 1.0
C      1  0.5777900000000  0.5366690000000  0.5733440000000 1.0
C      1  0.4746900000000  0.5332430000000  0.6014250000000 1.0
C      1  0.3989320000000  0.5336100000000  0.5280350000000 1.0
C      1  0.4213360000000  0.5352190000000  0.4250130000000 1.0
C      1  0.5246760000000  0.5352020000000  0.4030070000000 1.0
C      1  0.6020880000000  0.5337530000000  0.4705170000000 1.0
C      1  0.5745610000000  0.4663330000000  0.5716470000000 1.0
C      1  0.4762850000000  0.4644640000000  0.5950290000000 1.0
C      1  0.3991460000000  0.4642810000000  0.5298700000000 1.0
C      1  0.4252100000000  0.4635660000000  0.4288260000000 1.0
C      1  0.5239800000000  0.4619610000000  0.4006210000000 1.0
C      1  0.6005500000000  0.4636760000000  0.4704500000000 1.0
C      1  0.4227550000000  0.5693820000000  0.5105920000000 1.0
C      1  0.4479700000000  0.5721840000000  0.4376550000000 1.0
C      1  0.5176480000000  0.5673420000000  0.4470960000000 1.0
C      1  0.5818270000000  0.5676860000000  0.4889270000000 1.0
C      1  0.5467660000000  0.5676940000000  0.5572560000000 1.0
C      1  0.4737510000000  0.5703640000000  0.5742970000000 1.0
C      1  0.4190020000000  0.4299090000000  0.5139330000000 1.0
C      1  0.4587210000000  0.4379250000000  0.4534810000000 1.0
C      1  0.5163090000000  0.4316330000000  0.4434520000000 1.0
C      1  0.5574960000000  0.4450140000000  0.4882380000000 1.0
C      1  0.5500920000000  0.4290340000000  0.5589240000000 1.0
C      1  0.4845100000000  0.4345000000000  0.5525830000000 1.0
C      1  0.5784550000000  0.4456860000000  0.4678410000000 1.0
C      1  0.5734670000000  0.4416660000000  0.5553790000000 1.0
C      1  0.4901350000000  0.4441710000000  0.5807980000000 1.0
C      1  0.4115980000000  0.4383040000000  0.5388450000000 1.0
C      1  0.4314650000000  0.4432500000000  0.4478290000000 1.0
C      1  0.5107140000000  0.4412960000000  0.4150830000000 1.0
C      1  0.5896590000000  0.5593900000000  0.4645050000000 1.0
C      1  0.5725430000000  0.5596090000000  0.5556340000000 1.0
C      1  0.4894230000000  0.5583780000000  0.5937010000000 1.0
C      1  0.4131980000000  0.5594970000000  0.5347830000000 1.0
C      1  0.4233880000000  0.5601110000000  0.4419570000000 1.0
C      1  0.5107690000000  0.5554710000000  0.4180410000000 1.0
C      1  0.4867100000000  0.4556770000000  0.5218240000000 1.0
C      1  0.4738090000000  0.4425410000000  0.4991010000000 1.0
C      1  0.4747530000000  0.4543990000000  0.4737640000000 1.0
C      1  0.5057920000000  0.4570070000000  0.4644160000000 1.0
C      1  0.5276050000000  0.4599030000000  0.4872150000000 1.0
C      1  0.5150250000000  0.4655640000000  0.5132010000000 1.0
C      1  0.4746610000000  0.5478730000000  0.5164080000000 1.0
C      1  0.4701230000000  0.5481920000000  0.4872840000000 1.0
C      1  0.4950500000000  0.5280750000000  0.4768960000000 1.0
C      1  0.5156890000000  0.5503120000000  0.4759560000000 1.0
C      1  0.5229190000000  0.5553300000000  0.5011820000000 1.0
C      1  0.5060500000000  0.5338980000000  0.5210640000000 1.0
C      1  0.4827740000000  0.5135920000000  0.3935580000000 1.0
C      1  0.5847660000000  0.5137690000000  0.4310970000000 1.0
C      1  0.6053160000000  0.5148890000000  0.5389650000000 1.0
C      1  0.5189700000000  0.5119910000000  0.6075360000000 1.0
C      1  0.4151420000000  0.5145070000000  0.5696580000000 1.0
C      1  0.3977330000000  0.5144070000000  0.4618670000000 1.0
C      1  0.4830510000000  0.4844260000000  0.3928680000000 1.0
C      1  0.5837930000000  0.4846420000000  0.4313220000000 1.0
C      1  0.6028390000000  0.4856790000000  0.5396170000000 1.0
C      1  0.5182770000000  0.4827020000000  0.6093190000000 1.0
C      1  0.4158960000000  0.4852280000000  0.5694690000000 1.0
C      1  0.3989870000000  0.4858260000000  0.4626140000000 1.0
C      1  0.5421830000000  0.4050000000000  0.4747020000000 1.0
C      1  0.5479560000000  0.4082660000000  0.5030970000000 1.0
C      1  0.5048890000000  0.4142300000000  0.5485040000000 1.0
C      1  0.4579630000000  0.4058560000000  0.5273250000000 1.0
C      1  0.4581840000000  0.4182690000000  0.4993170000000 1.0
C      1  0.4954090000000  0.4106500000000  0.4476730000000 1.0
C      1  0.5443520000000  0.5931090000000  0.4750140000000 1.0
C      1  0.5403110000000  0.5803720000000  0.5046680000000 1.0
C      1  0.5011830000000  0.5866410000000  0.5458780000000 1.0
C      1  0.4751650000000  0.5782500000000  0.5338750000000 1.0
C      1  0.4621190000000  0.5750640000000  0.4809370000000 1.0
C      1  0.4964790000000  0.5890030000000  0.4482860000000 1.0
C      1  0.5237470000000  0.6123980000000  0.4818240000000 1.0
C      1  0.5271450000000  0.6078580000000  0.5102760000000 1.0
C      1  0.5037710000000  0.6084390000000  0.5276680000000 1.0
C      1  0.4770150000000  0.6038310000000  0.5168580000000 1.0
C      1  0.4748650000000  0.6008520000000  0.4880950000000 1.0
C      1  0.4967520000000  0.6080130000000  0.4697500000000 1.0
C      1  0.5207690000000  0.3865830000000  0.4818130000000 1.0
C      1  0.5267610000000  0.3899250000000  0.5103380000000 1.0
C      1  0.5044870000000  0.3939840000000  0.5286770000000 1.0
C      1  0.4790130000000  0.3892620000000  0.5185160000000 1.0
C      1  0.4741910000000  0.3935440000000  0.4911670000000 1.0
C      1  0.4946050000000  0.3933250000000  0.4706960000000 1.0
C      1  0.4044580000000  0.5346580000000  0.4797950000000 1.0
C      1  0.4683960000000  0.5356320000000  0.4043090000000 1.0
C      1  0.5683800000000  0.5367220000000  0.4279960000000 1.0
C      1  0.5992940000000  0.5366180000000  0.5206440000000 1.0
C      1  0.5322850000000  0.5329510000000  0.5921460000000 1.0
C      1  0.4324890000000  0.5359900000000  0.5744120000000 1.0
C      1  0.4058960000000  0.4656080000000  0.4808560000000 1.0
C      1  0.4686480000000  0.4635400000000  0.4042480000000 1.0
C      1  0.5671270000000  0.4618280000000  0.4270910000000 1.0
C      1  0.5988800000000  0.4642880000000  0.5216680000000 1.0
C      1  0.5314760000000  0.4615750000000  0.5976020000000 1.0
C      1  0.4360510000000  0.4645790000000  0.5712190000000 1.0
C      1  0.4600800000000  0.4753220000000  0.5768850000000 1.0
C      1  0.4155130000000  0.4736830000000  0.5074100000000 1.0
C      1  0.4498960000000  0.4755190000000  0.4208600000000 1.0
C      1  0.5440110000000  0.4748050000000  0.4165830000000 1.0
C      1  0.5961890000000  0.4765460000000  0.4958110000000 1.0
C      1  0.5478640000000  0.4736370000000  0.5785760000000 1.0
C      1  0.4577590000000  0.5265290000000  0.5792210000000 1.0
C      1  0.4120120000000  0.5242420000000  0.5043440000000 1.0
C      1  0.4488040000000  0.5271100000000  0.4240030000000 1.0
C      1  0.5426620000000  0.5257860000000  0.4234230000000 1.0
C      1  0.5902860000000  0.5261880000000  0.4953700000000 1.0
C      1  0.5525980000000  0.5254390000000  0.5749630000000 1.0
C      1  0.4906190000000  0.5124270000000  0.6139110000000 1.0
C      1  0.3940750000000  0.5145930000000  0.5494150000000 1.0
C      1  0.4037180000000  0.5137170000000  0.4332220000000 1.0
C      1  0.5110570000000  0.5135270000000  0.3879730000000 1.0
C      1  0.6060050000000  0.5135780000000  0.4502610000000 1.0
C      1  0.5967310000000  0.5154490000000  0.5668440000000 1.0
C      1  0.4898520000000  0.4826810000000  0.6131420000000 1.0
C      1  0.3941220000000  0.4846680000000  0.5501850000000 1.0
C      1  0.4052730000000  0.4841310000000  0.4352380000000 1.0
C      1  0.5106640000000  0.4838260000000  0.3877970000000 1.0
C      1  0.6053580000000  0.4837600000000  0.4501350000000 1.0
C      1  0.5940040000000  0.4860450000000  0.5658350000000 1.0
C      1  0.5466790000000  0.4838990000000  0.4802510000000 1.0
C      1  0.5335720000000  0.4815460000000  0.5271510000000 1.0
C      1  0.5022150000000  0.4976370000000  0.5587650000000 1.0
C      1  0.4664630000000  0.4774130000000  0.5264870000000 1.0
C      1  0.4600240000000  0.4831160000000  0.4701140000000 1.0
C      1  0.5057350000000  0.4824940000000  0.4500810000000 1.0
C      1  0.5419100000000  0.5111930000000  0.4756410000000 1.0
C      1  0.5476140000000  0.5063560000000  0.5253310000000 1.0
C      1  0.4988600000000  0.5229860000000  0.5482090000000 1.0
C      1  0.4581850000000  0.5262810000000  0.5265130000000 1.0
C      1  0.4569590000000  0.5102660000000  0.4771290000000 1.0
C      1  0.4992940000000  0.5107060000000  0.4523950000000 1.0
C      1  0.5029700000000  0.5112250000000  0.5023550000000 1.0
END
