TITL C-2441165-58-1160 0.0831830773364472 125000 -26625.3375521798 0 0 193 (C1) n - 1
REM
REM in /home/bkarasulu/work/CARBON/AIRSS/Generating-Clusters/ReaxFF-fromJPCA2015/Units_Real/with-SteepDescent/Higher-Symm
REM
REM
REM
REM
REM
REM ./C.cell (1df0a924f5614ab8850e4351716899ee)
REM
REM compiler GCC version 9.2.1 20190827 (Red Hat 9.2.1-1)
REM options -cpp -mtune=generic -march=x86-64 -g -O0 -fpre-include=/usr/include/finclude/math-vector-fortran.h
REM seed 982367680 1544139650 381760234 -1835296852 514253418 -1270324320 -1338721992 -70478229 97284987 283752939 -1123877805 -1928543824 -144766650 -1054014892 1110065098 1531106585 1921144470 -2050663445 -2064467892 1174085066 2001967613 2057622871 -1165920768 1575625730 -2145252121 1922969119 789701710 -1282847293 -1162929872 -16165927 237123224 -1818951469 1566406057
REM
CELL 1.54180   50.00000   50.00000   50.00000   90.00000   90.00000   90.00000
LATT -1
SFAC C  
C      1  0.4757930000000  0.4609760000000  0.5959680000000 1.0
C      1  0.5334960000000  0.5208830000000  0.5980130000000 1.0
C      1  0.4758110000000  0.5799690000000  0.5649920000000 1.0
C      1  0.5368530000000  0.6002850000000  0.5156150000000 1.0
C      1  0.4623150000000  0.5916310000000  0.4461830000000 1.0
C      1  0.5356420000000  0.5416270000000  0.4045720000000 1.0
C      1  0.4737220000000  0.4717100000000  0.4019060000000 1.0
C      1  0.5391130000000  0.4274850000000  0.4294000000000 1.0
C      1  0.4672540000000  0.3947070000000  0.4933500000000 1.0
C      1  0.5227130000000  0.4065890000000  0.5493910000000 1.0
C      1  0.4251120000000  0.5157130000000  0.5213510000000 1.0
C      1  0.5720220000000  0.5222900000000  0.5083300000000 1.0
C      1  0.4192970000000  0.5210030000000  0.4919400000000 1.0
C      1  0.5674810000000  0.5162330000000  0.4781600000000 1.0
C      1  0.4299580000000  0.5031640000000  0.4721850000000 1.0
C      1  0.5675030000000  0.4867890000000  0.4786630000000 1.0
C      1  0.4287220000000  0.4800420000000  0.4910890000000 1.0
C      1  0.5643240000000  0.4791250000000  0.5067910000000 1.0
C      1  0.4334460000000  0.4883080000000  0.5182940000000 1.0
C      1  0.5671130000000  0.4998290000000  0.5265810000000 1.0
C      1  0.5127350000000  0.4388120000000  0.5260660000000 1.0
C      1  0.4879190000000  0.4556400000000  0.5566120000000 1.0
C      1  0.5073790000000  0.4995380000000  0.5720160000000 1.0
C      1  0.4874450000000  0.5413660000000  0.5541340000000 1.0
C      1  0.5046960000000  0.5672510000000  0.5237640000000 1.0
C      1  0.4894610000000  0.5570220000000  0.4755020000000 1.0
C      1  0.5183330000000  0.5364300000000  0.4407260000000 1.0
C      1  0.4866330000000  0.4971120000000  0.4316630000000 1.0
C      1  0.5120250000000  0.4604920000000  0.4412420000000 1.0
C      1  0.4888140000000  0.4286910000000  0.4753650000000 1.0
C      1  0.5224660000000  0.5910840000000  0.5407140000000 1.0
C      1  0.4805190000000  0.6016400000000  0.4664720000000 1.0
C      1  0.5272660000000  0.5612320000000  0.4233290000000 1.0
C      1  0.4800220000000  0.5018290000000  0.4039960000000 1.0
C      1  0.5244890000000  0.4502480000000  0.4146640000000 1.0
C      1  0.4715210000000  0.4027690000000  0.4662380000000 1.0
C      1  0.5195210000000  0.3950030000000  0.5213630000000 1.0
C      1  0.4812340000000  0.4343180000000  0.5759400000000 1.0
C      1  0.5214240000000  0.4923830000000  0.5998270000000 1.0
C      1  0.4832000000000  0.5551220000000  0.5796750000000 1.0
C      1  0.5114850000000  0.5994580000000  0.4745420000000 1.0
C      1  0.4807630000000  0.5527830000000  0.4099040000000 1.0
C      1  0.5189680000000  0.5025520000000  0.3953560000000 1.0
C      1  0.4874510000000  0.4275360000000  0.4235320000000 1.0
C      1  0.5221010000000  0.4017550000000  0.4620070000000 1.0
C      1  0.4797300000000  0.3982720000000  0.5364050000000 1.0
C      1  0.5220870000000  0.4379990000000  0.5853940000000 1.0
C      1  0.4772440000000  0.5036840000000  0.6050830000000 1.0
C      1  0.5232030000000  0.5630400000000  0.5839190000000 1.0
C      1  0.4877110000000  0.6077260000000  0.5225740000000 1.0
C      1  0.4805180000000  0.5770960000000  0.4279280000000 1.0
C      1  0.5093920000000  0.5290580000000  0.3987840000000 1.0
C      1  0.4919720000000  0.4497220000000  0.4052960000000 1.0
C      1  0.5158720000000  0.4134970000000  0.4362050000000 1.0
C      1  0.4909950000000  0.3873690000000  0.5122670000000 1.0
C      1  0.5084650000000  0.4163470000000  0.5730710000000 1.0
C      1  0.4929050000000  0.4797030000000  0.6089280000000 1.0
C      1  0.5130810000000  0.5408170000000  0.5968920000000 1.0
C      1  0.4928880000000  0.5982270000000  0.5498590000000 1.0
C      1  0.5116010000000  0.6072520000000  0.5036990000000 1.0
C      1  0.4374940000000  0.4465910000000  0.4293260000000 1.0
C      1  0.5688420000000  0.4158020000000  0.4668430000000 1.0
C      1  0.4348850000000  0.4156490000000  0.5227130000000 1.0
C      1  0.5708490000000  0.4486630000000  0.5740930000000 1.0
C      1  0.4346030000000  0.4944150000000  0.5873780000000 1.0
C      1  0.5699520000000  0.5479620000000  0.5716530000000 1.0
C      1  0.4386810000000  0.5885800000000  0.5219810000000 1.0
C      1  0.5632310000000  0.5834120000000  0.4775680000000 1.0
C      1  0.4322390000000  0.5550060000000  0.4307230000000 1.0
C      1  0.5696480000000  0.5071290000000  0.4094730000000 1.0
C      1  0.4512020000000  0.4701070000000  0.5831210000000 1.0
C      1  0.5249690000000  0.5155000000000  0.5580430000000 1.0
C      1  0.4547680000000  0.5738000000000  0.5428700000000 1.0
C      1  0.5243050000000  0.5576570000000  0.5044690000000 1.0
C      1  0.4817330000000  0.5580730000000  0.4492750000000 1.0
C      1  0.5287870000000  0.5099090000000  0.4362940000000 1.0
C      1  0.4462090000000  0.4701410000000  0.4133550000000 1.0
C      1  0.5284550000000  0.4573730000000  0.4653290000000 1.0
C      1  0.4791640000000  0.4358040000000  0.5014190000000 1.0
C      1  0.5357020000000  0.4324440000000  0.5426110000000 1.0
C      1  0.4085280000000  0.5555850000000  0.5269850000000 1.0
C      1  0.5931220000000  0.5549490000000  0.4943240000000 1.0
C      1  0.4023440000000  0.5458240000000  0.4652690000000 1.0
C      1  0.5949460000000  0.5157540000000  0.4425950000000 1.0
C      1  0.4050580000000  0.4761570000000  0.4508450000000 1.0
C      1  0.5932950000000  0.4549600000000  0.4764480000000 1.0
C      1  0.4061760000000  0.4433330000000  0.5003750000000 1.0
C      1  0.5892250000000  0.4581830000000  0.5388330000000 1.0
C      1  0.4042060000000  0.4841670000000  0.5493120000000 1.0
C      1  0.5943930000000  0.5214770000000  0.5500710000000 1.0
C      1  0.5436880000000  0.4810440000000  0.4645960000000 1.0
C      1  0.4536570000000  0.4666320000000  0.4855410000000 1.0
C      1  0.5440330000000  0.4590620000000  0.5080340000000 1.0
C      1  0.4554750000000  0.4848640000000  0.5346640000000 1.0
C      1  0.5408710000000  0.5011490000000  0.5398140000000 1.0
C      1  0.4465570000000  0.5293510000000  0.5360340000000 1.0
C      1  0.5464810000000  0.5427410000000  0.5152870000000 1.0
C      1  0.4694060000000  0.5258830000000  0.4928440000000 1.0
C      1  0.5429110000000  0.5297930000000  0.4760360000000 1.0
C      1  0.4572930000000  0.5114780000000  0.4677400000000 1.0
C      1  0.5497990000000  0.4883570000000  0.4377280000000 1.0
C      1  0.4655890000000  0.4649050000000  0.4600420000000 1.0
C      1  0.5373250000000  0.4404130000000  0.4876470000000 1.0
C      1  0.4686450000000  0.4608920000000  0.5360230000000 1.0
C      1  0.5387100000000  0.4769250000000  0.5590340000000 1.0
C      1  0.4648790000000  0.5238160000000  0.5626210000000 1.0
C      1  0.5411580000000  0.5523890000000  0.5412890000000 1.0
C      1  0.4678830000000  0.5665190000000  0.4937510000000 1.0
C      1  0.5333400000000  0.5517110000000  0.4612230000000 1.0
C      1  0.4611020000000  0.5262950000000  0.4427760000000 1.0
C      1  0.4228410000000  0.4328790000000  0.4779430000000 1.0
C      1  0.5693860000000  0.4366620000000  0.5350520000000 1.0
C      1  0.4160070000000  0.4570700000000  0.5494790000000 1.0
C      1  0.5762400000000  0.5037700000000  0.5660860000000 1.0
C      1  0.4313000000000  0.5522750000000  0.5463620000000 1.0
C      1  0.5811300000000  0.5666060000000  0.5195330000000 1.0
C      1  0.4203050000000  0.5669310000000  0.4755200000000 1.0
C      1  0.5760590000000  0.5394900000000  0.4451790000000 1.0
C      1  0.4165870000000  0.5032520000000  0.4396530000000 1.0
C      1  0.5789430000000  0.4601010000000  0.4515270000000 1.0
C      1  0.5621140000000  0.5331180000000  0.4188580000000 1.0
C      1  0.4335630000000  0.4955270000000  0.4170500000000 1.0
C      1  0.5642470000000  0.4351520000000  0.4453760000000 1.0
C      1  0.4426610000000  0.4109690000000  0.4953630000000 1.0
C      1  0.5679840000000  0.4200000000000  0.5122210000000 1.0
C      1  0.4374000000000  0.4494800000000  0.5680490000000 1.0
C      1  0.5601500000000  0.5221350000000  0.5824270000000 1.0
C      1  0.4223000000000  0.5353820000000  0.5732730000000 1.0
C      1  0.5617180000000  0.5858400000000  0.5072170000000 1.0
C      1  0.4370740000000  0.5740960000000  0.4525400000000 1.0
C      1  0.6084960000000  0.4747890000000  0.4930960000000 1.0
C      1  0.3957040000000  0.4707640000000  0.4997540000000 1.0
C      1  0.6083170000000  0.4759000000000  0.5215220000000 1.0
C      1  0.3889700000000  0.4875160000000  0.5234180000000 1.0
C      1  0.6121140000000  0.5028690000000  0.5346560000000 1.0
C      1  0.3971970000000  0.5290340000000  0.5302920000000 1.0
C      1  0.6022810000000  0.5286790000000  0.5031010000000 1.0
C      1  0.3911570000000  0.5201030000000  0.4843340000000 1.0
C      1  0.6096320000000  0.5128350000000  0.4655710000000 1.0
C      1  0.3857500000000  0.4882560000000  0.4703600000000 1.0
C      1  0.4525960000000  0.4068920000000  0.5447110000000 1.0
C      1  0.5489000000000  0.4477510000000  0.5925760000000 1.0
C      1  0.4496760000000  0.5137590000000  0.6036370000000 1.0
C      1  0.5511580000000  0.5697510000000  0.5796140000000 1.0
C      1  0.4597720000000  0.6060700000000  0.5136870000000 1.0
C      1  0.5404590000000  0.5944630000000  0.4621510000000 1.0
C      1  0.4518100000000  0.5477380000000  0.4094430000000 1.0
C      1  0.5472030000000  0.4931460000000  0.3954390000000 1.0
C      1  0.4564040000000  0.4242460000000  0.4290780000000 1.0
C      1  0.5478080000000  0.3969220000000  0.4772050000000 1.0
C      1  0.4705840000000  0.5265620000000  0.5216620000000 1.0
C      1  0.5199750000000  0.5180540000000  0.4896670000000 1.0
C      1  0.4947790000000  0.5303890000000  0.4833090000000 1.0
C      1  0.5193830000000  0.4937730000000  0.4757760000000 1.0
C      1  0.4743000000000  0.4905910000000  0.4559220000000 1.0
C      1  0.5074130000000  0.4705820000000  0.4842860000000 1.0
C      1  0.4686340000000  0.4579420000000  0.5074040000000 1.0
C      1  0.5128650000000  0.4657120000000  0.5136460000000 1.0
C      1  0.4775770000000  0.5006040000000  0.5284690000000 1.0
C      1  0.5216630000000  0.5109210000000  0.5185000000000 1.0
C      1  0.4538870000000  0.4256140000000  0.5663730000000 1.0
C      1  0.5436860000000  0.4765830000000  0.5874300000000 1.0
C      1  0.4508800000000  0.5377880000000  0.5872830000000 1.0
C      1  0.5461860000000  0.5782960000000  0.5526110000000 1.0
C      1  0.4615740000000  0.5942270000000  0.4872180000000 1.0
C      1  0.5445080000000  0.5758770000000  0.4409780000000 1.0
C      1  0.4531350000000  0.5176780000000  0.4105360000000 1.0
C      1  0.5451830000000  0.4709570000000  0.4129100000000 1.0
C      1  0.4485000000000  0.4149750000000  0.4542470000000 1.0
C      1  0.5445280000000  0.4006700000000  0.5063500000000 1.0
C      1  0.5820040000000  0.4721320000000  0.5636280000000 1.0
C      1  0.4153860000000  0.5041260000000  0.5682220000000 1.0
C      1  0.5837330000000  0.5499200000000  0.5450540000000 1.0
C      1  0.4204500000000  0.5722710000000  0.5058760000000 1.0
C      1  0.5792070000000  0.5594160000000  0.4682870000000 1.0
C      1  0.4133550000000  0.5349710000000  0.4412930000000 1.0
C      1  0.5809770000000  0.4909990000000  0.4320990000000 1.0
C      1  0.4208880000000  0.4493270000000  0.4540130000000 1.0
C      1  0.5827270000000  0.4291690000000  0.4878410000000 1.0
C      1  0.4157540000000  0.4377640000000  0.5273690000000 1.0
C      1  0.5162370000000  0.4217000000000  0.4828310000000 1.0
C      1  0.4894780000000  0.4253130000000  0.5249700000000 1.0
C      1  0.5176660000000  0.4569370000000  0.5612640000000 1.0
C      1  0.4802990000000  0.5033490000000  0.5759450000000 1.0
C      1  0.5181980000000  0.5418120000000  0.5565450000000 1.0
C      1  0.4764450000000  0.5668790000000  0.5207020000000 1.0
C      1  0.5164020000000  0.5667890000000  0.4781980000000 1.0
C      1  0.4864220000000  0.5373600000000  0.4353550000000 1.0
C      1  0.5112410000000  0.4891710000000  0.4270250000000 1.0
C      1  0.4870370000000  0.4474550000000  0.4506100000000 1.0
C      1  0.6166100000000  0.5043610000000  0.4902870000000 1.0
C      1  0.3813250000000  0.5138940000000  0.5122320000000 1.0
C      1  0.5029180000000  0.4920610000000  0.5254520000000 1.0
END
