TITL C-2441164-471-92 0.0177936990619417 125000 -10159.1148229495 0 0 76 (C1) n - 1
REM
REM in /home/bkarasulu/work/CARBON/AIRSS/Generating-Clusters/ReaxFF-fromJPCA2015/Units_Real/with-SteepDescent/Higher-Symm
REM
REM
REM
REM
REM
REM ./C.cell (1df0a924f5614ab8850e4351716899ee)
REM
REM compiler GCC version 9.2.1 20190827 (Red Hat 9.2.1-1)
REM options -cpp -mtune=generic -march=x86-64 -g -O0 -fpre-include=/usr/include/finclude/math-vector-fortran.h
REM seed 1007662585 -1134241267 44105340 -1836355234 752525996 -1606463216 439827029 -500089588 -1177520470 1046344985 -940422343 -123245707 -673781051 241193513 1803661682 1522139000 1860538498 2079700765 -1820963392 1442327219 1365345070 1188606945 -1161550151 2041775064 1041726067 -487349673 692963271 -1797603956 2024546879 986729772 408097991 243424574 1077817949
REM
CELL 1.54180   50.00000   50.00000   50.00000   90.00000   90.00000   90.00000
LATT -1
SFAC C  
C      1  0.4320000000000  0.5344550000000  0.5111390000000 1.0
C      1  0.5683950000000  0.5345970000000  0.4890620000000 1.0
C      1  0.4533670000000  0.4541870000000  0.4800060000000 1.0
C      1  0.5438840000000  0.4549910000000  0.5186070000000 1.0
C      1  0.4573130000000  0.4658380000000  0.5088410000000 1.0
C      1  0.5432930000000  0.4676120000000  0.4919080000000 1.0
C      1  0.5561820000000  0.5429840000000  0.5136830000000 1.0
C      1  0.4441560000000  0.5430190000000  0.4862970000000 1.0
C      1  0.4612240000000  0.5159190000000  0.4233250000000 1.0
C      1  0.5385690000000  0.5154150000000  0.5759590000000 1.0
C      1  0.5028640000000  0.4948460000000  0.4607650000000 1.0
C      1  0.4973880000000  0.4935060000000  0.5385480000000 1.0
C      1  0.4730860000000  0.4853000000000  0.4529720000000 1.0
C      1  0.5257330000000  0.4838320000000  0.5470060000000 1.0
C      1  0.4789490000000  0.4792090000000  0.5598750000000 1.0
C      1  0.5195480000000  0.4781400000000  0.4420270000000 1.0
C      1  0.4247330000000  0.4937170000000  0.5174490000000 1.0
C      1  0.5750690000000  0.4940790000000  0.4825380000000 1.0
C      1  0.4644260000000  0.5619880000000  0.5182350000000 1.0
C      1  0.5359210000000  0.5616090000000  0.4818240000000 1.0
C      1  0.4877030000000  0.4518770000000  0.5608670000000 1.0
C      1  0.5039610000000  0.4524060000000  0.4429250000000 1.0
C      1  0.5429060000000  0.5555700000000  0.4539000000000 1.0
C      1  0.4576640000000  0.5555760000000  0.5462600000000 1.0
C      1  0.4740210000000  0.5417520000000  0.4972700000000 1.0
C      1  0.5255110000000  0.5413310000000  0.5023550000000 1.0
C      1  0.4922910000000  0.5746820000000  0.4813010000000 1.0
C      1  0.5078110000000  0.5745540000000  0.5195330000000 1.0
C      1  0.4866750000000  0.5111900000000  0.4976330000000 1.0
C      1  0.5145130000000  0.5127000000000  0.5005720000000 1.0
C      1  0.5126430000000  0.4476030000000  0.5261200000000 1.0
C      1  0.4985550000000  0.4467640000000  0.4733310000000 1.0
C      1  0.4395690000000  0.4994140000000  0.4918260000000 1.0
C      1  0.5609090000000  0.4996510000000  0.5090420000000 1.0
C      1  0.4371770000000  0.5027630000000  0.5430220000000 1.0
C      1  0.5621350000000  0.5024130000000  0.4569980000000 1.0
C      1  0.4886730000000  0.5470190000000  0.4712890000000 1.0
C      1  0.5108100000000  0.5464060000000  0.5287700000000 1.0
C      1  0.5485500000000  0.4798030000000  0.4432620000000 1.0
C      1  0.4500270000000  0.4803550000000  0.5570670000000 1.0
C      1  0.5575560000000  0.4541000000000  0.4543660000000 1.0
C      1  0.4427560000000  0.4542000000000  0.5450140000000 1.0
C      1  0.4898450000000  0.5308940000000  0.5672280000000 1.0
C      1  0.5100790000000  0.5313290000000  0.4318270000000 1.0
C      1  0.5691310000000  0.4654240000000  0.4791160000000 1.0
C      1  0.4305920000000  0.4650590000000  0.5205390000000 1.0
C      1  0.5522120000000  0.5214280000000  0.5572100000000 1.0
C      1  0.4477130000000  0.5213070000000  0.4423360000000 1.0
C      1  0.4678300000000  0.4376340000000  0.5417910000000 1.0
C      1  0.5359570000000  0.4368530000000  0.4624600000000 1.0
C      1  0.5129800000000  0.4211150000000  0.5082480000000 1.0
C      1  0.4882610000000  0.4237400000000  0.4922530000000 1.0
C      1  0.5504050000000  0.4828350000000  0.5312470000000 1.0
C      1  0.4483180000000  0.4826100000000  0.4688480000000 1.0
C      1  0.4999870000000  0.4715130000000  0.5143840000000 1.0
C      1  0.4989410000000  0.4727320000000  0.4866390000000 1.0
C      1  0.4812550000000  0.5821040000000  0.5083540000000 1.0
C      1  0.5189580000000  0.5806790000000  0.4922190000000 1.0
C      1  0.5354450000000  0.4945930000000  0.4948520000000 1.0
C      1  0.4652370000000  0.4937840000000  0.5053820000000 1.0
C      1  0.4788880000000  0.4641810000000  0.4362190000000 1.0
C      1  0.5153930000000  0.4582670000000  0.5562270000000 1.0
C      1  0.4842550000000  0.5220980000000  0.4236210000000 1.0
C      1  0.5154330000000  0.5215560000000  0.5756750000000 1.0
C      1  0.4768690000000  0.5589510000000  0.5685600000000 1.0
C      1  0.5241060000000  0.5587910000000  0.4311790000000 1.0
C      1  0.4318760000000  0.4453550000000  0.4669880000000 1.0
C      1  0.5686980000000  0.4471330000000  0.5336560000000 1.0
C      1  0.5421020000000  0.5343830000000  0.5388900000000 1.0
C      1  0.4573750000000  0.5341310000000  0.4607640000000 1.0
C      1  0.4738970000000  0.4281320000000  0.5163240000000 1.0
C      1  0.5294470000000  0.4226890000000  0.4850420000000 1.0
C      1  0.5470520000000  0.5267110000000  0.4630640000000 1.0
C      1  0.4530250000000  0.5267230000000  0.5368970000000 1.0
C      1  0.4882730000000  0.5235180000000  0.5387210000000 1.0
C      1  0.5116460000000  0.5243760000000  0.4604490000000 1.0
END
