TITL C-2441166-8118-639 0.0440819821056948 125000 -25201.1524173057 0 0 176 (C1) n - 1
REM
REM in /home/bkarasulu/work/CARBON/AIRSS/Generating-Clusters/ReaxFF-fromJPCA2015/Units_Real/with-SteepDescent/Higher-Symm
REM
REM
REM
REM
REM
REM ./C.cell (1df0a924f5614ab8850e4351716899ee)
REM
REM compiler GCC version 9.2.1 20190827 (Red Hat 9.2.1-1)
REM options -cpp -mtune=generic -march=x86-64 -g -O0 -fpre-include=/usr/include/finclude/math-vector-fortran.h
REM seed 1081139363 1790568325 -1863171277 -2141154148 -1765264154 268224467 -1257798642 -1091886291 -296251743 274813804 1580245555 288454554 -678252427 203366626 -1372756863 118698628 1840880050 -1429848563 848458201 1324220498 -895839921 599506899 170912208 -1558314081 -681769092 1028853310 -71294883 1168746301 -1236355174 464708808 189976817 -1425124505 1738133066
REM
CELL 1.54180   50.00000   50.00000   50.00000   90.00000   90.00000   90.00000
LATT -1
SFAC C  
C      1  0.5056690000000  0.5595590000000  0.4952310000000 1.0
C      1  0.5091350000000  0.5177750000000  0.4427390000000 1.0
C      1  0.5122300000000  0.4435680000000  0.4653330000000 1.0
C      1  0.5092470000000  0.4531850000000  0.5387180000000 1.0
C      1  0.4980000000000  0.5267100000000  0.5483810000000 1.0
C      1  0.5538070000000  0.5137290000000  0.4512380000000 1.0
C      1  0.5452690000000  0.4614060000000  0.4899890000000 1.0
C      1  0.5450740000000  0.4749410000000  0.5293080000000 1.0
C      1  0.5538390000000  0.5228990000000  0.5468340000000 1.0
C      1  0.5456840000000  0.5402920000000  0.4862970000000 1.0
C      1  0.5714120000000  0.5110840000000  0.5256980000000 1.0
C      1  0.5695840000000  0.5276460000000  0.4966220000000 1.0
C      1  0.5716010000000  0.5082730000000  0.4737330000000 1.0
C      1  0.5701940000000  0.4790600000000  0.4869130000000 1.0
C      1  0.5716970000000  0.4818450000000  0.5163180000000 1.0
C      1  0.4896710000000  0.4453900000000  0.5868660000000 1.0
C      1  0.4886760000000  0.5732540000000  0.5835420000000 1.0
C      1  0.4814380000000  0.6040400000000  0.4617130000000 1.0
C      1  0.4909460000000  0.4773240000000  0.3969660000000 1.0
C      1  0.4839850000000  0.3903970000000  0.4715580000000 1.0
C      1  0.5581420000000  0.5813510000000  0.4591790000000 1.0
C      1  0.5547650000000  0.4832090000000  0.3947680000000 1.0
C      1  0.5472440000000  0.3960520000000  0.4866410000000 1.0
C      1  0.5490020000000  0.4576160000000  0.5955940000000 1.0
C      1  0.5482220000000  0.5758790000000  0.5504160000000 1.0
C      1  0.4527720000000  0.4664540000000  0.5375650000000 1.0
C      1  0.4464120000000  0.5382580000000  0.5379910000000 1.0
C      1  0.4482170000000  0.5604050000000  0.4848520000000 1.0
C      1  0.4478000000000  0.4991580000000  0.4447240000000 1.0
C      1  0.4443720000000  0.4517330000000  0.4874150000000 1.0
C      1  0.5751090000000  0.5516100000000  0.4343110000000 1.0
C      1  0.5609540000000  0.4615150000000  0.4380900000000 1.0
C      1  0.5716690000000  0.4170450000000  0.5201060000000 1.0
C      1  0.5736150000000  0.4959930000000  0.5803350000000 1.0
C      1  0.5608640000000  0.5657000000000  0.5275660000000 1.0
C      1  0.4691300000000  0.5844780000000  0.5641300000000 1.0
C      1  0.4657700000000  0.5874360000000  0.4415770000000 1.0
C      1  0.4653140000000  0.4655400000000  0.4036330000000 1.0
C      1  0.4682000000000  0.3965890000000  0.4975290000000 1.0
C      1  0.4608650000000  0.4760720000000  0.6116170000000 1.0
C      1  0.5695930000000  0.5268250000000  0.5723140000000 1.0
C      1  0.5631960000000  0.5819960000000  0.5044580000000 1.0
C      1  0.5650370000000  0.5232840000000  0.4256750000000 1.0
C      1  0.5639820000000  0.4339230000000  0.4477740000000 1.0
C      1  0.5726890000000  0.4294070000000  0.5466570000000 1.0
C      1  0.5159430000000  0.4343350000000  0.4211660000000 1.0
C      1  0.5289690000000  0.4056290000000  0.5390240000000 1.0
C      1  0.5108910000000  0.4995260000000  0.5998040000000 1.0
C      1  0.5199060000000  0.6043240000000  0.5227520000000 1.0
C      1  0.5286950000000  0.5569670000000  0.4157330000000 1.0
C      1  0.4223680000000  0.5728700000000  0.5250210000000 1.0
C      1  0.4271600000000  0.5378820000000  0.4264980000000 1.0
C      1  0.4235360000000  0.4541020000000  0.4401540000000 1.0
C      1  0.4261010000000  0.4285070000000  0.5338470000000 1.0
C      1  0.4242700000000  0.5061960000000  0.5725430000000 1.0
C      1  0.5004040000000  0.4493940000000  0.4919350000000 1.0
C      1  0.4985350000000  0.4796460000000  0.5411210000000 1.0
C      1  0.4907570000000  0.5143990000000  0.5210670000000 1.0
C      1  0.4862160000000  0.5345880000000  0.4810090000000 1.0
C      1  0.5034520000000  0.4927600000000  0.4511520000000 1.0
C      1  0.4270250000000  0.5075460000000  0.4263160000000 1.0
C      1  0.4220560000000  0.4459210000000  0.4686100000000 1.0
C      1  0.4301850000000  0.4545260000000  0.5503160000000 1.0
C      1  0.4251730000000  0.5300220000000  0.5554520000000 1.0
C      1  0.4216190000000  0.5676280000000  0.4964890000000 1.0
C      1  0.4113770000000  0.4992110000000  0.4771140000000 1.0
C      1  0.4029030000000  0.4798610000000  0.4953820000000 1.0
C      1  0.4092910000000  0.4896580000000  0.5205920000000 1.0
C      1  0.3977150000000  0.5175890000000  0.5162180000000 1.0
C      1  0.4021810000000  0.5241320000000  0.4893050000000 1.0
C      1  0.5867320000000  0.4762610000000  0.4437470000000 1.0
C      1  0.5850100000000  0.4353520000000  0.5010460000000 1.0
C      1  0.5890710000000  0.4832170000000  0.5601830000000 1.0
C      1  0.5870850000000  0.5533380000000  0.5298930000000 1.0
C      1  0.5894050000000  0.5494100000000  0.4593570000000 1.0
C      1  0.4449030000000  0.4372070000000  0.4319320000000 1.0
C      1  0.4493860000000  0.4090360000000  0.5386030000000 1.0
C      1  0.4433190000000  0.5158050000000  0.5909450000000 1.0
C      1  0.4459070000000  0.5899110000000  0.5257650000000 1.0
C      1  0.4535720000000  0.5458860000000  0.4127830000000 1.0
C      1  0.4149480000000  0.4773160000000  0.5646450000000 1.0
C      1  0.4094390000000  0.5540290000000  0.5467650000000 1.0
C      1  0.4161200000000  0.5465580000000  0.4508460000000 1.0
C      1  0.4115420000000  0.4815980000000  0.4305830000000 1.0
C      1  0.4137690000000  0.4348430000000  0.5093000000000 1.0
C      1  0.5626450000000  0.4581640000000  0.4050750000000 1.0
C      1  0.5476430000000  0.4013120000000  0.5156270000000 1.0
C      1  0.5529900000000  0.4860910000000  0.5974270000000 1.0
C      1  0.5266850000000  0.5951390000000  0.5497500000000 1.0
C      1  0.5523320000000  0.5691490000000  0.4344280000000 1.0
C      1  0.4804290000000  0.4367040000000  0.5070380000000 1.0
C      1  0.4799960000000  0.4868980000000  0.5649300000000 1.0
C      1  0.4889100000000  0.5541170000000  0.5400630000000 1.0
C      1  0.4759660000000  0.5448050000000  0.4556970000000 1.0
C      1  0.4837790000000  0.4738370000000  0.4456160000000 1.0
C      1  0.5394870000000  0.5312970000000  0.4084460000000 1.0
C      1  0.5388690000000  0.4219590000000  0.4387530000000 1.0
C      1  0.5480600000000  0.4182000000000  0.5577600000000 1.0
C      1  0.5352150000000  0.5131330000000  0.5979110000000 1.0
C      1  0.5416030000000  0.6002920000000  0.5025080000000 1.0
C      1  0.3934010000000  0.4755470000000  0.5458540000000 1.0
C      1  0.3871290000000  0.5372040000000  0.5366140000000 1.0
C      1  0.4058110000000  0.5506210000000  0.4771760000000 1.0
C      1  0.3940670000000  0.4937180000000  0.4494060000000 1.0
C      1  0.4013940000000  0.4516440000000  0.4898260000000 1.0
C      1  0.5236900000000  0.4153170000000  0.4848130000000 1.0
C      1  0.5226190000000  0.4559490000000  0.5646970000000 1.0
C      1  0.5362800000000  0.5615720000000  0.5730890000000 1.0
C      1  0.5161250000000  0.5770340000000  0.4723250000000 1.0
C      1  0.5307680000000  0.4844030000000  0.4086220000000 1.0
C      1  0.4655880000000  0.4279890000000  0.4549230000000 1.0
C      1  0.4642690000000  0.4250900000000  0.5576220000000 1.0
C      1  0.4637650000000  0.5347430000000  0.5794860000000 1.0
C      1  0.4655600000000  0.5799250000000  0.5033670000000 1.0
C      1  0.4719190000000  0.5236400000000  0.4086460000000 1.0
C      1  0.5954320000000  0.5072810000000  0.5434520000000 1.0
C      1  0.5896060000000  0.5503330000000  0.5009450000000 1.0
C      1  0.5946030000000  0.5208130000000  0.4591730000000 1.0
C      1  0.5913050000000  0.4638460000000  0.4701060000000 1.0
C      1  0.5910940000000  0.4574310000000  0.5200760000000 1.0
C      1  0.4739680000000  0.3989650000000  0.5259580000000 1.0
C      1  0.4629830000000  0.5053580000000  0.6096830000000 1.0
C      1  0.4693920000000  0.6000220000000  0.5397960000000 1.0
C      1  0.4726100000000  0.5684190000000  0.4184530000000 1.0
C      1  0.4660010000000  0.4376420000000  0.4123260000000 1.0
C      1  0.5128220000000  0.5159790000000  0.4828250000000 1.0
C      1  0.5158600000000  0.4889750000000  0.4749190000000 1.0
C      1  0.5033780000000  0.4751820000000  0.4956350000000 1.0
C      1  0.5251740000000  0.4910700000000  0.5413800000000 1.0
C      1  0.5161360000000  0.5213300000000  0.5096980000000 1.0
C      1  0.5320490000000  0.5318660000000  0.4600450000000 1.0
C      1  0.5353310000000  0.4636010000000  0.4631160000000 1.0
C      1  0.5329960000000  0.4538350000000  0.5157860000000 1.0
C      1  0.5270690000000  0.5157880000000  0.5514020000000 1.0
C      1  0.5302690000000  0.5473100000000  0.5093210000000 1.0
C      1  0.4847690000000  0.5469260000000  0.5974470000000 1.0
C      1  0.4789730000000  0.6048810000000  0.4917790000000 1.0
C      1  0.4924520000000  0.5068510000000  0.3950640000000 1.0
C      1  0.4808080000000  0.4047380000000  0.4449160000000 1.0
C      1  0.4902280000000  0.4198540000000  0.5690500000000 1.0
C      1  0.5389340000000  0.4358290000000  0.5796600000000 1.0
C      1  0.5456120000000  0.5381250000000  0.5869140000000 1.0
C      1  0.5379030000000  0.5976150000000  0.4730330000000 1.0
C      1  0.5215860000000  0.5111530000000  0.3978210000000 1.0
C      1  0.5356520000000  0.4017810000000  0.4595240000000 1.0
C      1  0.5829010000000  0.4364150000000  0.4714020000000 1.0
C      1  0.5879340000000  0.4553780000000  0.5482090000000 1.0
C      1  0.5931700000000  0.5348120000000  0.5513720000000 1.0
C      1  0.5812300000000  0.5716000000000  0.4817320000000 1.0
C      1  0.5906450000000  0.5040920000000  0.4360720000000 1.0
C      1  0.5064100000000  0.3922530000000  0.4877400000000 1.0
C      1  0.5100460000000  0.4669160000000  0.5893690000000 1.0
C      1  0.5149520000000  0.5817180000000  0.5742160000000 1.0
C      1  0.5040650000000  0.5912160000000  0.4521610000000 1.0
C      1  0.5129760000000  0.4607360000000  0.4083000000000 1.0
C      1  0.4789160000000  0.5135620000000  0.5652630000000 1.0
C      1  0.4881550000000  0.5659130000000  0.5151800000000 1.0
C      1  0.4853310000000  0.5295330000000  0.4341450000000 1.0
C      1  0.4868190000000  0.4481100000000  0.4533560000000 1.0
C      1  0.4761470000000  0.4462580000000  0.5345020000000 1.0
C      1  0.4907420000000  0.5196110000000  0.6067570000000 1.0
C      1  0.4910480000000  0.6079080000000  0.5177990000000 1.0
C      1  0.5009840000000  0.5628000000000  0.4155840000000 1.0
C      1  0.4899410000000  0.4212530000000  0.4222990000000 1.0
C      1  0.4999020000000  0.4066880000000  0.5443340000000 1.0
C      1  0.4544430000000  0.4794210000000  0.4939240000000 1.0
C      1  0.4430590000000  0.4888840000000  0.5205590000000 1.0
C      1  0.4576340000000  0.5192110000000  0.5185870000000 1.0
C      1  0.4575070000000  0.5278310000000  0.4898430000000 1.0
C      1  0.4453230000000  0.5015370000000  0.4747610000000 1.0
C      1  0.4552110000000  0.5646020000000  0.4561790000000 1.0
C      1  0.4624080000000  0.4818490000000  0.4281460000000 1.0
C      1  0.4596080000000  0.4254840000000  0.4886200000000 1.0
C      1  0.4689580000000  0.4664160000000  0.5835010000000 1.0
C      1  0.4629390000000  0.5555740000000  0.5547360000000 1.0
C      1  0.4855880000000  0.4865640000000  0.5136390000000 1.0
END
