TITL C-2441163-1170-610 0.0438769880623405 125000 -20226.8367427734 0 0 141 (C1) n - 1
REM
REM in /home/bkarasulu/work/CARBON/AIRSS/Generating-Clusters/ReaxFF-fromJPCA2015/Units_Real/with-SteepDescent/Higher-Symm
REM
REM
REM
REM
REM
REM ./C.cell (1df0a924f5614ab8850e4351716899ee)
REM
REM compiler GCC version 9.2.1 20190827 (Red Hat 9.2.1-1)
REM options -cpp -mtune=generic -march=x86-64 -g -O0 -fpre-include=/usr/include/finclude/math-vector-fortran.h
REM seed 244924364 1511083909 -1822137937 110759339 -198559466 -1070959476 -1515726909 279757565 -1151320809 1787524430 299397069 741793472 -1003380049 756108038 -1846854571 340757230 -1207689198 2090592513 624107997 -166778606 364002381 -1578028488 -368001501 367404297 -1617883448 787830445 -212673838 1115920233 -1643586569 1049318233 -1883527784 -854183299 -279174557
REM
CELL 1.54180   50.00000   50.00000   50.00000   90.00000   90.00000   90.00000
LATT -1
SFAC C  
C      1  0.4672480000000  0.5395260000000  0.4217850000000 1.0
C      1  0.5536590000000  0.4253990000000  0.4621250000000 1.0
C      1  0.4267770000000  0.4618490000000  0.5552340000000 1.0
C      1  0.5374130000000  0.5425160000000  0.5776130000000 1.0
C      1  0.5369420000000  0.4559920000000  0.4272060000000 1.0
C      1  0.4651700000000  0.4532500000000  0.5783490000000 1.0
C      1  0.4565000000000  0.4267170000000  0.5344390000000 1.0
C      1  0.4448400000000  0.5746860000000  0.4612020000000 1.0
C      1  0.5459500000000  0.5718970000000  0.5369190000000 1.0
C      1  0.5793120000000  0.4618910000000  0.4595970000000 1.0
C      1  0.5780950000000  0.5389320000000  0.5540100000000 1.0
C      1  0.4218750000000  0.5383380000000  0.4604180000000 1.0
C      1  0.4661230000000  0.4527580000000  0.4248360000000 1.0
C      1  0.5538490000000  0.5704290000000  0.4600110000000 1.0
C      1  0.4255980000000  0.5373320000000  0.5416980000000 1.0
C      1  0.5387430000000  0.4574700000000  0.5760880000000 1.0
C      1  0.5310130000000  0.5432110000000  0.4215860000000 1.0
C      1  0.4607310000000  0.5475840000000  0.5732440000000 1.0
C      1  0.4599180000000  0.5806340000000  0.5367710000000 1.0
C      1  0.4474270000000  0.4269450000000  0.4627250000000 1.0
C      1  0.5385560000000  0.4242180000000  0.5394970000000 1.0
C      1  0.5763510000000  0.5362190000000  0.4447020000000 1.0
C      1  0.5776250000000  0.4615020000000  0.5436710000000 1.0
C      1  0.4179910000000  0.4600980000000  0.4468960000000 1.0
C      1  0.4867510000000  0.4351020000000  0.4360180000000 1.0
C      1  0.4308960000000  0.4343550000000  0.4871060000000 1.0
C      1  0.4217010000000  0.4871500000000  0.4430270000000 1.0
C      1  0.5155260000000  0.4380160000000  0.5723740000000 1.0
C      1  0.5119250000000  0.5619230000000  0.4331760000000 1.0
C      1  0.4877390000000  0.5478720000000  0.5839430000000 1.0
C      1  0.5442800000000  0.4149350000000  0.5119060000000 1.0
C      1  0.5662090000000  0.5627590000000  0.4851510000000 1.0
C      1  0.4457150000000  0.5771120000000  0.5135530000000 1.0
C      1  0.5777650000000  0.4866540000000  0.5540930000000 1.0
C      1  0.5722800000000  0.5085210000000  0.4361880000000 1.0
C      1  0.4274000000000  0.5145130000000  0.5610540000000 1.0
C      1  0.4839230000000  0.5612160000000  0.4336180000000 1.0
C      1  0.4324560000000  0.5724920000000  0.4895520000000 1.0
C      1  0.4275130000000  0.5131480000000  0.4393690000000 1.0
C      1  0.5126640000000  0.5566070000000  0.5724450000000 1.0
C      1  0.5162570000000  0.4357070000000  0.4336340000000 1.0
C      1  0.4935740000000  0.4574670000000  0.5726690000000 1.0
C      1  0.5636810000000  0.5641950000000  0.5149470000000 1.0
C      1  0.5597300000000  0.4278390000000  0.4907130000000 1.0
C      1  0.4363730000000  0.4359170000000  0.5154940000000 1.0
C      1  0.5740780000000  0.5116530000000  0.5655440000000 1.0
C      1  0.5866410000000  0.4882450000000  0.4524470000000 1.0
C      1  0.4309330000000  0.4862700000000  0.5699460000000 1.0
C      1  0.6010130000000  0.4849010000000  0.5045860000000 1.0
C      1  0.4855090000000  0.5228650000000  0.6023310000000 1.0
C      1  0.5142790000000  0.5993150000000  0.4752070000000 1.0
C      1  0.3959680000000  0.4739550000000  0.4880650000000 1.0
C      1  0.3967810000000  0.5095040000000  0.5110110000000 1.0
C      1  0.5990530000000  0.5222750000000  0.4882870000000 1.0
C      1  0.5154770000000  0.5255660000000  0.4015590000000 1.0
C      1  0.5107970000000  0.4883560000000  0.6030370000000 1.0
C      1  0.4863250000000  0.4962050000000  0.3960500000000 1.0
C      1  0.4901000000000  0.6036020000000  0.5096670000000 1.0
C      1  0.4870360000000  0.4015710000000  0.4788330000000 1.0
C      1  0.5220760000000  0.3982450000000  0.5018680000000 1.0
C      1  0.5895240000000  0.5216760000000  0.5145230000000 1.0
C      1  0.4772000000000  0.4947030000000  0.5981140000000 1.0
C      1  0.5152340000000  0.3987370000000  0.4729120000000 1.0
C      1  0.4020930000000  0.5030780000000  0.4825960000000 1.0
C      1  0.3989450000000  0.4799960000000  0.5163120000000 1.0
C      1  0.6017780000000  0.4948240000000  0.4778420000000 1.0
C      1  0.5161970000000  0.4960440000000  0.3972210000000 1.0
C      1  0.5118590000000  0.5146150000000  0.6080190000000 1.0
C      1  0.4862950000000  0.5249930000000  0.4015480000000 1.0
C      1  0.4933490000000  0.4011830000000  0.5090980000000 1.0
C      1  0.4860970000000  0.6001460000000  0.4775770000000 1.0
C      1  0.5176600000000  0.5962240000000  0.5041530000000 1.0
C      1  0.5254100000000  0.5737280000000  0.4595460000000 1.0
C      1  0.5887600000000  0.4620500000000  0.5150600000000 1.0
C      1  0.4553600000000  0.5193810000000  0.5664110000000 1.0
C      1  0.4894030000000  0.5883180000000  0.5341250000000 1.0
C      1  0.4746680000000  0.4187750000000  0.4585620000000 1.0
C      1  0.5105640000000  0.4211750000000  0.5483050000000 1.0
C      1  0.4112860000000  0.4525150000000  0.4750780000000 1.0
C      1  0.4121350000000  0.5343010000000  0.5154740000000 1.0
C      1  0.5798510000000  0.5394320000000  0.4740110000000 1.0
C      1  0.5441590000000  0.5070620000000  0.4296300000000 1.0
C      1  0.5354080000000  0.4851630000000  0.5883360000000 1.0
C      1  0.4692110000000  0.4836030000000  0.4168510000000 1.0
C      1  0.5278400000000  0.4166620000000  0.4528910000000 1.0
C      1  0.5848510000000  0.5465370000000  0.5269480000000 1.0
C      1  0.4554060000000  0.4795210000000  0.5872360000000 1.0
C      1  0.4852100000000  0.4152990000000  0.5330130000000 1.0
C      1  0.4742620000000  0.5790420000000  0.4587920000000 1.0
C      1  0.5158900000000  0.5712810000000  0.5449690000000 1.0
C      1  0.4192200000000  0.5465050000000  0.4890470000000 1.0
C      1  0.4221910000000  0.4623230000000  0.5262120000000 1.0
C      1  0.5725730000000  0.4548300000000  0.4900590000000 1.0
C      1  0.5354100000000  0.4831610000000  0.4155320000000 1.0
C      1  0.5454780000000  0.5128520000000  0.5767550000000 1.0
C      1  0.4562570000000  0.5125930000000  0.4307160000000 1.0
C      1  0.4667830000000  0.5230770000000  0.5063660000000 1.0
C      1  0.5253190000000  0.5044040000000  0.4568320000000 1.0
C      1  0.5158770000000  0.4536770000000  0.5193550000000 1.0
C      1  0.5276550000000  0.5213660000000  0.4821260000000 1.0
C      1  0.5358030000000  0.4739650000000  0.5176880000000 1.0
C      1  0.4465540000000  0.4782740000000  0.4858090000000 1.0
C      1  0.4738700000000  0.5071100000000  0.5459590000000 1.0
C      1  0.4682150000000  0.4812750000000  0.4688100000000 1.0
C      1  0.5289520000000  0.4843780000000  0.5420860000000 1.0
C      1  0.4840770000000  0.4594110000000  0.4717810000000 1.0
C      1  0.4825270000000  0.5399850000000  0.5239240000000 1.0
C      1  0.5189590000000  0.5505620000000  0.4783620000000 1.0
C      1  0.4476790000000  0.4807470000000  0.5163530000000 1.0
C      1  0.5308750000000  0.4778390000000  0.4691590000000 1.0
C      1  0.5154980000000  0.5464930000000  0.5268510000000 1.0
C      1  0.5486690000000  0.4802870000000  0.4914230000000 1.0
C      1  0.5356380000000  0.5257900000000  0.5254890000000 1.0
C      1  0.4716820000000  0.5277290000000  0.4793460000000 1.0
C      1  0.4707640000000  0.4811820000000  0.5323150000000 1.0
C      1  0.4738060000000  0.5080130000000  0.4589490000000 1.0
C      1  0.5277370000000  0.5112770000000  0.5471920000000 1.0
C      1  0.4865760000000  0.5518930000000  0.4763550000000 1.0
C      1  0.4872430000000  0.4603760000000  0.5231030000000 1.0
C      1  0.5127400000000  0.4574230000000  0.4711230000000 1.0
C      1  0.5606560000000  0.5154030000000  0.5147710000000 1.0
C      1  0.4996820000000  0.5077940000000  0.5575020000000 1.0
C      1  0.4314280000000  0.5024510000000  0.4856560000000 1.0
C      1  0.4430910000000  0.5081490000000  0.5112500000000 1.0
C      1  0.5547800000000  0.5096670000000  0.4875200000000 1.0
C      1  0.4996870000000  0.5072560000000  0.4478380000000 1.0
C      1  0.5061340000000  0.4802330000000  0.5582610000000 1.0
C      1  0.4946740000000  0.4812000000000  0.4361290000000 1.0
C      1  0.4859120000000  0.5596960000000  0.5036350000000 1.0
C      1  0.5115510000000  0.4405120000000  0.4943730000000 1.0
C      1  0.5143970000000  0.5642430000000  0.5044340000000 1.0
C      1  0.4827950000000  0.4455030000000  0.4979980000000 1.0
C      1  0.5561670000000  0.5570310000000  0.5602090000000 1.0
C      1  0.4398730000000  0.5522900000000  0.4450690000000 1.0
C      1  0.4473220000000  0.4414120000000  0.5583510000000 1.0
C      1  0.5602510000000  0.4474420000000  0.4434270000000 1.0
C      1  0.5536650000000  0.4457950000000  0.5543910000000 1.0
C      1  0.4426010000000  0.4440620000000  0.4396530000000 1.0
C      1  0.4448860000000  0.5580120000000  0.5509740000000 1.0
C      1  0.5556730000000  0.5540460000000  0.4363310000000 1.0
C      1  0.5062930000000  0.5031830000000  0.4978860000000 1.0
END
