TITL C-2441157-2117-442 0.0422306563681991 125000 -8242.85938616215 0 0 66 (C1) n - 1
REM
REM in /home/bkarasulu/work/CARBON/AIRSS/Generating-Clusters/ReaxFF-fromJPCA2015/Units_Real/with-SteepDescent/Higher-Symm
REM
REM
REM
REM
REM
REM ./C.cell (1df0a924f5614ab8850e4351716899ee)
REM
REM compiler GCC version 9.2.1 20190827 (Red Hat 9.2.1-1)
REM options -cpp -mtune=generic -march=x86-64 -g -O0 -fpre-include=/usr/include/finclude/math-vector-fortran.h
REM seed 1519275017 -2061749522 -682231735 1848992246 1169313701 1327166046 1938579074 206661939 -1474073395 2046310026 -871018107 -849612302 800983571 -1936427434 -295803484 -1149342762 -1383346699 -925872851 159636356 1515138624 999293482 970517259 149240759 857086318 1674170089 1460126706 1343748098 1983599837 -289819453 511598005 1008795456 1519704581 381381777
REM
CELL 1.54180   50.00000   50.00000   50.00000   90.00000   90.00000   90.00000
LATT -1
SFAC C  
C      1  0.5100880000000  0.5484710000000  0.4419200000000 1.0
C      1  0.5067600000000  0.4596650000000  0.4356880000000 1.0
C      1  0.5137920000000  0.4271250000000  0.5241450000000 1.0
C      1  0.5119590000000  0.4939900000000  0.5787280000000 1.0
C      1  0.5101020000000  0.5715660000000  0.5297240000000 1.0
C      1  0.4936130000000  0.5479160000000  0.5573900000000 1.0
C      1  0.4956730000000  0.4584240000000  0.5645700000000 1.0
C      1  0.4869980000000  0.4292280000000  0.4746660000000 1.0
C      1  0.4925810000000  0.4949930000000  0.4218780000000 1.0
C      1  0.4943530000000  0.5708530000000  0.4716140000000 1.0
C      1  0.4683510000000  0.4962060000000  0.5239900000000 1.0
C      1  0.4755930000000  0.5208500000000  0.5084830000000 1.0
C      1  0.4664550000000  0.5140800000000  0.4781650000000 1.0
C      1  0.4702980000000  0.4854080000000  0.4781880000000 1.0
C      1  0.4681410000000  0.4760420000000  0.5045810000000 1.0
C      1  0.5280390000000  0.4962420000000  0.4751610000000 1.0
C      1  0.5222710000000  0.5221010000000  0.4847180000000 1.0
C      1  0.5252830000000  0.5120450000000  0.5232430000000 1.0
C      1  0.5333370000000  0.4849880000000  0.5208320000000 1.0
C      1  0.5332300000000  0.4761560000000  0.4947500000000 1.0
C      1  0.5215040000000  0.4299730000000  0.4965650000000 1.0
C      1  0.5234540000000  0.4691910000000  0.5682230000000 1.0
C      1  0.5232770000000  0.5533020000000  0.5473270000000 1.0
C      1  0.5233990000000  0.5627150000000  0.4637830000000 1.0
C      1  0.5198300000000  0.4845860000000  0.4294080000000 1.0
C      1  0.4818370000000  0.4286690000000  0.5031030000000 1.0
C      1  0.4809700000000  0.4711890000000  0.4305820000000 1.0
C      1  0.4803940000000  0.5547730000000  0.4510400000000 1.0
C      1  0.4812910000000  0.5616920000000  0.5347390000000 1.0
C      1  0.4841860000000  0.4841750000000  0.5715230000000 1.0
C      1  0.4617880000000  0.4413610000000  0.4631010000000 1.0
C      1  0.4669660000000  0.4461820000000  0.5382170000000 1.0
C      1  0.4747440000000  0.5233980000000  0.5633970000000 1.0
C      1  0.4736290000000  0.5673640000000  0.4954060000000 1.0
C      1  0.4782950000000  0.5176760000000  0.4329890000000 1.0
C      1  0.5367070000000  0.4413100000000  0.5393060000000 1.0
C      1  0.5343850000000  0.4465870000000  0.4614820000000 1.0
C      1  0.5290650000000  0.5239780000000  0.4374290000000 1.0
C      1  0.5245490000000  0.5666370000000  0.5044750000000 1.0
C      1  0.5254280000000  0.5167710000000  0.5662290000000 1.0
C      1  0.4253410000000  0.4875700000000  0.4895090000000 1.0
C      1  0.4215580000000  0.4867200000000  0.5140980000000 1.0
C      1  0.4268490000000  0.5090900000000  0.5237460000000 1.0
C      1  0.4350540000000  0.5245500000000  0.5039140000000 1.0
C      1  0.4362680000000  0.5114180000000  0.4778960000000 1.0
C      1  0.5749810000000  0.4906920000000  0.5117770000000 1.0
C      1  0.5761320000000  0.4829880000000  0.4870570000000 1.0
C      1  0.5685730000000  0.5054380000000  0.4747460000000 1.0
C      1  0.5647290000000  0.5260420000000  0.4940040000000 1.0
C      1  0.5655050000000  0.5155980000000  0.5202720000000 1.0
C      1  0.4634050000000  0.5319170000000  0.4545500000000 1.0
C      1  0.4632660000000  0.4696840000000  0.4546880000000 1.0
C      1  0.4605310000000  0.4469470000000  0.5109450000000 1.0
C      1  0.4664290000000  0.4977420000000  0.5528500000000 1.0
C      1  0.4633920000000  0.5486790000000  0.5152530000000 1.0
C      1  0.5406940000000  0.5291220000000  0.5423850000000 1.0
C      1  0.5421140000000  0.4691740000000  0.5451420000000 1.0
C      1  0.5427900000000  0.4479540000000  0.4883450000000 1.0
C      1  0.5393460000000  0.4989500000000  0.4481800000000 1.0
C      1  0.5384950000000  0.5479330000000  0.4849550000000 1.0
C      1  0.5076990000000  0.4493370000000  0.4616310000000 1.0
C      1  0.4936450000000  0.4490250000000  0.5374850000000 1.0
C      1  0.5034500000000  0.5219540000000  0.4470210000000 1.0
C      1  0.4991790000000  0.5574390000000  0.4954070000000 1.0
C      1  0.5002360000000  0.5214020000000  0.5538870000000 1.0
C      1  0.5049390000000  0.5185790000000  0.5055790000000 1.0
END
