TITL C-2441166-8118-1163 0.138857076189813 125000 -22087.5106574214 0 0 175 (C1) n - 1
REM
REM in /home/bkarasulu/work/CARBON/AIRSS/Generating-Clusters/ReaxFF-fromJPCA2015/Units_Real/with-SteepDescent/Higher-Symm
REM
REM
REM
REM
REM
REM ./C.cell (1df0a924f5614ab8850e4351716899ee)
REM
REM compiler GCC version 9.2.1 20190827 (Red Hat 9.2.1-1)
REM options -cpp -mtune=generic -march=x86-64 -g -O0 -fpre-include=/usr/include/finclude/math-vector-fortran.h
REM seed 1964959325 1077268134 -1611973114 -338682785 -817577303 -39598403 1141594928 -617866197 -1984160379 2023183522 -1197598805 -1344368028 783937836 898131042 2043475064 1947755731 -2047399486 -711936454 -1234713563 -806643935 1926112226 -2059914018 1251357677 -901669061 -726409626 -70005931 2102275823 1146558377 -966156513 -781035522 912109090 -706210346 -7277151
REM
CELL 1.54180   50.00000   50.00000   50.00000   90.00000   90.00000   90.00000
LATT -1
SFAC C  
C      1  0.4154880000000  0.4791210000000  0.5449440000000 1.0
C      1  0.4101930000000  0.4562250000000  0.5277530000000 1.0
C      1  0.4148440000000  0.4502030000000  0.5000650000000 1.0
C      1  0.4134420000000  0.4552130000000  0.4721550000000 1.0
C      1  0.4135380000000  0.4770870000000  0.4533520000000 1.0
C      1  0.4121330000000  0.5054730000000  0.4480890000000 1.0
C      1  0.4153250000000  0.5311710000000  0.4611970000000 1.0
C      1  0.4118590000000  0.5484920000000  0.4841050000000 1.0
C      1  0.4115890000000  0.5489100000000  0.5131320000000 1.0
C      1  0.4156720000000  0.5317250000000  0.5361230000000 1.0
C      1  0.4115000000000  0.5070660000000  0.5507010000000 1.0
C      1  0.5485070000000  0.5057030000000  0.3968590000000 1.0
C      1  0.5546660000000  0.5626690000000  0.4201710000000 1.0
C      1  0.5510780000000  0.5908460000000  0.4658440000000 1.0
C      1  0.5541230000000  0.5988000000000  0.5225120000000 1.0
C      1  0.5553290000000  0.5699080000000  0.5732060000000 1.0
C      1  0.5547530000000  0.5181460000000  0.5988700000000 1.0
C      1  0.5546230000000  0.4630420000000  0.5911230000000 1.0
C      1  0.5587250000000  0.4214000000000  0.5574630000000 1.0
C      1  0.5449360000000  0.4032430000000  0.5094950000000 1.0
C      1  0.5512720000000  0.4134920000000  0.4519060000000 1.0
C      1  0.5527250000000  0.4533050000000  0.4122950000000 1.0
C      1  0.5593100000000  0.4246080000000  0.4768980000000 1.0
C      1  0.5583560000000  0.4437940000000  0.4397700000000 1.0
C      1  0.5556810000000  0.4833520000000  0.4167000000000 1.0
C      1  0.5662310000000  0.5367650000000  0.4240920000000 1.0
C      1  0.5585750000000  0.5655100000000  0.4520730000000 1.0
C      1  0.5579200000000  0.5819360000000  0.4938570000000 1.0
C      1  0.5584850000000  0.5718040000000  0.5409340000000 1.0
C      1  0.5582330000000  0.5367520000000  0.5724330000000 1.0
C      1  0.5584120000000  0.4907360000000  0.5797870000000 1.0
C      1  0.5629470000000  0.4473750000000  0.5684320000000 1.0
C      1  0.5653040000000  0.4180980000000  0.5269520000000 1.0
C      1  0.5141630000000  0.5624870000000  0.5865070000000 1.0
C      1  0.5160970000000  0.5043390000000  0.6058790000000 1.0
C      1  0.5092630000000  0.4463500000000  0.5922290000000 1.0
C      1  0.5076690000000  0.4075360000000  0.5485710000000 1.0
C      1  0.5127450000000  0.3912710000000  0.4876590000000 1.0
C      1  0.5142410000000  0.4137630000000  0.4349160000000 1.0
C      1  0.5091370000000  0.4623740000000  0.3993150000000 1.0
C      1  0.5116360000000  0.5234820000000  0.3914700000000 1.0
C      1  0.5150710000000  0.5744290000000  0.4241740000000 1.0
C      1  0.5143440000000  0.6036930000000  0.4777500000000 1.0
C      1  0.5139450000000  0.5991620000000  0.5383610000000 1.0
C      1  0.4681470000000  0.4858820000000  0.5981820000000 1.0
C      1  0.4663030000000  0.4311050000000  0.5683810000000 1.0
C      1  0.4663170000000  0.4095560000000  0.5318410000000 1.0
C      1  0.4683840000000  0.4066510000000  0.4803800000000 1.0
C      1  0.4684650000000  0.4357420000000  0.4246660000000 1.0
C      1  0.4668190000000  0.4796280000000  0.4047580000000 1.0
C      1  0.4678290000000  0.5320880000000  0.4119580000000 1.0
C      1  0.4663580000000  0.5800330000000  0.4436640000000 1.0
C      1  0.4653760000000  0.5963050000000  0.4957020000000 1.0
C      1  0.4662830000000  0.5827560000000  0.5488290000000 1.0
C      1  0.4664050000000  0.5429680000000  0.5864750000000 1.0
C      1  0.5717160000000  0.4930990000000  0.5522660000000 1.0
C      1  0.5724800000000  0.4638590000000  0.5420270000000 1.0
C      1  0.5726040000000  0.4474940000000  0.5162220000000 1.0
C      1  0.5732900000000  0.4496980000000  0.4841290000000 1.0
C      1  0.5740430000000  0.4642720000000  0.4582300000000 1.0
C      1  0.5706400000000  0.4913800000000  0.4452510000000 1.0
C      1  0.5742480000000  0.5233750000000  0.4497780000000 1.0
C      1  0.5729910000000  0.5438830000000  0.4702210000000 1.0
C      1  0.5732700000000  0.5531570000000  0.4978340000000 1.0
C      1  0.5714250000000  0.5453470000000  0.5271960000000 1.0
C      1  0.5726860000000  0.5226280000000  0.5477920000000 1.0
C      1  0.4830130000000  0.4580100000000  0.5939590000000 1.0
C      1  0.4800120000000  0.4067940000000  0.5573190000000 1.0
C      1  0.4856160000000  0.3888910000000  0.4935670000000 1.0
C      1  0.4861600000000  0.4158980000000  0.4385680000000 1.0
C      1  0.4818450000000  0.4551980000000  0.4003270000000 1.0
C      1  0.4838580000000  0.5248810000000  0.3908200000000 1.0
C      1  0.4865740000000  0.5726520000000  0.4230550000000 1.0
C      1  0.4861070000000  0.6021790000000  0.4752290000000 1.0
C      1  0.4860190000000  0.5983780000000  0.5338320000000 1.0
C      1  0.4863770000000  0.5642790000000  0.5821870000000 1.0
C      1  0.4887910000000  0.5097190000000  0.6027740000000 1.0
C      1  0.4727200000000  0.4756700000000  0.5443970000000 1.0
C      1  0.4819750000000  0.4598880000000  0.5219980000000 1.0
C      1  0.4666640000000  0.4537250000000  0.4963080000000 1.0
C      1  0.4823310000000  0.4614120000000  0.4703490000000 1.0
C      1  0.4739750000000  0.4839140000000  0.4547020000000 1.0
C      1  0.4705570000000  0.5118480000000  0.4549740000000 1.0
C      1  0.4700820000000  0.5372990000000  0.4644610000000 1.0
C      1  0.4797040000000  0.5472900000000  0.4887300000000 1.0
C      1  0.4721490000000  0.5461630000000  0.5167270000000 1.0
C      1  0.4771360000000  0.5296270000000  0.5386080000000 1.0
C      1  0.4759250000000  0.5033310000000  0.5493340000000 1.0
C      1  0.5254010000000  0.4482090000000  0.5483240000000 1.0
C      1  0.5401450000000  0.4299120000000  0.5376190000000 1.0
C      1  0.5368880000000  0.4271850000000  0.4942840000000 1.0
C      1  0.5304450000000  0.4525930000000  0.4465500000000 1.0
C      1  0.5273670000000  0.4883950000000  0.4252000000000 1.0
C      1  0.5416350000000  0.5248010000000  0.4178780000000 1.0
C      1  0.5316000000000  0.5549530000000  0.4584700000000 1.0
C      1  0.5310600000000  0.5714970000000  0.4983540000000 1.0
C      1  0.5310480000000  0.5622950000000  0.5411850000000 1.0
C      1  0.5311770000000  0.5281810000000  0.5668100000000 1.0
C      1  0.5304900000000  0.4871560000000  0.5698220000000 1.0
C      1  0.4273860000000  0.5720170000000  0.5193870000000 1.0
C      1  0.4324290000000  0.5468520000000  0.5529670000000 1.0
C      1  0.4278690000000  0.5109330000000  0.5745150000000 1.0
C      1  0.4331290000000  0.4694540000000  0.5651450000000 1.0
C      1  0.4255500000000  0.4357550000000  0.5407300000000 1.0
C      1  0.4379300000000  0.4321650000000  0.5003130000000 1.0
C      1  0.4300540000000  0.4345840000000  0.4600080000000 1.0
C      1  0.4295870000000  0.4667830000000  0.4320730000000 1.0
C      1  0.4277590000000  0.5081630000000  0.4240980000000 1.0
C      1  0.4303250000000  0.5464720000000  0.4425680000000 1.0
C      1  0.4277140000000  0.5712270000000  0.4766900000000 1.0
C      1  0.5180460000000  0.3961530000000  0.5168610000000 1.0
C      1  0.5251020000000  0.4029660000000  0.4580300000000 1.0
C      1  0.5243660000000  0.4441450000000  0.4169510000000 1.0
C      1  0.5205780000000  0.4943930000000  0.3968280000000 1.0
C      1  0.5282120000000  0.5527930000000  0.4097720000000 1.0
C      1  0.5237900000000  0.5855990000000  0.4559350000000 1.0
C      1  0.5231850000000  0.5980270000000  0.5102970000000 1.0
C      1  0.5240820000000  0.5790990000000  0.5643000000000 1.0
C      1  0.5237140000000  0.5309150000000  0.5947920000000 1.0
C      1  0.5249600000000  0.4726100000000  0.5952030000000 1.0
C      1  0.5151870000000  0.4294310000000  0.5676010000000 1.0
C      1  0.4843570000000  0.4851800000000  0.4277280000000 1.0
C      1  0.4845750000000  0.5144660000000  0.4297720000000 1.0
C      1  0.4825590000000  0.5569660000000  0.4481740000000 1.0
C      1  0.4830710000000  0.5766400000000  0.4876930000000 1.0
C      1  0.4820040000000  0.5695870000000  0.5293430000000 1.0
C      1  0.4830520000000  0.5418720000000  0.5637350000000 1.0
C      1  0.4823090000000  0.5012480000000  0.5766560000000 1.0
C      1  0.4805520000000  0.4568280000000  0.5647350000000 1.0
C      1  0.4863960000000  0.4292530000000  0.5226960000000 1.0
C      1  0.4820200000000  0.4289290000000  0.4942720000000 1.0
C      1  0.4821570000000  0.4409720000000  0.4495960000000 1.0
C      1  0.6029740000000  0.5207110000000  0.5462370000000 1.0
C      1  0.6017950000000  0.4921500000000  0.5499710000000 1.0
C      1  0.6026870000000  0.4661370000000  0.5378870000000 1.0
C      1  0.6015690000000  0.4514730000000  0.5127380000000 1.0
C      1  0.6037660000000  0.4516400000000  0.4838580000000 1.0
C      1  0.6043450000000  0.4666270000000  0.4596070000000 1.0
C      1  0.6002160000000  0.4930100000000  0.4482380000000 1.0
C      1  0.6046830000000  0.5209650000000  0.4537100000000 1.0
C      1  0.6024920000000  0.5427200000000  0.4723440000000 1.0
C      1  0.6034090000000  0.5511600000000  0.5000650000000 1.0
C      1  0.6013250000000  0.5427660000000  0.5276190000000 1.0
C      1  0.5202630000000  0.5167580000000  0.5434460000000 1.0
C      1  0.5223340000000  0.4887280000000  0.5429660000000 1.0
C      1  0.5152970000000  0.4638800000000  0.5265380000000 1.0
C      1  0.5238700000000  0.4521230000000  0.5004120000000 1.0
C      1  0.5090720000000  0.4685280000000  0.4826970000000 1.0
C      1  0.5256050000000  0.4755310000000  0.4626230000000 1.0
C      1  0.5246660000000  0.5015280000000  0.4502180000000 1.0
C      1  0.5204540000000  0.5290830000000  0.4598230000000 1.0
C      1  0.5062290000000  0.5302270000000  0.4857410000000 1.0
C      1  0.5238240000000  0.5451790000000  0.5017000000000 1.0
C      1  0.5213980000000  0.5401840000000  0.5277830000000 1.0
C      1  0.4392660000000  0.5329460000000  0.4197660000000 1.0
C      1  0.4394200000000  0.5713860000000  0.4511370000000 1.0
C      1  0.4381700000000  0.5861680000000  0.4976540000000 1.0
C      1  0.4397520000000  0.5722230000000  0.5442280000000 1.0
C      1  0.4398540000000  0.5364430000000  0.5774960000000 1.0
C      1  0.4416120000000  0.4883330000000  0.5838570000000 1.0
C      1  0.4398870000000  0.4419720000000  0.5632620000000 1.0
C      1  0.4396010000000  0.4180180000000  0.5254790000000 1.0
C      1  0.4410320000000  0.4154420000000  0.4774470000000 1.0
C      1  0.4408990000000  0.4414900000000  0.4351110000000 1.0
C      1  0.4392850000000  0.4849280000000  0.4134140000000 1.0
C      1  0.4712380000000  0.4995120000000  0.5001710000000 1.0
C      1  0.5002640000000  0.5024390000000  0.4976530000000 1.0
C      1  0.3928790000000  0.4994260000000  0.4991740000000 1.0
C      1  0.4453050000000  0.4990580000000  0.5001190000000 1.0
C      1  0.4191910000000  0.4992530000000  0.4994600000000 1.0
C      1  0.5286820000000  0.4978590000000  0.5010770000000 1.0
C      1  0.3682430000000  0.4995600000000  0.4991710000000 1.0
C      1  0.5798590000000  0.4993890000000  0.4995090000000 1.0
C      1  0.6045620000000  0.4997840000000  0.4993860000000 1.0
C      1  0.5539360000000  0.4986610000000  0.5002770000000 1.0
END
