TITL C-2441167-4473-1246 0.0263527847841168 125000 -8616.81599577772 0 0 65 (C1) n - 1
REM
REM in /home/bkarasulu/work/CARBON/AIRSS/Generating-Clusters/ReaxFF-fromJPCA2015/Units_Real/with-SteepDescent/Higher-Symm
REM
REM
REM
REM
REM
REM ./C.cell (1df0a924f5614ab8850e4351716899ee)
REM
REM compiler GCC version 9.2.1 20190827 (Red Hat 9.2.1-1)
REM options -cpp -mtune=generic -march=x86-64 -g -O0 -fpre-include=/usr/include/finclude/math-vector-fortran.h
REM seed 693774036 -89978671 1639930975 1338096993 -560900856 1739634472 -681697325 -2101390196 1888322731 1346535608 205205402 -1599424258 -1071793888 1511171122 305436139 1172211234 1860455744 -1432238840 -245357604 -1780461117 -2125110223 -1717661973 1163350825 -498689041 -2128582363 -1135239098 564067708 1734327868 -568488736 1283011295 1138827829 1609369516 -1913002036
REM
CELL 1.54180   50.00000   50.00000   50.00000   90.00000   90.00000   90.00000
LATT -1
SFAC C  
C      1  0.4909730000000  0.4767580000000  0.5270930000000 1.0
C      1  0.5078610000000  0.5153120000000  0.4348240000000 1.0
C      1  0.5641680000000  0.4590620000000  0.4990660000000 1.0
C      1  0.4919880000000  0.4440830000000  0.5459010000000 1.0
C      1  0.5448710000000  0.4337050000000  0.5010530000000 1.0
C      1  0.5027300000000  0.5358620000000  0.4894340000000 1.0
C      1  0.5512110000000  0.5159090000000  0.4904290000000 1.0
C      1  0.5512820000000  0.5097650000000  0.4624070000000 1.0
C      1  0.4502560000000  0.5478200000000  0.4912740000000 1.0
C      1  0.5285150000000  0.4637950000000  0.4511900000000 1.0
C      1  0.4593560000000  0.5217100000000  0.5307520000000 1.0
C      1  0.5407360000000  0.4738850000000  0.4928870000000 1.0
C      1  0.5229990000000  0.4735640000000  0.5201790000000 1.0
C      1  0.5204630000000  0.5139420000000  0.4893670000000 1.0
C      1  0.5327250000000  0.4530430000000  0.5417240000000 1.0
C      1  0.5351620000000  0.5477790000000  0.5135190000000 1.0
C      1  0.4967320000000  0.4278770000000  0.5217710000000 1.0
C      1  0.5132490000000  0.4873260000000  0.5636350000000 1.0
C      1  0.5291530000000  0.4990290000000  0.5367710000000 1.0
C      1  0.4571240000000  0.4497670000000  0.4692850000000 1.0
C      1  0.5141780000000  0.4844320000000  0.4351200000000 1.0
C      1  0.4647850000000  0.4631410000000  0.5241770000000 1.0
C      1  0.4684140000000  0.5422400000000  0.5510740000000 1.0
C      1  0.4722760000000  0.4231930000000  0.5080450000000 1.0
C      1  0.4952180000000  0.5747490000000  0.4793190000000 1.0
C      1  0.4933990000000  0.5637520000000  0.4524270000000 1.0
C      1  0.5602870000000  0.5016260000000  0.5377090000000 1.0
C      1  0.5163170000000  0.4326680000000  0.4981900000000 1.0
C      1  0.5127420000000  0.4939750000000  0.4708300000000 1.0
C      1  0.4207920000000  0.4915540000000  0.4744850000000 1.0
C      1  0.4695970000000  0.5473230000000  0.4450610000000 1.0
C      1  0.4823530000000  0.4484990000000  0.4547890000000 1.0
C      1  0.4204960000000  0.5087410000000  0.4986670000000 1.0
C      1  0.4986640000000  0.4758310000000  0.4850930000000 1.0
C      1  0.4783180000000  0.5584030000000  0.5009890000000 1.0
C      1  0.4580100000000  0.4450640000000  0.4989830000000 1.0
C      1  0.5310600000000  0.5268510000000  0.4474230000000 1.0
C      1  0.5115150000000  0.4576310000000  0.5622050000000 1.0
C      1  0.4364380000000  0.4687930000000  0.4620860000000 1.0
C      1  0.5596850000000  0.4607940000000  0.5405180000000 1.0
C      1  0.5420080000000  0.5504800000000  0.5536590000000 1.0
C      1  0.5209260000000  0.5537560000000  0.4533610000000 1.0
C      1  0.4804340000000  0.5032890000000  0.5213980000000 1.0
C      1  0.5076930000000  0.4493420000000  0.4711990000000 1.0
C      1  0.4873030000000  0.4712770000000  0.4372680000000 1.0
C      1  0.4653550000000  0.5057800000000  0.4715900000000 1.0
C      1  0.5206840000000  0.5591880000000  0.4835370000000 1.0
C      1  0.5616750000000  0.5303800000000  0.5393700000000 1.0
C      1  0.4460900000000  0.4850780000000  0.4813800000000 1.0
C      1  0.5721990000000  0.4770870000000  0.5222710000000 1.0
C      1  0.4897140000000  0.5327340000000  0.5711560000000 1.0
C      1  0.4390500000000  0.5291380000000  0.5099820000000 1.0
C      1  0.5370800000000  0.5716820000000  0.5341480000000 1.0
C      1  0.5126750000000  0.5399000000000  0.5537860000000 1.0
C      1  0.4787870000000  0.5222160000000  0.4323950000000 1.0
C      1  0.5496230000000  0.4791020000000  0.4648810000000 1.0
C      1  0.4721710000000  0.4955900000000  0.4431700000000 1.0
C      1  0.4980220000000  0.5065400000000  0.5728240000000 1.0
C      1  0.4427970000000  0.4805230000000  0.5384790000000 1.0
C      1  0.4764150000000  0.5582670000000  0.5299950000000 1.0
C      1  0.4810310000000  0.4964330000000  0.4941500000000 1.0
C      1  0.5187010000000  0.5269540000000  0.5287470000000 1.0
C      1  0.5622510000000  0.5342260000000  0.5105230000000 1.0
C      1  0.4540870000000  0.5351800000000  0.4660470000000 1.0
C      1  0.4271280000000  0.4866040000000  0.5149310000000 1.0
END
