TITL C-2441166-8118-568 0.00536254719270607 125000 -7531.35342077094 0 0 53 (C1) n - 1
REM
REM in /home/bkarasulu/work/CARBON/AIRSS/Generating-Clusters/ReaxFF-fromJPCA2015/Units_Real/with-SteepDescent/Higher-Symm
REM
REM
REM
REM
REM
REM ./C.cell (1df0a924f5614ab8850e4351716899ee)
REM
REM compiler GCC version 9.2.1 20190827 (Red Hat 9.2.1-1)
REM options -cpp -mtune=generic -march=x86-64 -g -O0 -fpre-include=/usr/include/finclude/math-vector-fortran.h
REM seed 190915042 2101373560 -565584771 1200017049 1937406037 1815592536 1655489788 -1595061948 238953127 1759535814 1585136133 16126804 -1553483812 -546614471 1415531133 -1697569325 2048874428 2098853991 884476183 -1758706430 -50010174 883925339 -513729889 -3291567 -1008547146 -1611442403 -2031335404 726798176 1665660065 -1362315857 -2023231667 -1442947556 -1408176073
REM
CELL 1.54180   50.00000   50.00000   50.00000   90.00000   90.00000   90.00000
LATT -1
SFAC C  
C      1  0.5508220000000  0.4770580000000  0.5241990000000 1.0
C      1  0.5540630000000  0.4770400000000  0.4715990000000 1.0
C      1  0.5535340000000  0.5322780000000  0.4748140000000 1.0
C      1  0.5524150000000  0.5315520000000  0.5278580000000 1.0
C      1  0.4457170000000  0.5305310000000  0.5235090000000 1.0
C      1  0.4460720000000  0.5294900000000  0.4740610000000 1.0
C      1  0.4492130000000  0.4790810000000  0.4671460000000 1.0
C      1  0.4468950000000  0.4766540000000  0.5276080000000 1.0
C      1  0.4610190000000  0.4666130000000  0.5495060000000 1.0
C      1  0.4564790000000  0.4545550000000  0.4754600000000 1.0
C      1  0.4563220000000  0.5287890000000  0.4489640000000 1.0
C      1  0.4587370000000  0.5535980000000  0.5326440000000 1.0
C      1  0.5418110000000  0.5240920000000  0.5520620000000 1.0
C      1  0.5369890000000  0.5522890000000  0.4638050000000 1.0
C      1  0.5402150000000  0.4668980000000  0.4500830000000 1.0
C      1  0.5434390000000  0.4496670000000  0.5221090000000 1.0
C      1  0.5019810000000  0.5684460000000  0.5110680000000 1.0
C      1  0.5017040000000  0.4862270000000  0.5693990000000 1.0
C      1  0.5019820000000  0.4319540000000  0.4845480000000 1.0
C      1  0.5033990000000  0.5121450000000  0.4356350000000 1.0
C      1  0.4975630000000  0.4314300000000  0.5140670000000 1.0
C      1  0.4936760000000  0.5152510000000  0.5683560000000 1.0
C      1  0.5044490000000  0.5743310000000  0.4841390000000 1.0
C      1  0.4981100000000  0.4837220000000  0.4394560000000 1.0
C      1  0.5392170000000  0.4664860000000  0.4975330000000 1.0
C      1  0.5489190000000  0.5051150000000  0.4631640000000 1.0
C      1  0.5419250000000  0.5365060000000  0.5027960000000 1.0
C      1  0.5365040000000  0.4966100000000  0.5408440000000 1.0
C      1  0.4605620000000  0.5330170000000  0.4973500000000 1.0
C      1  0.4416540000000  0.5046210000000  0.4585140000000 1.0
C      1  0.4581640000000  0.4598270000000  0.5049120000000 1.0
C      1  0.4569510000000  0.5046360000000  0.5336340000000 1.0
C      1  0.4890840000000  0.5245930000000  0.4988400000000 1.0
C      1  0.4855190000000  0.5094130000000  0.5395260000000 1.0
C      1  0.4865310000000  0.4589410000000  0.5119160000000 1.0
C      1  0.4944780000000  0.4815400000000  0.4683240000000 1.0
C      1  0.5060900000000  0.4628740000000  0.4881950000000 1.0
C      1  0.5075360000000  0.4888870000000  0.5402650000000 1.0
C      1  0.5113750000000  0.5407940000000  0.5077520000000 1.0
C      1  0.5204260000000  0.5131610000000  0.4597520000000 1.0
C      1  0.4803970000000  0.4359010000000  0.4649530000000 1.0
C      1  0.4833310000000  0.5339250000000  0.4386420000000 1.0
C      1  0.4815350000000  0.5698810000000  0.5355620000000 1.0
C      1  0.4828550000000  0.4618640000000  0.5676590000000 1.0
C      1  0.5162800000000  0.5679100000000  0.4616860000000 1.0
C      1  0.5179940000000  0.4607640000000  0.4335190000000 1.0
C      1  0.5195810000000  0.4349180000000  0.5341010000000 1.0
C      1  0.5155110000000  0.5353870000000  0.5639380000000 1.0
C      1  0.5017670000000  0.4457550000000  0.5531800000000 1.0
C      1  0.4986690000000  0.5556490000000  0.4481600000000 1.0
C      1  0.4985410000000  0.4425720000000  0.4445510000000 1.0
C      1  0.4990960000000  0.5543240000000  0.5515700000000 1.0
C      1  0.5017300000000  0.5056470000000  0.4814080000000 1.0
END
