TITL C-2441157-2117-1257 0.00221923598553819 125000 -13593.85414629 0 0 92 (C1) n - 1
REM
REM in /home/bkarasulu/work/CARBON/AIRSS/Generating-Clusters/ReaxFF-fromJPCA2015/Units_Real/with-SteepDescent/Higher-Symm
REM
REM
REM
REM
REM
REM ./C.cell (1df0a924f5614ab8850e4351716899ee)
REM
REM compiler GCC version 9.2.1 20190827 (Red Hat 9.2.1-1)
REM options -cpp -mtune=generic -march=x86-64 -g -O0 -fpre-include=/usr/include/finclude/math-vector-fortran.h
REM seed -1953259212 1202858712 475386761 296999183 -941406938 1530736381 -752714683 446684295 1949916181 1614734040 641872835 203957496 -114616986 -1608724629 1935090385 1576006528 -1512669771 -728449292 1605819442 -49524373 -1118805573 1046012236 -1939228181 -822866101 -1737388124 650304823 844593062 1038321987 -208328117 -1332415009 90111223 2047479307 -2076673721
REM
CELL 1.54180   50.00000   50.00000   50.00000   90.00000   90.00000   90.00000
LATT -1
SFAC C  
C      1  0.5156660000000  0.5374190000000  0.4750830000000 1.0
C      1  0.4871800000000  0.5129610000000  0.5511750000000 1.0
C      1  0.5408610000000  0.4927400000000  0.5210460000000 1.0
C      1  0.4849390000000  0.5416180000000  0.5138810000000 1.0
C      1  0.5109590000000  0.4601960000000  0.5078640000000 1.0
C      1  0.4696010000000  0.4474160000000  0.4934600000000 1.0
C      1  0.5088880000000  0.5161530000000  0.4543600000000 1.0
C      1  0.4770700000000  0.4843780000000  0.4637710000000 1.0
C      1  0.5152730000000  0.4794530000000  0.5286620000000 1.0
C      1  0.4664930000000  0.4749680000000  0.4888780000000 1.0
C      1  0.5414910000000  0.5204670000000  0.4867160000000 1.0
C      1  0.4623020000000  0.5199220000000  0.5094660000000 1.0
C      1  0.5196180000000  0.4734060000000  0.4833480000000 1.0
C      1  0.4890430000000  0.4906580000000  0.5342980000000 1.0
C      1  0.5413980000000  0.5226300000000  0.5161290000000 1.0
C      1  0.4868540000000  0.4469320000000  0.5133990000000 1.0
C      1  0.5157500000000  0.5388240000000  0.5263830000000 1.0
C      1  0.4837570000000  0.5443420000000  0.4849270000000 1.0
C      1  0.5051040000000  0.4872300000000  0.4636540000000 1.0
C      1  0.4733390000000  0.5115060000000  0.4555610000000 1.0
C      1  0.5093750000000  0.5275550000000  0.5521130000000 1.0
C      1  0.4611090000000  0.5252300000000  0.4788170000000 1.0
C      1  0.5421520000000  0.4898960000000  0.4890630000000 1.0
C      1  0.4700220000000  0.4914150000000  0.5125490000000 1.0
C      1  0.5712290000000  0.5300940000000  0.5219410000000 1.0
C      1  0.5236610000000  0.5684130000000  0.5285490000000 1.0
C      1  0.5250330000000  0.5256080000000  0.5756090000000 1.0
C      1  0.4303480000000  0.5296210000000  0.4756490000000 1.0
C      1  0.5692540000000  0.4771530000000  0.4798830000000 1.0
C      1  0.4200210000000  0.4709220000000  0.5198030000000 1.0
C      1  0.4783480000000  0.5716760000000  0.4752750000000 1.0
C      1  0.5207270000000  0.4186750000000  0.4702010000000 1.0
C      1  0.4821950000000  0.4252120000000  0.5298780000000 1.0
C      1  0.4684590000000  0.5194860000000  0.4271990000000 1.0
C      1  0.5289780000000  0.4787270000000  0.4182720000000 1.0
C      1  0.4716630000000  0.4762420000000  0.5849840000000 1.0
C      1  0.5698200000000  0.4792490000000  0.5255430000000 1.0
C      1  0.5240200000000  0.4133110000000  0.5275780000000 1.0
C      1  0.5292140000000  0.4795850000000  0.5842390000000 1.0
C      1  0.4187820000000  0.4701090000000  0.4779200000000 1.0
C      1  0.5701110000000  0.5276220000000  0.4783710000000 1.0
C      1  0.4328760000000  0.5264270000000  0.5198180000000 1.0
C      1  0.4735360000000  0.4250560000000  0.4757090000000 1.0
C      1  0.5219350000000  0.5655060000000  0.4711910000000 1.0
C      1  0.4784390000000  0.5696530000000  0.5238850000000 1.0
C      1  0.4703280000000  0.4766050000000  0.4148460000000 1.0
C      1  0.5226200000000  0.5224030000000  0.4280310000000 1.0
C      1  0.4716030000000  0.5184160000000  0.5738430000000 1.0
C      1  0.5677330000000  0.4561750000000  0.5405490000000 1.0
C      1  0.5416940000000  0.5704220000000  0.4545880000000 1.0
C      1  0.4549600000000  0.5403520000000  0.5733800000000 1.0
C      1  0.4297480000000  0.4551980000000  0.4599750000000 1.0
C      1  0.5727810000000  0.5450270000000  0.4575270000000 1.0
C      1  0.4305630000000  0.5437430000000  0.5407180000000 1.0
C      1  0.4618040000000  0.5698170000000  0.5459500000000 1.0
C      1  0.5428680000000  0.4233970000000  0.5416680000000 1.0
C      1  0.4612310000000  0.4291150000000  0.4518090000000 1.0
C      1  0.5444180000000  0.5393520000000  0.4284700000000 1.0
C      1  0.4585510000000  0.4562130000000  0.4224660000000 1.0
C      1  0.5430060000000  0.4604030000000  0.5746240000000 1.0
C      1  0.5754040000000  0.5458150000000  0.5435960000000 1.0
C      1  0.5402430000000  0.4276590000000  0.4572610000000 1.0
C      1  0.4595520000000  0.4567840000000  0.5750350000000 1.0
C      1  0.4281370000000  0.5481880000000  0.4559150000000 1.0
C      1  0.5684560000000  0.4576010000000  0.4615540000000 1.0
C      1  0.4314930000000  0.4562250000000  0.5376550000000 1.0
C      1  0.4611340000000  0.4280550000000  0.5465670000000 1.0
C      1  0.5438150000000  0.5713030000000  0.5469680000000 1.0
C      1  0.4613020000000  0.5722630000000  0.4537240000000 1.0
C      1  0.5431350000000  0.4605630000000  0.4284420000000 1.0
C      1  0.4549320000000  0.5430970000000  0.4255890000000 1.0
C      1  0.5484040000000  0.5401750000000  0.5734640000000 1.0
C      1  0.5036650000000  0.5828780000000  0.4849980000000 1.0
C      1  0.4850680000000  0.4997780000000  0.5930910000000 1.0
C      1  0.5857950000000  0.4878620000000  0.5017220000000 1.0
C      1  0.5027860000000  0.5833320000000  0.5139160000000 1.0
C      1  0.5007520000000  0.4066500000000  0.5144040000000 1.0
C      1  0.4981310000000  0.4099580000000  0.4850050000000 1.0
C      1  0.5132490000000  0.5010720000000  0.4097460000000 1.0
C      1  0.4834480000000  0.5008120000000  0.4090630000000 1.0
C      1  0.5147820000000  0.5016770000000  0.5916790000000 1.0
C      1  0.4101380000000  0.4880340000000  0.4986470000000 1.0
C      1  0.5866820000000  0.5169070000000  0.5005280000000 1.0
C      1  0.4158130000000  0.5172260000000  0.4980370000000 1.0
C      1  0.5584580000000  0.5585580000000  0.4402080000000 1.0
C      1  0.4426690000000  0.5579960000000  0.5590740000000 1.0
C      1  0.5576260000000  0.4391880000000  0.5607440000000 1.0
C      1  0.5580990000000  0.4433860000000  0.4437100000000 1.0
C      1  0.4441740000000  0.4416430000000  0.5582270000000 1.0
C      1  0.4424430000000  0.5617050000000  0.4389230000000 1.0
C      1  0.4433680000000  0.4410370000000  0.4394210000000 1.0
C      1  0.5618210000000  0.5589350000000  0.5614330000000 1.0
END
