TITL C-2441160-1326-79 -3.52607223055601e-06 125000 -3031.30300033604 0 0 23 (C1) n - 1
REM
REM in /home/bkarasulu/work/CARBON/AIRSS/Generating-Clusters/ReaxFF-fromJPCA2015/Units_Real/with-SteepDescent/Higher-Symm
REM
REM
REM
REM
REM
REM ./C.cell (1df0a924f5614ab8850e4351716899ee)
REM
REM compiler GCC version 9.2.1 20190827 (Red Hat 9.2.1-1)
REM options -cpp -mtune=generic -march=x86-64 -g -O0 -fpre-include=/usr/include/finclude/math-vector-fortran.h
REM seed 1726807248 1773422127 -1585405789 18034559 -1017646845 978993334 930954078 -1538542033 -1274448103 29471887 1709855978 -1966638433 -1321156024 2117533230 -1377700056 293154711 -792529484 -705828014 -1381202197 -333995274 1285981147 1973708103 -1089565222 -1156849871 1691988492 -832620142 -1455728015 852788774 -2135677884 552945911 1951040586 1146650004 1724094093
REM
CELL 1.54180   50.00000   50.00000   50.00000   90.00000   90.00000   90.00000
LATT -1
SFAC C  
C      1  0.4639930000000  0.4519970000000  0.4514690000000 1.0
C      1  0.5411320000000  0.4842950000000  0.4970070000000 1.0
C      1  0.5440640000000  0.5116580000000  0.4948020000000 1.0
C      1  0.4987630000000  0.5010090000000  0.5848420000000 1.0
C      1  0.4850300000000  0.5703440000000  0.4700410000000 1.0
C      1  0.4769210000000  0.4725900000000  0.4658420000000 1.0
C      1  0.4976710000000  0.5596060000000  0.4466700000000 1.0
C      1  0.4510610000000  0.4799570000000  0.4763930000000 1.0
C      1  0.5013210000000  0.4910320000000  0.5609660000000 1.0
C      1  0.4788080000000  0.4919500000000  0.5398540000000 1.0
C      1  0.4897380000000  0.4737600000000  0.4935260000000 1.0
C      1  0.5292820000000  0.4769480000000  0.5473920000000 1.0
C      1  0.4809600000000  0.4425240000000  0.4373010000000 1.0
C      1  0.5178540000000  0.4677270000000  0.4972190000000 1.0
C      1  0.4719520000000  0.4858860000000  0.5132730000000 1.0
C      1  0.4418110000000  0.4912920000000  0.5000430000000 1.0
C      1  0.5394160000000  0.4745960000000  0.5701210000000 1.0
C      1  0.5002420000000  0.5396690000000  0.4935270000000 1.0
C      1  0.4830150000000  0.5662870000000  0.4983020000000 1.0
C      1  0.5354560000000  0.4685250000000  0.5192070000000 1.0
C      1  0.5357030000000  0.5292950000000  0.4742380000000 1.0
C      1  0.5081620000000  0.5361370000000  0.4657480000000 1.0
C      1  0.5276440000000  0.5329170000000  0.5022190000000 1.0
END
