TITL C-2441167-4473-368 0.0997920071943296 125000 -26581.4103602513 0 0 192 (C1) n - 1
REM
REM in /home/bkarasulu/work/CARBON/AIRSS/Generating-Clusters/ReaxFF-fromJPCA2015/Units_Real/with-SteepDescent/Higher-Symm
REM
REM
REM
REM
REM
REM ./C.cell (1df0a924f5614ab8850e4351716899ee)
REM
REM compiler GCC version 9.2.1 20190827 (Red Hat 9.2.1-1)
REM options -cpp -mtune=generic -march=x86-64 -g -O0 -fpre-include=/usr/include/finclude/math-vector-fortran.h
REM seed 434569016 194084312 1673972822 -1424598697 43002170 -713343374 -1290205733 1416972390 248531231 -1317442331 691169967 163799531 -16840771 -1511965064 1650103075 -2122939594 -736190365 -1510381623 -1898085720 -201767104 -213390458 -1476447298 993800139 1710931830 847302159 438115937 -1799751490 99631732 1474226161 -1661512022 1530060883 118734830 723315474
REM
CELL 1.54180   50.00000   50.00000   50.00000   90.00000   90.00000   90.00000
LATT -1
SFAC C  
C      1  0.4558510000000  0.4930150000000  0.6035320000000 1.0
C      1  0.5148570000000  0.4876870000000  0.6052740000000 1.0
C      1  0.5741010000000  0.4933380000000  0.5868470000000 1.0
C      1  0.5969060000000  0.4875140000000  0.5276240000000 1.0
C      1  0.5990880000000  0.4869050000000  0.4710070000000 1.0
C      1  0.5726840000000  0.4937530000000  0.4121520000000 1.0
C      1  0.5143330000000  0.4953130000000  0.3892220000000 1.0
C      1  0.4505140000000  0.4929570000000  0.3976760000000 1.0
C      1  0.4122810000000  0.4865640000000  0.4440490000000 1.0
C      1  0.3980100000000  0.4870540000000  0.4991970000000 1.0
C      1  0.4073680000000  0.4956510000000  0.5616140000000 1.0
C      1  0.4597720000000  0.5973710000000  0.5312970000000 1.0
C      1  0.4831050000000  0.5977560000000  0.5480000000000 1.0
C      1  0.5117720000000  0.5977710000000  0.5497360000000 1.0
C      1  0.5364850000000  0.5962220000000  0.5351970000000 1.0
C      1  0.5495970000000  0.5951070000000  0.5096620000000 1.0
C      1  0.5471930000000  0.5949170000000  0.4812140000000 1.0
C      1  0.5304480000000  0.5966950000000  0.4580410000000 1.0
C      1  0.5031900000000  0.5979030000000  0.4484920000000 1.0
C      1  0.4751910000000  0.5968940000000  0.4558270000000 1.0
C      1  0.4549530000000  0.5974180000000  0.4764320000000 1.0
C      1  0.4494110000000  0.5972910000000  0.5046520000000 1.0
C      1  0.4882550000000  0.5051490000000  0.3886140000000 1.0
C      1  0.4301080000000  0.5087370000000  0.4092850000000 1.0
C      1  0.4001400000000  0.5055200000000  0.4631350000000 1.0
C      1  0.3966600000000  0.5016830000000  0.5238890000000 1.0
C      1  0.4233720000000  0.5044450000000  0.5826050000000 1.0
C      1  0.4796870000000  0.5067630000000  0.6100120000000 1.0
C      1  0.5382280000000  0.5042830000000  0.6007110000000 1.0
C      1  0.5909850000000  0.5072080000000  0.5691670000000 1.0
C      1  0.6054380000000  0.5057650000000  0.5075450000000 1.0
C      1  0.5962620000000  0.5001330000000  0.4448460000000 1.0
C      1  0.5513410000000  0.5046740000000  0.3997650000000 1.0
C      1  0.5543680000000  0.4599510000000  0.5731750000000 1.0
C      1  0.5887120000000  0.4614800000000  0.5284250000000 1.0
C      1  0.5930880000000  0.4589510000000  0.4757490000000 1.0
C      1  0.5678080000000  0.4590230000000  0.4334270000000 1.0
C      1  0.5219930000000  0.4603490000000  0.4100980000000 1.0
C      1  0.4697880000000  0.4609190000000  0.4152210000000 1.0
C      1  0.4223600000000  0.4595360000000  0.4467550000000 1.0
C      1  0.4027750000000  0.4585550000000  0.4953420000000 1.0
C      1  0.4177950000000  0.4604750000000  0.5430820000000 1.0
C      1  0.4521790000000  0.4586160000000  0.5806340000000 1.0
C      1  0.5079810000000  0.4612360000000  0.5948490000000 1.0
C      1  0.5801240000000  0.4442320000000  0.4543630000000 1.0
C      1  0.5436200000000  0.4455700000000  0.4208610000000 1.0
C      1  0.4953010000000  0.4467190000000  0.4101390000000 1.0
C      1  0.4451470000000  0.4480440000000  0.4294490000000 1.0
C      1  0.4124880000000  0.4453060000000  0.4707030000000 1.0
C      1  0.4091670000000  0.4444660000000  0.5201250000000 1.0
C      1  0.4352190000000  0.4450450000000  0.5612610000000 1.0
C      1  0.4798520000000  0.4480290000000  0.5895340000000 1.0
C      1  0.5305490000000  0.4461800000000  0.5835260000000 1.0
C      1  0.5732380000000  0.4480040000000  0.5517820000000 1.0
C      1  0.5922910000000  0.4463340000000  0.5031850000000 1.0
C      1  0.5252560000000  0.4204430000000  0.5720630000000 1.0
C      1  0.5695950000000  0.4201350000000  0.5481030000000 1.0
C      1  0.5792240000000  0.4213630000000  0.5010540000000 1.0
C      1  0.5639230000000  0.4187470000000  0.4522960000000 1.0
C      1  0.5425610000000  0.4183240000000  0.4319840000000 1.0
C      1  0.4938620000000  0.4211190000000  0.4222740000000 1.0
C      1  0.4499250000000  0.4200350000000  0.4325250000000 1.0
C      1  0.4260780000000  0.4212830000000  0.4774640000000 1.0
C      1  0.4187440000000  0.4165120000000  0.5184280000000 1.0
C      1  0.4445500000000  0.4196290000000  0.5515270000000 1.0
C      1  0.4856500000000  0.4208690000000  0.5846070000000 1.0
C      1  0.4373770000000  0.5001100000000  0.4370970000000 1.0
C      1  0.4185380000000  0.5013590000000  0.4843980000000 1.0
C      1  0.4186190000000  0.4896690000000  0.5366030000000 1.0
C      1  0.4449390000000  0.4859570000000  0.5795900000000 1.0
C      1  0.4960590000000  0.4980270000000  0.5897130000000 1.0
C      1  0.5482680000000  0.4884690000000  0.5774270000000 1.0
C      1  0.5776000000000  0.4978600000000  0.5438920000000 1.0
C      1  0.5858050000000  0.5107410000000  0.4850400000000 1.0
C      1  0.5741170000000  0.4868120000000  0.4345650000000 1.0
C      1  0.5277390000000  0.4916490000000  0.4142540000000 1.0
C      1  0.4749450000000  0.4894330000000  0.4112260000000 1.0
C      1  0.5786880000000  0.5421310000000  0.5269020000000 1.0
C      1  0.5969670000000  0.5334570000000  0.4734690000000 1.0
C      1  0.5613220000000  0.5349380000000  0.4310440000000 1.0
C      1  0.5125320000000  0.5451790000000  0.4205120000000 1.0
C      1  0.4626240000000  0.5421310000000  0.4082200000000 1.0
C      1  0.4327850000000  0.5449880000000  0.4543580000000 1.0
C      1  0.3978610000000  0.5395620000000  0.4936200000000 1.0
C      1  0.4305380000000  0.5409900000000  0.5404810000000 1.0
C      1  0.4561060000000  0.5403560000000  0.5862560000000 1.0
C      1  0.5070020000000  0.5427760000000  0.5825260000000 1.0
C      1  0.5600530000000  0.5428690000000  0.5712220000000 1.0
C      1  0.4251870000000  0.5551500000000  0.4283980000000 1.0
C      1  0.3933220000000  0.5604730000000  0.4791330000000 1.0
C      1  0.4047590000000  0.5533120000000  0.5378710000000 1.0
C      1  0.4374310000000  0.5587650000000  0.5865730000000 1.0
C      1  0.4945290000000  0.5569230000000  0.6048200000000 1.0
C      1  0.5510230000000  0.5575040000000  0.5942980000000 1.0
C      1  0.5930490000000  0.5559400000000  0.5493680000000 1.0
C      1  0.6055750000000  0.5528560000000  0.4908020000000 1.0
C      1  0.5837270000000  0.5525600000000  0.4345440000000 1.0
C      1  0.5327420000000  0.5539730000000  0.4018720000000 1.0
C      1  0.4748620000000  0.5610290000000  0.3949740000000 1.0
C      1  0.4300760000000  0.5908500000000  0.4633470000000 1.0
C      1  0.4215630000000  0.5901300000000  0.5071820000000 1.0
C      1  0.4372620000000  0.5901380000000  0.5479630000000 1.0
C      1  0.4735650000000  0.5908380000000  0.5742640000000 1.0
C      1  0.5179870000000  0.5916070000000  0.5775560000000 1.0
C      1  0.5564880000000  0.5899950000000  0.5553860000000 1.0
C      1  0.5770870000000  0.5880800000000  0.5154130000000 1.0
C      1  0.5731560000000  0.5866130000000  0.4713400000000 1.0
C      1  0.5474090000000  0.5886680000000  0.4357170000000 1.0
C      1  0.5050640000000  0.5912460000000  0.4204560000000 1.0
C      1  0.4613750000000  0.5903400000000  0.4314590000000 1.0
C      1  0.4584190000000  0.4441500000000  0.4865690000000 1.0
C      1  0.4582310000000  0.4305630000000  0.5108540000000 1.0
C      1  0.4706610000000  0.4435010000000  0.5321940000000 1.0
C      1  0.4926090000000  0.4313050000000  0.5440710000000 1.0
C      1  0.5168400000000  0.4445800000000  0.5397390000000 1.0
C      1  0.5370600000000  0.4320130000000  0.5249250000000 1.0
C      1  0.5481500000000  0.4473910000000  0.5036280000000 1.0
C      1  0.5410850000000  0.4457360000000  0.4764350000000 1.0
C      1  0.5187910000000  0.4282740000000  0.4686170000000 1.0
C      1  0.4962640000000  0.4437640000000  0.4582580000000 1.0
C      1  0.4723150000000  0.4316150000000  0.4652260000000 1.0
C      1  0.5159920000000  0.5076160000000  0.4432200000000 1.0
C      1  0.4867440000000  0.5164260000000  0.4461540000000 1.0
C      1  0.4604510000000  0.5070400000000  0.4555840000000 1.0
C      1  0.4440740000000  0.5137690000000  0.4927570000000 1.0
C      1  0.4511310000000  0.5079420000000  0.5213700000000 1.0
C      1  0.4737140000000  0.5185520000000  0.5384270000000 1.0
C      1  0.4970710000000  0.5068990000000  0.5589990000000 1.0
C      1  0.5264850000000  0.5165810000000  0.5517350000000 1.0
C      1  0.5497680000000  0.5060640000000  0.5378940000000 1.0
C      1  0.5541240000000  0.5160400000000  0.4817230000000 1.0
C      1  0.5426570000000  0.5242290000000  0.4554320000000 1.0
C      1  0.4741930000000  0.5358090000000  0.6069140000000 1.0
C      1  0.5324830000000  0.5336010000000  0.5968290000000 1.0
C      1  0.5881200000000  0.5371420000000  0.5714930000000 1.0
C      1  0.6036030000000  0.5343000000000  0.5133400000000 1.0
C      1  0.5989830000000  0.5304230000000  0.4468770000000 1.0
C      1  0.5530390000000  0.5327400000000  0.4032190000000 1.0
C      1  0.4894970000000  0.5365010000000  0.3996360000000 1.0
C      1  0.4355180000000  0.5376420000000  0.4074240000000 1.0
C      1  0.4033820000000  0.5352930000000  0.4654390000000 1.0
C      1  0.3955030000000  0.5310140000000  0.5201560000000 1.0
C      1  0.4324460000000  0.5330080000000  0.5726470000000 1.0
C      1  0.4471730000000  0.4035240000000  0.5133590000000 1.0
C      1  0.4620280000000  0.4005670000000  0.5436220000000 1.0
C      1  0.4902020000000  0.4049050000000  0.5561950000000 1.0
C      1  0.5231490000000  0.4007510000000  0.5535690000000 1.0
C      1  0.5463860000000  0.4051870000000  0.5331160000000 1.0
C      1  0.5605450000000  0.4011440000000  0.5011490000000 1.0
C      1  0.5548900000000  0.4035310000000  0.4741160000000 1.0
C      1  0.5218210000000  0.4046060000000  0.4480780000000 1.0
C      1  0.4937390000000  0.4008870000000  0.4402190000000 1.0
C      1  0.4639090000000  0.4048130000000  0.4559950000000 1.0
C      1  0.4438220000000  0.4016900000000  0.4815260000000 1.0
C      1  0.5313710000000  0.5446070000000  0.5448910000000 1.0
C      1  0.5504040000000  0.5453220000000  0.5207770000000 1.0
C      1  0.5406330000000  0.5375060000000  0.4942560000000 1.0
C      1  0.5322750000000  0.5479150000000  0.4678450000000 1.0
C      1  0.5105240000000  0.5525300000000  0.4487740000000 1.0
C      1  0.4835750000000  0.5424170000000  0.4552630000000 1.0
C      1  0.4572970000000  0.5511080000000  0.4682270000000 1.0
C      1  0.4510790000000  0.5421110000000  0.4954550000000 1.0
C      1  0.4523470000000  0.5513830000000  0.5241170000000 1.0
C      1  0.4790650000000  0.5450150000000  0.5380950000000 1.0
C      1  0.5037530000000  0.5517390000000  0.5544220000000 1.0
C      1  0.5167800000000  0.4718090000000  0.5389130000000 1.0
C      1  0.5356390000000  0.4866960000000  0.5234460000000 1.0
C      1  0.5503590000000  0.4758410000000  0.5019420000000 1.0
C      1  0.5424530000000  0.4738970000000  0.4739800000000 1.0
C      1  0.5191790000000  0.4858380000000  0.4618060000000 1.0
C      1  0.4949920000000  0.4709850000000  0.4583080000000 1.0
C      1  0.4697040000000  0.4823660000000  0.4659870000000 1.0
C      1  0.4555980000000  0.4713150000000  0.4877930000000 1.0
C      1  0.4543370000000  0.4810830000000  0.5144650000000 1.0
C      1  0.4689720000000  0.4704040000000  0.5353790000000 1.0
C      1  0.4919900000000  0.4809570000000  0.5476400000000 1.0
C      1  0.4455740000000  0.5835830000000  0.5747840000000 1.0
C      1  0.4944920000000  0.5836260000000  0.5929800000000 1.0
C      1  0.5454910000000  0.5837530000000  0.5817360000000 1.0
C      1  0.5818440000000  0.5824990000000  0.5436080000000 1.0
C      1  0.5914550000000  0.5789440000000  0.4921210000000 1.0
C      1  0.5736270000000  0.5788820000000  0.4433760000000 1.0
C      1  0.5316800000000  0.5819110000000  0.4119150000000 1.0
C      1  0.4792060000000  0.5847970000000  0.4095010000000 1.0
C      1  0.4332830000000  0.5827940000000  0.4353090000000 1.0
C      1  0.4089560000000  0.5842640000000  0.4819150000000 1.0
C      1  0.4136620000000  0.5810870000000  0.5335300000000 1.0
C      1  0.5031280000000  0.4210710000000  0.4977590000000 1.0
C      1  0.5001030000000  0.4998030000000  0.4990790000000 1.0
C      1  0.5003520000000  0.4740450000000  0.4997520000000 1.0
C      1  0.4995170000000  0.5240450000000  0.4991050000000 1.0
C      1  0.5007960000000  0.4485050000000  0.5002460000000 1.0
END
