TITL C-2441167-4473-105 0.0811904900447976 125000 -20984.8306159639 0 0 157 (C1) n - 1
REM
REM in /home/bkarasulu/work/CARBON/AIRSS/Generating-Clusters/ReaxFF-fromJPCA2015/Units_Real/with-SteepDescent/Higher-Symm
REM
REM
REM
REM
REM
REM ./C.cell (1df0a924f5614ab8850e4351716899ee)
REM
REM compiler GCC version 9.2.1 20190827 (Red Hat 9.2.1-1)
REM options -cpp -mtune=generic -march=x86-64 -g -O0 -fpre-include=/usr/include/finclude/math-vector-fortran.h
REM seed -467171681 657280231 1484310466 -809483928 -2096416292 655915933 -728643499 412831191 1176435348 173925045 -1862378261 1468454900 1858918897 -1816515590 812638827 -94475386 -2114238938 2057081018 -72797454 -377561985 -1987620323 -2020016485 1395012446 -2091187182 1775869664 -2119231387 -376187120 783177886 -1051989656 1370464772 260848328 -1319317319 -935998409
REM
CELL 1.54180   50.00000   50.00000   50.00000   90.00000   90.00000   90.00000
LATT -1
SFAC C  
C      1  0.5350260000000  0.4129150000000  0.5074920000000 1.0
C      1  0.4136460000000  0.4642390000000  0.4930720000000 1.0
C      1  0.4678320000000  0.5890050000000  0.5033950000000 1.0
C      1  0.5818230000000  0.5415840000000  0.4932140000000 1.0
C      1  0.5962980000000  0.4657800000000  0.4662110000000 1.0
C      1  0.4662010000000  0.4042190000000  0.5329800000000 1.0
C      1  0.4037130000000  0.5358520000000  0.4681280000000 1.0
C      1  0.5331270000000  0.5926040000000  0.5342970000000 1.0
C      1  0.5384950000000  0.4981760000000  0.4032290000000 1.0
C      1  0.4992070000000  0.4612180000000  0.5969520000000 1.0
C      1  0.4589890000000  0.5009790000000  0.4045850000000 1.0
C      1  0.5013930000000  0.5392010000000  0.5983720000000 1.0
C      1  0.5486480000000  0.4569920000000  0.4778950000000 1.0
C      1  0.4583830000000  0.4568700000000  0.5272650000000 1.0
C      1  0.4544440000000  0.5462350000000  0.4732920000000 1.0
C      1  0.5393120000000  0.5439660000000  0.5278030000000 1.0
C      1  0.4739150000000  0.4709200000000  0.6059460000000 1.0
C      1  0.4696460000000  0.5255950000000  0.3938730000000 1.0
C      1  0.5273080000000  0.5294010000000  0.6080870000000 1.0
C      1  0.5276930000000  0.4730920000000  0.3929230000000 1.0
C      1  0.4891620000000  0.5297300000000  0.4613470000000 1.0
C      1  0.5385330000000  0.5042460000000  0.5522500000000 1.0
C      1  0.5095290000000  0.4655750000000  0.4567990000000 1.0
C      1  0.4667980000000  0.4971480000000  0.5479550000000 1.0
C      1  0.4750430000000  0.4690120000000  0.5503590000000 1.0
C      1  0.4650720000000  0.5201560000000  0.4487450000000 1.0
C      1  0.5246700000000  0.5319220000000  0.5522470000000 1.0
C      1  0.5338640000000  0.4771700000000  0.4452110000000 1.0
C      1  0.4880310000000  0.4157410000000  0.4378670000000 1.0
C      1  0.4154950000000  0.5120050000000  0.5617430000000 1.0
C      1  0.5101060000000  0.5887530000000  0.4368180000000 1.0
C      1  0.5835970000000  0.4874870000000  0.5665760000000 1.0
C      1  0.4645410000000  0.4485940000000  0.4283590000000 1.0
C      1  0.4496530000000  0.5322030000000  0.5733980000000 1.0
C      1  0.5294880000000  0.5515260000000  0.4301360000000 1.0
C      1  0.5485250000000  0.4639270000000  0.5752460000000 1.0
C      1  0.4021500000000  0.5233820000000  0.5131310000000 1.0
C      1  0.5352860000000  0.5933820000000  0.4790140000000 1.0
C      1  0.5925730000000  0.4709090000000  0.5212760000000 1.0
C      1  0.4746290000000  0.4052950000000  0.4865260000000 1.0
C      1  0.5805900000000  0.5598260000000  0.5153110000000 1.0
C      1  0.5585820000000  0.4198730000000  0.4918790000000 1.0
C      1  0.4196660000000  0.4414650000000  0.5112100000000 1.0
C      1  0.4448510000000  0.5821510000000  0.4871120000000 1.0
C      1  0.5305320000000  0.4154350000000  0.4578780000000 1.0
C      1  0.4169850000000  0.4736270000000  0.5422070000000 1.0
C      1  0.4818410000000  0.5835330000000  0.4556380000000 1.0
C      1  0.5835860000000  0.5264390000000  0.5392270000000 1.0
C      1  0.5748990000000  0.5099950000000  0.4643550000000 1.0
C      1  0.5113960000000  0.4219460000000  0.5279900000000 1.0
C      1  0.4184800000000  0.4871590000000  0.4714990000000 1.0
C      1  0.4822660000000  0.5813200000000  0.5289990000000 1.0
C      1  0.5748120000000  0.4379500000000  0.5072140000000 1.0
C      1  0.4398890000000  0.4258970000000  0.4959920000000 1.0
C      1  0.4314650000000  0.5641710000000  0.5057090000000 1.0
C      1  0.5519980000000  0.5758790000000  0.4930850000000 1.0
C      1  0.5065270000000  0.5542720000000  0.4921330000000 1.0
C      1  0.5521500000000  0.4951270000000  0.5092210000000 1.0
C      1  0.4978400000000  0.4518670000000  0.4973820000000 1.0
C      1  0.4513970000000  0.5035330000000  0.4991550000000 1.0
C      1  0.5114060000000  0.4880930000000  0.5891410000000 1.0
C      1  0.4865400000000  0.4878060000000  0.4131180000000 1.0
C      1  0.4887370000000  0.5126430000000  0.5918650000000 1.0
C      1  0.5128260000000  0.5114090000000  0.4132230000000 1.0
C      1  0.5633420000000  0.4854080000000  0.5872550000000 1.0
C      1  0.4876860000000  0.4352740000000  0.4170720000000 1.0
C      1  0.4350410000000  0.5102540000000  0.5829240000000 1.0
C      1  0.5081220000000  0.5670370000000  0.4179960000000 1.0
C      1  0.4356610000000  0.5472250000000  0.5516920000000 1.0
C      1  0.5517410000000  0.5626740000000  0.4478910000000 1.0
C      1  0.5642330000000  0.4479390000000  0.5529120000000 1.0
C      1  0.4507430000000  0.4346150000000  0.4504420000000 1.0
C      1  0.4130670000000  0.5245360000000  0.4441890000000 1.0
C      1  0.5234140000000  0.5855320000000  0.5594560000000 1.0
C      1  0.5856370000000  0.4704630000000  0.4411400000000 1.0
C      1  0.4776120000000  0.4142910000000  0.5567420000000 1.0
C      1  0.5190750000000  0.4234480000000  0.5601380000000 1.0
C      1  0.4227180000000  0.4785520000000  0.4407440000000 1.0
C      1  0.4773550000000  0.5709310000000  0.5576940000000 1.0
C      1  0.5759050000000  0.5211830000000  0.4353960000000 1.0
C      1  0.4245080000000  0.4504760000000  0.4361670000000 1.0
C      1  0.4491910000000  0.5757160000000  0.5601690000000 1.0
C      1  0.5778070000000  0.5496540000000  0.4345420000000 1.0
C      1  0.5472990000000  0.4230560000000  0.5654760000000 1.0
C      1  0.5640900000000  0.5001650000000  0.4156290000000 1.0
C      1  0.5008100000000  0.4363940000000  0.5818490000000 1.0
C      1  0.4340070000000  0.4986860000000  0.4195090000000 1.0
C      1  0.4988000000000  0.5625790000000  0.5825750000000 1.0
C      1  0.4973680000000  0.4240120000000  0.4824670000000 1.0
C      1  0.4249100000000  0.5046510000000  0.5154130000000 1.0
C      1  0.5096450000000  0.5857180000000  0.4929740000000 1.0
C      1  0.5809060000000  0.4948200000000  0.5095560000000 1.0
C      1  0.4472130000000  0.5483690000000  0.5242340000000 1.0
C      1  0.5554020000000  0.5510010000000  0.4787690000000 1.0
C      1  0.5530760000000  0.4456360000000  0.5251630000000 1.0
C      1  0.4464250000000  0.4463490000000  0.4759340000000 1.0
C      1  0.4593780000000  0.4289150000000  0.5174690000000 1.0
C      1  0.4279680000000  0.5448990000000  0.4846330000000 1.0
C      1  0.5399490000000  0.5703820000000  0.5173560000000 1.0
C      1  0.5755020000000  0.4601500000000  0.4881550000000 1.0
C      1  0.4315730000000  0.5282740000000  0.4233560000000 1.0
C      1  0.5276780000000  0.5669080000000  0.5797780000000 1.0
C      1  0.5683530000000  0.4708070000000  0.4194460000000 1.0
C      1  0.4715710000000  0.4337620000000  0.5759060000000 1.0
C      1  0.4766490000000  0.5228940000000  0.5670190000000 1.0
C      1  0.5218080000000  0.5253270000000  0.4360910000000 1.0
C      1  0.5275490000000  0.4818690000000  0.5650880000000 1.0
C      1  0.4747160000000  0.4740490000000  0.4358130000000 1.0
C      1  0.5186450000000  0.4489240000000  0.4091240000000 1.0
C      1  0.4491040000000  0.4798260000000  0.5905910000000 1.0
C      1  0.4786860000000  0.5503600000000  0.4119880000000 1.0
C      1  0.5499090000000  0.5217230000000  0.5922720000000 1.0
C      1  0.5285390000000  0.5356690000000  0.4848860000000 1.0
C      1  0.5410110000000  0.4715490000000  0.5195440000000 1.0
C      1  0.4692150000000  0.4637440000000  0.4839810000000 1.0
C      1  0.4654570000000  0.5277830000000  0.5109380000000 1.0
C      1  0.4860530000000  0.5166040000000  0.5287980000000 1.0
C      1  0.5254630000000  0.5151120000000  0.4627740000000 1.0
C      1  0.5142830000000  0.4766160000000  0.5259530000000 1.0
C      1  0.4739610000000  0.4828900000000  0.4627460000000 1.0
C      1  0.5924320000000  0.5213360000000  0.5118790000000 1.0
C      1  0.5215760000000  0.4057260000000  0.4833160000000 1.0
C      1  0.4066480000000  0.4802720000000  0.5161120000000 1.0
C      1  0.4855780000000  0.5945640000000  0.4823450000000 1.0
C      1  0.5063060000000  0.5944330000000  0.5232740000000 1.0
C      1  0.6005930000000  0.4956390000000  0.4713800000000 1.0
C      1  0.4905200000000  0.4032390000000  0.5167800000000 1.0
C      1  0.4035750000000  0.5106580000000  0.4823470000000 1.0
C      1  0.5207580000000  0.4654370000000  0.4832870000000 1.0
C      1  0.4607150000000  0.4773780000000  0.5063680000000 1.0
C      1  0.4807850000000  0.5406640000000  0.4885530000000 1.0
C      1  0.5324250000000  0.5168570000000  0.5088160000000 1.0
C      1  0.4681850000000  0.4096250000000  0.4587700000000 1.0
C      1  0.4080060000000  0.5306640000000  0.5403510000000 1.0
C      1  0.5354630000000  0.5888640000000  0.4510110000000 1.0
C      1  0.5905250000000  0.4648110000000  0.5487190000000 1.0
C      1  0.4919470000000  0.5561740000000  0.4524050000000 1.0
C      1  0.5670290000000  0.5054520000000  0.5504000000000 1.0
C      1  0.5071110000000  0.4330260000000  0.4531530000000 1.0
C      1  0.4347700000000  0.4972320000000  0.5445350000000 1.0
C      1  0.5429800000000  0.4565380000000  0.4271270000000 1.0
C      1  0.4555120000000  0.4585260000000  0.5694260000000 1.0
C      1  0.4567180000000  0.5437320000000  0.4332140000000 1.0
C      1  0.5442280000000  0.5425600000000  0.5727270000000 1.0
C      1  0.4304310000000  0.4494430000000  0.5381510000000 1.0
C      1  0.4530470000000  0.5716620000000  0.4593520000000 1.0
C      1  0.5673610000000  0.5505210000000  0.5395110000000 1.0
C      1  0.5533940000000  0.4312280000000  0.4649130000000 1.0
C      1  0.5345370000000  0.5011410000000  0.6040300000000 1.0
C      1  0.5009660000000  0.4679010000000  0.3973510000000 1.0
C      1  0.4673750000000  0.4983340000000  0.6048840000000 1.0
C      1  0.4966770000000  0.5308760000000  0.3983070000000 1.0
C      1  0.5480440000000  0.4971330000000  0.4623840000000 1.0
C      1  0.4993010000000  0.4517440000000  0.5269470000000 1.0
C      1  0.4516360000000  0.5012120000000  0.4683170000000 1.0
C      1  0.4951230000000  0.5358260000000  0.5487800000000 1.0
C      1  0.5082730000000  0.5027080000000  0.5164370000000 1.0
END
