TITL C-2441168-9922-419 -0.000727719811639461 125000 -3549.62000669331 0 0 26 (Cs) n - 1
REM
REM in /home/bkarasulu/work/CARBON/AIRSS/Generating-Clusters/ReaxFF-fromJPCA2015/Units_Real/with-SteepDescent/Higher-Symm
REM
REM
REM
REM
REM
REM ./C.cell (1df0a924f5614ab8850e4351716899ee)
REM
REM compiler GCC version 9.2.1 20190827 (Red Hat 9.2.1-1)
REM options -cpp -mtune=generic -march=x86-64 -g -O0 -fpre-include=/usr/include/finclude/math-vector-fortran.h
REM seed 1647929131 -1232172994 -1702107592 1845126470 1490980089 1278046121 1729400186 1067170357 1389590357 1335797223 -1790496567 -373221622 -423109332 -233527812 302247792 1349087829 -728070311 -705160397 830272637 -1004121653 231881338 -1853489346 419676134 833025954 449780319 230552381 467763292 857508373 -1055901394 -1779356489 1015768293 -1029339944 1894541634
REM
CELL 1.54180   50.00000   50.00000   50.00000   90.00000   90.00000   90.00000
LATT -1
SFAC C  
C      1  0.5317200000000  0.4708980000000  0.4880470000000 1.0
C      1  0.5317200000000  0.5291020000000  0.4880470000000 1.0
C      1  0.4853810000000  0.4424830000000  0.4974240000000 1.0
C      1  0.4853810000000  0.5575170000000  0.4974240000000 1.0
C      1  0.5114810000000  0.5326250000000  0.4661800000000 1.0
C      1  0.5114810000000  0.4673750000000  0.4661800000000 1.0
C      1  0.5028510000000  0.5155810000000  0.5552470000000 1.0
C      1  0.5028510000000  0.4844190000000  0.5552470000000 1.0
C      1  0.5359870000000  0.4405340000000  0.4881240000000 1.0
C      1  0.5359870000000  0.5594660000000  0.4881240000000 1.0
C      1  0.5179280000000  0.4828440000000  0.5127330000000 1.0
C      1  0.5179280000000  0.5171560000000  0.5127330000000 1.0
C      1  0.4777460000000  0.5297170000000  0.5424490000000 1.0
C      1  0.4777460000000  0.4702830000000  0.5424490000000 1.0
C      1  0.4632330000000  0.4299000000000  0.4962040000000 1.0
C      1  0.4632330000000  0.5701000000000  0.4962040000000 1.0
C      1  0.4894290000000  0.5138240000000  0.4611050000000 1.0
C      1  0.4894290000000  0.4861760000000  0.4611050000000 1.0
C      1  0.5080960000000  0.4395830000000  0.4757700000000 1.0
C      1  0.5080960000000  0.5604170000000  0.4757700000000 1.0
C      1  0.4577530000000  0.5147310000000  0.4574040000000 1.0
C      1  0.4577530000000  0.4852690000000  0.4574040000000 1.0
C      1  0.4914260000000  0.5325680000000  0.5170070000000 1.0
C      1  0.4914260000000  0.4674320000000  0.5170070000000 1.0
C      1  0.5269690000000  0.4745850000000  0.5423050000000 1.0
C      1  0.5269690000000  0.5254150000000  0.5423050000000 1.0
END
