TITL C-2441161-5029-1067 0.0196127935945569 125000 -24423.3236727858 0 0 169 (C1) n - 1
REM
REM in /home/bkarasulu/work/CARBON/AIRSS/Generating-Clusters/ReaxFF-fromJPCA2015/Units_Real/with-SteepDescent/Higher-Symm
REM
REM
REM
REM
REM
REM ./C.cell (1df0a924f5614ab8850e4351716899ee)
REM
REM compiler GCC version 9.2.1 20190827 (Red Hat 9.2.1-1)
REM options -cpp -mtune=generic -march=x86-64 -g -O0 -fpre-include=/usr/include/finclude/math-vector-fortran.h
REM seed 712668888 439940338 906360580 -281772772 727136032 1000189554 312688360 -937226733 -704154976 2108513662 1410635085 325065680 -496938306 -1338667176 -137298025 547625460 -1296990974 -1419616229 -213138778 876964474 429862023 1199348477 -1022364391 -1718584210 1123986289 89311487 498108430 -994298071 1486116730 -502523543 965403674 -1328220234 -637881105
REM
CELL 1.54180   50.00000   50.00000   50.00000   90.00000   90.00000   90.00000
LATT -1
SFAC C  
C      1  0.5593930000000  0.5783100000000  0.5342170000000 1.0
C      1  0.5709610000000  0.5679570000000  0.4573490000000 1.0
C      1  0.5587960000000  0.4497760000000  0.4230230000000 1.0
C      1  0.5580660000000  0.4150560000000  0.5191030000000 1.0
C      1  0.5611470000000  0.4909590000000  0.5859120000000 1.0
C      1  0.4391030000000  0.5784780000000  0.5373090000000 1.0
C      1  0.4277770000000  0.5681440000000  0.4582840000000 1.0
C      1  0.4433540000000  0.4517470000000  0.4228160000000 1.0
C      1  0.4427340000000  0.4153260000000  0.5191030000000 1.0
C      1  0.4400820000000  0.4899110000000  0.5865530000000 1.0
C      1  0.4827890000000  0.4637330000000  0.5554800000000 1.0
C      1  0.4846680000000  0.5427480000000  0.5542910000000 1.0
C      1  0.4844730000000  0.5636030000000  0.4753760000000 1.0
C      1  0.4833540000000  0.4988710000000  0.4303960000000 1.0
C      1  0.4827980000000  0.4372380000000  0.4786490000000 1.0
C      1  0.5170930000000  0.4615690000000  0.5546790000000 1.0
C      1  0.5168280000000  0.5420150000000  0.5551860000000 1.0
C      1  0.5170380000000  0.5637060000000  0.4752280000000 1.0
C      1  0.5177480000000  0.4987220000000  0.4294140000000 1.0
C      1  0.5179400000000  0.4369040000000  0.4784450000000 1.0
C      1  0.4151700000000  0.5232510000000  0.4312640000000 1.0
C      1  0.4092790000000  0.4406220000000  0.4611190000000 1.0
C      1  0.4107020000000  0.4486800000000  0.5458410000000 1.0
C      1  0.4039940000000  0.5177520000000  0.5611650000000 1.0
C      1  0.4201830000000  0.5671630000000  0.4863370000000 1.0
C      1  0.5835210000000  0.5237440000000  0.4312970000000 1.0
C      1  0.5923310000000  0.4397220000000  0.4618190000000 1.0
C      1  0.5900310000000  0.4472930000000  0.5443950000000 1.0
C      1  0.5938360000000  0.5261390000000  0.5644620000000 1.0
C      1  0.5816680000000  0.5659360000000  0.4843320000000 1.0
C      1  0.4514470000000  0.5496540000000  0.4163590000000 1.0
C      1  0.4659030000000  0.4330890000000  0.4204600000000 1.0
C      1  0.4654800000000  0.4065720000000  0.5364850000000 1.0
C      1  0.4599900000000  0.5071670000000  0.5976870000000 1.0
C      1  0.4621780000000  0.5903900000000  0.5356620000000 1.0
C      1  0.5474970000000  0.5491010000000  0.4136680000000 1.0
C      1  0.5350860000000  0.4323640000000  0.4206860000000 1.0
C      1  0.5354690000000  0.4061630000000  0.5363950000000 1.0
C      1  0.5391280000000  0.5039210000000  0.5992800000000 1.0
C      1  0.5366700000000  0.5954900000000  0.5278880000000 1.0
C      1  0.5296260000000  0.4621630000000  0.4665520000000 1.0
C      1  0.5317740000000  0.4604050000000  0.5251440000000 1.0
C      1  0.5310740000000  0.5140370000000  0.5495870000000 1.0
C      1  0.5314170000000  0.5486400000000  0.5011000000000 1.0
C      1  0.5327880000000  0.5150420000000  0.4513200000000 1.0
C      1  0.4709960000000  0.4623800000000  0.4667320000000 1.0
C      1  0.4692790000000  0.4607840000000  0.5261060000000 1.0
C      1  0.4694290000000  0.5127080000000  0.5497760000000 1.0
C      1  0.4699140000000  0.5488810000000  0.5019950000000 1.0
C      1  0.4676700000000  0.5157600000000  0.4518680000000 1.0
C      1  0.5148200000000  0.4800270000000  0.5127740000000 1.0
C      1  0.5149880000000  0.5076450000000  0.5247410000000 1.0
C      1  0.5152940000000  0.5254810000000  0.4982920000000 1.0
C      1  0.5225030000000  0.5086310000000  0.4774460000000 1.0
C      1  0.5157820000000  0.4822530000000  0.4836870000000 1.0
C      1  0.4855080000000  0.4804490000000  0.5123170000000 1.0
C      1  0.4847100000000  0.5074590000000  0.5229110000000 1.0
C      1  0.4850430000000  0.5245650000000  0.4985960000000 1.0
C      1  0.4777120000000  0.5083640000000  0.4776860000000 1.0
C      1  0.4845030000000  0.4823530000000  0.4836550000000 1.0
C      1  0.5563570000000  0.4757500000000  0.5187610000000 1.0
C      1  0.5578270000000  0.5141500000000  0.5369160000000 1.0
C      1  0.5554040000000  0.5304680000000  0.4994980000000 1.0
C      1  0.5594220000000  0.4997140000000  0.4598860000000 1.0
C      1  0.5579650000000  0.4747930000000  0.4682180000000 1.0
C      1  0.4447340000000  0.4759660000000  0.5193260000000 1.0
C      1  0.4416270000000  0.5141040000000  0.5374080000000 1.0
C      1  0.4451090000000  0.5306700000000  0.5005430000000 1.0
C      1  0.4415620000000  0.5004740000000  0.4608740000000 1.0
C      1  0.4427930000000  0.4756220000000  0.4685000000000 1.0
C      1  0.4163870000000  0.4702330000000  0.5274480000000 1.0
C      1  0.4122240000000  0.5194230000000  0.5370780000000 1.0
C      1  0.4174450000000  0.5409350000000  0.4957340000000 1.0
C      1  0.4100630000000  0.5100130000000  0.4599290000000 1.0
C      1  0.4125640000000  0.4645510000000  0.4762670000000 1.0
C      1  0.5849380000000  0.4700520000000  0.5273030000000 1.0
C      1  0.5879890000000  0.5187370000000  0.5375770000000 1.0
C      1  0.5832110000000  0.5399270000000  0.4948460000000 1.0
C      1  0.5908310000000  0.5096670000000  0.4592160000000 1.0
C      1  0.5881760000000  0.4637990000000  0.4764260000000 1.0
C      1  0.3967410000000  0.4965130000000  0.5271310000000 1.0
C      1  0.4023890000000  0.5354270000000  0.5174440000000 1.0
C      1  0.4031130000000  0.5272970000000  0.4791800000000 1.0
C      1  0.3942050000000  0.4883500000000  0.4720610000000 1.0
C      1  0.4015060000000  0.4636360000000  0.5035140000000 1.0
C      1  0.6028130000000  0.4953520000000  0.5269910000000 1.0
C      1  0.5975100000000  0.5340320000000  0.5167530000000 1.0
C      1  0.5977630000000  0.5269060000000  0.4783190000000 1.0
C      1  0.6063780000000  0.4878290000000  0.4721040000000 1.0
C      1  0.5995580000000  0.4627090000000  0.5031630000000 1.0
C      1  0.5145680000000  0.4887980000000  0.5953960000000 1.0
C      1  0.5129690000000  0.5869330000000  0.5414460000000 1.0
C      1  0.5184120000000  0.5519170000000  0.4208830000000 1.0
C      1  0.5147110000000  0.4521390000000  0.4148290000000 1.0
C      1  0.5148710000000  0.4076650000000  0.5160650000000 1.0
C      1  0.4891640000000  0.5012070000000  0.6035440000000 1.0
C      1  0.4880880000000  0.6018500000000  0.5356410000000 1.0
C      1  0.4762470000000  0.5618930000000  0.4265350000000 1.0
C      1  0.4865990000000  0.4526050000000  0.4146480000000 1.0
C      1  0.4861050000000  0.4079850000000  0.5161280000000 1.0
C      1  0.5275330000000  0.4121660000000  0.4419670000000 1.0
C      1  0.5274850000000  0.4177790000000  0.5631900000000 1.0
C      1  0.5321920000000  0.5337520000000  0.5976640000000 1.0
C      1  0.5234090000000  0.6049690000000  0.5013780000000 1.0
C      1  0.5430050000000  0.5238070000000  0.4022740000000 1.0
C      1  0.4733430000000  0.4125400000000  0.4419530000000 1.0
C      1  0.4735620000000  0.4191890000000  0.5627030000000 1.0
C      1  0.4549800000000  0.5364880000000  0.5942160000000 1.0
C      1  0.4727710000000  0.6083830000000  0.4890180000000 1.0
C      1  0.4686860000000  0.5294520000000  0.4022010000000 1.0
C      1  0.4839310000000  0.5470210000000  0.4518340000000 1.0
C      1  0.4854470000000  0.4712190000000  0.4381370000000 1.0
C      1  0.4851330000000  0.4367800000000  0.5072280000000 1.0
C      1  0.4839290000000  0.4904410000000  0.5645630000000 1.0
C      1  0.4846410000000  0.5544830000000  0.5274530000000 1.0
C      1  0.5154640000000  0.5457730000000  0.4497520000000 1.0
C      1  0.5149850000000  0.4707070000000  0.4381830000000 1.0
C      1  0.5159550000000  0.4365000000000  0.5069500000000 1.0
C      1  0.5128260000000  0.4891160000000  0.5664580000000 1.0
C      1  0.5135960000000  0.5586550000000  0.5298410000000 1.0
C      1  0.4431330000000  0.4616540000000  0.5783420000000 1.0
C      1  0.4415270000000  0.5604840000000  0.5626990000000 1.0
C      1  0.4448570000000  0.5910090000000  0.4635190000000 1.0
C      1  0.4440970000000  0.4811130000000  0.4111260000000 1.0
C      1  0.4434130000000  0.4149900000000  0.4884390000000 1.0
C      1  0.5581900000000  0.4615850000000  0.5781000000000 1.0
C      1  0.5590460000000  0.5613870000000  0.5591970000000 1.0
C      1  0.5553750000000  0.5922320000000  0.4645420000000 1.0
C      1  0.5596910000000  0.4777600000000  0.4114010000000 1.0
C      1  0.5572450000000  0.4145130000000  0.4888210000000 1.0
C      1  0.4429970000000  0.6037030000000  0.4905770000000 1.0
C      1  0.4271450000000  0.5022880000000  0.4168290000000 1.0
C      1  0.4258840000000  0.4195270000000  0.4658160000000 1.0
C      1  0.4270450000000  0.4419920000000  0.5660570000000 1.0
C      1  0.4282690000000  0.5416640000000  0.5828010000000 1.0
C      1  0.5631250000000  0.6016990000000  0.4903870000000 1.0
C      1  0.5751830000000  0.5011800000000  0.4157300000000 1.0
C      1  0.5753170000000  0.4184490000000  0.4662120000000 1.0
C      1  0.5748840000000  0.4410610000000  0.5659190000000 1.0
C      1  0.5764420000000  0.5438720000000  0.5753430000000 1.0
C      1  0.5358190000000  0.4964460000000  0.4047850000000 1.0
C      1  0.5343090000000  0.4145160000000  0.4713130000000 1.0
C      1  0.5341210000000  0.4460640000000  0.5732840000000 1.0
C      1  0.5359340000000  0.5537160000000  0.5751800000000 1.0
C      1  0.5271920000000  0.5919570000000  0.4748890000000 1.0
C      1  0.4666530000000  0.5004680000000  0.4072360000000 1.0
C      1  0.4667010000000  0.4147520000000  0.4713110000000 1.0
C      1  0.4671680000000  0.4474420000000  0.5720860000000 1.0
C      1  0.4670370000000  0.5544390000000  0.5742410000000 1.0
C      1  0.4739150000000  0.5889700000000  0.4672990000000 1.0
C      1  0.5763510000000  0.4351410000000  0.4404080000000 1.0
C      1  0.5761510000000  0.4251310000000  0.5389400000000 1.0
C      1  0.5786580000000  0.5138540000000  0.5828780000000 1.0
C      1  0.5745960000000  0.5826810000000  0.5082590000000 1.0
C      1  0.5695050000000  0.5492380000000  0.4345500000000 1.0
C      1  0.4257120000000  0.4374610000000  0.4397810000000 1.0
C      1  0.4252970000000  0.4251390000000  0.5400050000000 1.0
C      1  0.4200310000000  0.5120810000000  0.5832290000000 1.0
C      1  0.4304510000000  0.5836760000000  0.5077240000000 1.0
C      1  0.4289500000000  0.5486290000000  0.4353730000000 1.0
C      1  0.4952900000000  0.6100120000000  0.5077860000000 1.0
C      1  0.5003770000000  0.4139250000000  0.4364870000000 1.0
C      1  0.4925040000000  0.5479010000000  0.4065700000000 1.0
C      1  0.5046140000000  0.5275930000000  0.6066810000000 1.0
C      1  0.5004610000000  0.4140620000000  0.5594010000000 1.0
C      1  0.4426780000000  0.5035130000000  0.5108260000000 1.0
C      1  0.5544180000000  0.5034210000000  0.5106370000000 1.0
C      1  0.6124790000000  0.4875420000000  0.5008380000000 1.0
C      1  0.3875200000000  0.4880430000000  0.5007850000000 1.0
END
