TITL C-2441157-2117-563 0.0443258491902367 125000 -15269.1721984203 0 0 111 (C1) n - 1
REM
REM in /home/bkarasulu/work/CARBON/AIRSS/Generating-Clusters/ReaxFF-fromJPCA2015/Units_Real/with-SteepDescent/Higher-Symm
REM
REM
REM
REM
REM
REM ./C.cell (1df0a924f5614ab8850e4351716899ee)
REM
REM compiler GCC version 9.2.1 20190827 (Red Hat 9.2.1-1)
REM options -cpp -mtune=generic -march=x86-64 -g -O0 -fpre-include=/usr/include/finclude/math-vector-fortran.h
REM seed -115077476 1061234083 -975249523 931693949 -1184397143 -582194059 -475973721 -735204890 334694402 -214592732 1854269556 1010201222 1511802243 1581371285 717197391 613851839 -1704822674 -1672984262 317478464 1799001691 758995679 -2002185995 -1400343599 -576050185 1357555225 912995255 -2004153861 986226301 1409709743 1302184345 102065460 -1537580950 1250358516
REM
CELL 1.54180   50.00000   50.00000   50.00000   90.00000   90.00000   90.00000
LATT -1
SFAC C  
C      1  0.4220720000000  0.5236450000000  0.4884190000000 1.0
C      1  0.4693780000000  0.5219240000000  0.5696350000000 1.0
C      1  0.5594430000000  0.5235750000000  0.5533950000000 1.0
C      1  0.5723860000000  0.5213420000000  0.4598920000000 1.0
C      1  0.4845990000000  0.5134340000000  0.4194460000000 1.0
C      1  0.5128700000000  0.4513780000000  0.5292030000000 1.0
C      1  0.5485230000000  0.4452380000000  0.4954030000000 1.0
C      1  0.5068280000000  0.4433520000000  0.4524010000000 1.0
C      1  0.4617850000000  0.4413490000000  0.4773860000000 1.0
C      1  0.4685920000000  0.4472460000000  0.5257760000000 1.0
C      1  0.4398790000000  0.5015010000000  0.4923520000000 1.0
C      1  0.4802580000000  0.4978920000000  0.5526380000000 1.0
C      1  0.5512000000000  0.4986340000000  0.5403340000000 1.0
C      1  0.5585060000000  0.4959020000000  0.4667060000000 1.0
C      1  0.4895470000000  0.4958750000000  0.4425460000000 1.0
C      1  0.5039050000000  0.5404080000000  0.5279150000000 1.0
C      1  0.5262290000000  0.5310890000000  0.5067870000000 1.0
C      1  0.5109300000000  0.5406580000000  0.4828100000000 1.0
C      1  0.4832200000000  0.5313380000000  0.4786200000000 1.0
C      1  0.4745560000000  0.5388290000000  0.5117230000000 1.0
C      1  0.4412940000000  0.5509880000000  0.5526440000000 1.0
C      1  0.5328180000000  0.5512590000000  0.5707950000000 1.0
C      1  0.5780750000000  0.5535180000000  0.4909230000000 1.0
C      1  0.5068440000000  0.5518710000000  0.4293660000000 1.0
C      1  0.4363090000000  0.5544920000000  0.4577130000000 1.0
C      1  0.5626270000000  0.5479050000000  0.5393640000000 1.0
C      1  0.5550620000000  0.5424920000000  0.4502320000000 1.0
C      1  0.4799980000000  0.5411770000000  0.4273200000000 1.0
C      1  0.4267000000000  0.5474770000000  0.5041830000000 1.0
C      1  0.4829220000000  0.5469840000000  0.5714420000000 1.0
C      1  0.5183730000000  0.4232510000000  0.5199870000000 1.0
C      1  0.5274970000000  0.4248550000000  0.4906980000000 1.0
C      1  0.5019020000000  0.4272650000000  0.4769470000000 1.0
C      1  0.4779250000000  0.4234310000000  0.4937170000000 1.0
C      1  0.4853680000000  0.4193890000000  0.5239050000000 1.0
C      1  0.5781840000000  0.4628480000000  0.5263920000000 1.0
C      1  0.5337860000000  0.4726280000000  0.4390340000000 1.0
C      1  0.4646410000000  0.4732700000000  0.4443070000000 1.0
C      1  0.4283140000000  0.4669010000000  0.5210850000000 1.0
C      1  0.4980470000000  0.4764750000000  0.5708030000000 1.0
C      1  0.5280870000000  0.5008900000000  0.5067710000000 1.0
C      1  0.5108650000000  0.4907390000000  0.4844300000000 1.0
C      1  0.4848750000000  0.5027140000000  0.4824590000000 1.0
C      1  0.4678880000000  0.5037400000000  0.5038290000000 1.0
C      1  0.4841820000000  0.4921940000000  0.5240650000000 1.0
C      1  0.4053500000000  0.4752550000000  0.5090390000000 1.0
C      1  0.4810150000000  0.4744870000000  0.5926080000000 1.0
C      1  0.5721530000000  0.4783760000000  0.5499670000000 1.0
C      1  0.5728120000000  0.4811170000000  0.4313210000000 1.0
C      1  0.4670860000000  0.4751000000000  0.4147000000000 1.0
C      1  0.4679790000000  0.5677800000000  0.5085900000000 1.0
C      1  0.5025940000000  0.5694030000000  0.5321300000000 1.0
C      1  0.5405130000000  0.5812920000000  0.5132870000000 1.0
C      1  0.5183880000000  0.5670400000000  0.4766220000000 1.0
C      1  0.4779070000000  0.5850590000000  0.4599660000000 1.0
C      1  0.5771180000000  0.4742810000000  0.4584690000000 1.0
C      1  0.4935290000000  0.4742600000000  0.4048740000000 1.0
C      1  0.4142390000000  0.4649010000000  0.4832080000000 1.0
C      1  0.4588510000000  0.4665790000000  0.5742810000000 1.0
C      1  0.5525100000000  0.4656350000000  0.5684250000000 1.0
C      1  0.4653330000000  0.4433630000000  0.5583530000000 1.0
C      1  0.5392620000000  0.4402760000000  0.5636580000000 1.0
C      1  0.5688660000000  0.4484170000000  0.4727640000000 1.0
C      1  0.4978280000000  0.4479970000000  0.4235800000000 1.0
C      1  0.4306610000000  0.4400440000000  0.4808340000000 1.0
C      1  0.4366730000000  0.4220750000000  0.5015590000000 1.0
C      1  0.4871700000000  0.4257690000000  0.5536440000000 1.0
C      1  0.5432080000000  0.4251710000000  0.5393560000000 1.0
C      1  0.5535720000000  0.4292580000000  0.4595890000000 1.0
C      1  0.4776530000000  0.4287680000000  0.4284310000000 1.0
C      1  0.5486070000000  0.4879790000000  0.4182480000000 1.0
C      1  0.4397320000000  0.4871410000000  0.4426410000000 1.0
C      1  0.4150620000000  0.4857250000000  0.5354840000000 1.0
C      1  0.5061940000000  0.4884070000000  0.5942990000000 1.0
C      1  0.5780320000000  0.4873240000000  0.5093550000000 1.0
C      1  0.5347090000000  0.4435070000000  0.4440420000000 1.0
C      1  0.4651480000000  0.4426670000000  0.4490920000000 1.0
C      1  0.4414510000000  0.4426420000000  0.5201700000000 1.0
C      1  0.5096780000000  0.4465450000000  0.5589030000000 1.0
C      1  0.5612440000000  0.4394570000000  0.5214150000000 1.0
C      1  0.4306730000000  0.4846290000000  0.4705250000000 1.0
C      1  0.4516310000000  0.4871260000000  0.5540490000000 1.0
C      1  0.5347320000000  0.4882260000000  0.5615370000000 1.0
C      1  0.5523470000000  0.4900620000000  0.4950290000000 1.0
C      1  0.5146890000000  0.4890520000000  0.4553030000000 1.0
C      1  0.5456580000000  0.5268700000000  0.5789090000000 1.0
C      1  0.5896050000000  0.5279500000000  0.4829360000000 1.0
C      1  0.5064740000000  0.5019060000000  0.4039480000000 1.0
C      1  0.4205270000000  0.5300680000000  0.4591130000000 1.0
C      1  0.4410080000000  0.5250150000000  0.5666730000000 1.0
C      1  0.5227120000000  0.5076630000000  0.5796270000000 1.0
C      1  0.5831140000000  0.5164340000000  0.5090500000000 1.0
C      1  0.5313900000000  0.5125160000000  0.4153350000000 1.0
C      1  0.4406290000000  0.5155960000000  0.4439210000000 1.0
C      1  0.4322190000000  0.5072520000000  0.5442840000000 1.0
C      1  0.4756390000000  0.5799080000000  0.5345400000000 1.0
C      1  0.5278190000000  0.5833870000000  0.5368070000000 1.0
C      1  0.5425050000000  0.5786820000000  0.4861560000000 1.0
C      1  0.5054350000000  0.5860070000000  0.4619260000000 1.0
C      1  0.4610760000000  0.5805570000000  0.4830810000000 1.0
C      1  0.5617220000000  0.5638570000000  0.4694680000000 1.0
C      1  0.4956320000000  0.5778150000000  0.4375810000000 1.0
C      1  0.4347000000000  0.5678810000000  0.4834250000000 1.0
C      1  0.4648850000000  0.5669320000000  0.5584390000000 1.0
C      1  0.5470140000000  0.5686560000000  0.5516030000000 1.0
C      1  0.4614190000000  0.5367850000000  0.4515980000000 1.0
C      1  0.4429120000000  0.5377320000000  0.5263800000000 1.0
C      1  0.5088040000000  0.5380110000000  0.5601760000000 1.0
C      1  0.5610770000000  0.5382780000000  0.5118630000000 1.0
C      1  0.5319360000000  0.5364310000000  0.4321220000000 1.0
C      1  0.4905750000000  0.4652670000000  0.5183800000000 1.0
END
