TITL C-2441158-471-1155 0.0605720683386119 125000 -11585.2758207173 0 0 93 (C1) n - 1
REM
REM in /home/bkarasulu/work/CARBON/AIRSS/Generating-Clusters/ReaxFF-fromJPCA2015/Units_Real/with-SteepDescent/Higher-Symm
REM
REM
REM
REM
REM
REM ./C.cell (1df0a924f5614ab8850e4351716899ee)
REM
REM compiler GCC version 9.2.1 20190827 (Red Hat 9.2.1-1)
REM options -cpp -mtune=generic -march=x86-64 -g -O0 -fpre-include=/usr/include/finclude/math-vector-fortran.h
REM seed -936692228 1322329254 -2010509634 -871679593 -830369896 -1602783321 -143012798 -1869973121 -80690957 -342140560 -1655909670 -61493601 639469727 -5062765 287693261 -943275087 1521718922 1549250027 216785510 -209777997 -1035447874 -1289686357 -2104953120 1586501742 2127509345 -1609412182 -1805493348 1656696767 1287149456 1636839896 570817145 -220926218 -1842968109
REM
CELL 1.54180   50.00000   50.00000   50.00000   90.00000   90.00000   90.00000
LATT -1
SFAC C  
C      1  0.4840730000000  0.5455090000000  0.5141320000000 1.0
C      1  0.4948420000000  0.5417380000000  0.4767550000000 1.0
C      1  0.5183970000000  0.5428360000000  0.5079070000000 1.0
C      1  0.5314440000000  0.5229330000000  0.4282740000000 1.0
C      1  0.5482750000000  0.5180900000000  0.5596610000000 1.0
C      1  0.4209790000000  0.5163520000000  0.5062760000000 1.0
C      1  0.5267280000000  0.4902520000000  0.4648590000000 1.0
C      1  0.5095940000000  0.4849920000000  0.5326220000000 1.0
C      1  0.4625260000000  0.4896610000000  0.4923860000000 1.0
C      1  0.5180860000000  0.4554450000000  0.4355460000000 1.0
C      1  0.5461740000000  0.4589980000000  0.5479200000000 1.0
C      1  0.4374520000000  0.4538980000000  0.5166370000000 1.0
C      1  0.5126490000000  0.5835750000000  0.4883800000000 1.0
C      1  0.5036590000000  0.5832570000000  0.5160260000000 1.0
C      1  0.4844610000000  0.5828530000000  0.4946310000000 1.0
C      1  0.5455390000000  0.5514840000000  0.5134410000000 1.0
C      1  0.4671130000000  0.5540180000000  0.5362770000000 1.0
C      1  0.4867850000000  0.5520790000000  0.4513770000000 1.0
C      1  0.5665390000000  0.5476500000000  0.4891790000000 1.0
C      1  0.4750870000000  0.5455920000000  0.5655640000000 1.0
C      1  0.4568870000000  0.5439370000000  0.4466130000000 1.0
C      1  0.5870990000000  0.5254890000000  0.4919990000000 1.0
C      1  0.4598280000000  0.5180120000000  0.5757680000000 1.0
C      1  0.4541690000000  0.5193960000000  0.4268650000000 1.0
C      1  0.4653970000000  0.4510550000000  0.4604320000000 1.0
C      1  0.5535770000000  0.4449440000000  0.4941350000000 1.0
C      1  0.4818250000000  0.4504320000000  0.5464410000000 1.0
C      1  0.4970300000000  0.4823030000000  0.4590200000000 1.0
C      1  0.5299390000000  0.4841860000000  0.5104290000000 1.0
C      1  0.4634550000000  0.4833960000000  0.5224090000000 1.0
C      1  0.4254460000000  0.5247470000000  0.5329290000000 1.0
C      1  0.5083150000000  0.5153630000000  0.4150790000000 1.0
C      1  0.5682100000000  0.5044510000000  0.5434860000000 1.0
C      1  0.4612700000000  0.4671010000000  0.5628960000000 1.0
C      1  0.4637300000000  0.4684490000000  0.4350410000000 1.0
C      1  0.5720360000000  0.4664920000000  0.5069550000000 1.0
C      1  0.4823400000000  0.5111030000000  0.4250250000000 1.0
C      1  0.5743300000000  0.5180530000000  0.5177500000000 1.0
C      1  0.4449380000000  0.5112520000000  0.5520080000000 1.0
C      1  0.5178030000000  0.5353710000000  0.5369720000000 1.0
C      1  0.4601600000000  0.5365820000000  0.4999180000000 1.0
C      1  0.5209550000000  0.5358310000000  0.4653540000000 1.0
C      1  0.4993020000000  0.5053980000000  0.5779100000000 1.0
C      1  0.4339020000000  0.5051890000000  0.4601850000000 1.0
C      1  0.5743840000000  0.5089530000000  0.4709730000000 1.0
C      1  0.4901620000000  0.4589220000000  0.4822440000000 1.0
C      1  0.5272170000000  0.4540150000000  0.5026870000000 1.0
C      1  0.4881930000000  0.4648420000000  0.5173460000000 1.0
C      1  0.5098920000000  0.5661670000000  0.5421590000000 1.0
C      1  0.4590810000000  0.5649520000000  0.4874770000000 1.0
C      1  0.5310490000000  0.5651920000000  0.4719180000000 1.0
C      1  0.4718290000000  0.4915840000000  0.5785580000000 1.0
C      1  0.4458920000000  0.4926050000000  0.4362290000000 1.0
C      1  0.5779250000000  0.4821640000000  0.4831730000000 1.0
C      1  0.5474170000000  0.5413830000000  0.5417560000000 1.0
C      1  0.4414990000000  0.5470350000000  0.5231870000000 1.0
C      1  0.5130840000000  0.5465520000000  0.4379630000000 1.0
C      1  0.5366010000000  0.4726730000000  0.5718580000000 1.0
C      1  0.4202250000000  0.4695560000000  0.4986040000000 1.0
C      1  0.5422850000000  0.4726330000000  0.4323020000000 1.0
C      1  0.4466410000000  0.4332460000000  0.4778430000000 1.0
C      1  0.5474140000000  0.4332610000000  0.4654990000000 1.0
C      1  0.5051980000000  0.4332810000000  0.5590630000000 1.0
C      1  0.4383540000000  0.5592560000000  0.4687020000000 1.0
C      1  0.5581380000000  0.5628040000000  0.4622030000000 1.0
C      1  0.5028270000000  0.5608750000000  0.5696020000000 1.0
C      1  0.5493380000000  0.5093100000000  0.5065650000000 1.0
C      1  0.4718290000000  0.5102780000000  0.5372390000000 1.0
C      1  0.4828660000000  0.5089410000000  0.4550860000000 1.0
C      1  0.5280990000000  0.5006890000000  0.5734250000000 1.0
C      1  0.4189700000000  0.4977790000000  0.4859650000000 1.0
C      1  0.5450900000000  0.5004380000000  0.4429280000000 1.0
C      1  0.5273000000000  0.4360620000000  0.5405510000000 1.0
C      1  0.4573200000000  0.4334840000000  0.5044600000000 1.0
C      1  0.5198250000000  0.4355020000000  0.4578020000000 1.0
C      1  0.4924000000000  0.4699970000000  0.4319050000000 1.0
C      1  0.5652240000000  0.4753630000000  0.5337380000000 1.0
C      1  0.4433170000000  0.4694360000000  0.5403300000000 1.0
C      1  0.5141660000000  0.4310740000000  0.5148370000000 1.0
C      1  0.4864950000000  0.4237810000000  0.5038450000000 1.0
C      1  0.4963730000000  0.4309720000000  0.4766940000000 1.0
C      1  0.4577790000000  0.5213660000000  0.4671560000000 1.0
C      1  0.5489940000000  0.5221690000000  0.4806360000000 1.0
C      1  0.4938690000000  0.5234770000000  0.5556840000000 1.0
C      1  0.5161780000000  0.4984050000000  0.4892550000000 1.0
C      1  0.4942360000000  0.5062860000000  0.5216190000000 1.0
C      1  0.4898390000000  0.5028050000000  0.4956760000000 1.0
C      1  0.5135940000000  0.4552380000000  0.5761190000000 1.0
C      1  0.4277100000000  0.4552660000000  0.4749310000000 1.0
C      1  0.5579400000000  0.4541850000000  0.4480080000000 1.0
C      1  0.4511750000000  0.4722880000000  0.4726110000000 1.0
C      1  0.5529810000000  0.4719990000000  0.4710560000000 1.0
C      1  0.4994450000000  0.4717160000000  0.5570600000000 1.0
END
