TITL C-2441162-9305-1230 0.0806038759948492 125000 -16152.9133309818 0 0 120 (C1) n - 1
REM
REM in /home/bkarasulu/work/CARBON/AIRSS/Generating-Clusters/ReaxFF-fromJPCA2015/Units_Real/with-SteepDescent/Higher-Symm
REM
REM
REM
REM
REM
REM ./C.cell (1df0a924f5614ab8850e4351716899ee)
REM
REM compiler GCC version 9.2.1 20190827 (Red Hat 9.2.1-1)
REM options -cpp -mtune=generic -march=x86-64 -g -O0 -fpre-include=/usr/include/finclude/math-vector-fortran.h
REM seed 1185002689 1067180875 -1633726635 -512250284 -2035756086 1591349951 547760256 -492195225 923090042 -886030487 -1964768264 -1104093648 45958441 -1700670516 1791686002 -1714489618 -1747792838 -675478501 988278298 1205518811 1899032403 428137952 1148992467 -1122240193 -1112688407 960405455 -1138748840 560783362 1852540104 -1984660562 959434741 152035055 1568012185
REM
CELL 1.54180   50.00000   50.00000   50.00000   90.00000   90.00000   90.00000
LATT -1
SFAC C  
C      1  0.4588420000000  0.5133330000000  0.4797080000000 1.0
C      1  0.5389230000000  0.5138570000000  0.4733440000000 1.0
C      1  0.5030350000000  0.5144390000000  0.5459850000000 1.0
C      1  0.4589310000000  0.4850960000000  0.4798040000000 1.0
C      1  0.5390180000000  0.4862810000000  0.4736510000000 1.0
C      1  0.5029450000000  0.4858140000000  0.5459110000000 1.0
C      1  0.4581870000000  0.5141920000000  0.5205110000000 1.0
C      1  0.5390230000000  0.5137880000000  0.5266130000000 1.0
C      1  0.5028920000000  0.5146480000000  0.4542570000000 1.0
C      1  0.4583900000000  0.4864060000000  0.5206390000000 1.0
C      1  0.5390660000000  0.4860850000000  0.5265200000000 1.0
C      1  0.5025120000000  0.4860310000000  0.4543990000000 1.0
C      1  0.4964020000000  0.5139650000000  0.5867400000000 1.0
C      1  0.4270550000000  0.5139280000000  0.4533830000000 1.0
C      1  0.5773320000000  0.5140740000000  0.4597450000000 1.0
C      1  0.4962330000000  0.4860600000000  0.5870560000000 1.0
C      1  0.4271540000000  0.4861120000000  0.4532860000000 1.0
C      1  0.5776520000000  0.4860720000000  0.4597870000000 1.0
C      1  0.4961510000000  0.5139430000000  0.4133470000000 1.0
C      1  0.4269780000000  0.5139400000000  0.5467600000000 1.0
C      1  0.5774920000000  0.5139840000000  0.5402990000000 1.0
C      1  0.4962270000000  0.4860420000000  0.4130710000000 1.0
C      1  0.4268450000000  0.4862130000000  0.5467800000000 1.0
C      1  0.5775280000000  0.4861520000000  0.5403950000000 1.0
C      1  0.4318390000000  0.4739140000000  0.4798300000000 1.0
C      1  0.5522490000000  0.4737550000000  0.4501350000000 1.0
C      1  0.5170410000000  0.4739970000000  0.5693550000000 1.0
C      1  0.4320810000000  0.5258660000000  0.4799230000000 1.0
C      1  0.5522320000000  0.5262730000000  0.4503260000000 1.0
C      1  0.5168670000000  0.5260280000000  0.5691310000000 1.0
C      1  0.4315920000000  0.4740700000000  0.5203740000000 1.0
C      1  0.5524990000000  0.4735350000000  0.5495270000000 1.0
C      1  0.5164500000000  0.4741570000000  0.4311250000000 1.0
C      1  0.4313270000000  0.5261720000000  0.5203010000000 1.0
C      1  0.5523940000000  0.5264580000000  0.5495630000000 1.0
C      1  0.5166300000000  0.5260830000000  0.4309230000000 1.0
C      1  0.4666740000000  0.4179190000000  0.5160070000000 1.0
C      1  0.5053570000000  0.4209000000000  0.4644960000000 1.0
C      1  0.5300140000000  0.4168490000000  0.5212970000000 1.0
C      1  0.4670320000000  0.5820630000000  0.5155810000000 1.0
C      1  0.5052410000000  0.5791730000000  0.4645260000000 1.0
C      1  0.5301580000000  0.5831120000000  0.5213630000000 1.0
C      1  0.4666190000000  0.4208350000000  0.4862770000000 1.0
C      1  0.5032280000000  0.4206070000000  0.5340460000000 1.0
C      1  0.5313460000000  0.4165450000000  0.4776220000000 1.0
C      1  0.4656870000000  0.5812340000000  0.4861520000000 1.0
C      1  0.5032630000000  0.5793960000000  0.5340060000000 1.0
C      1  0.5313110000000  0.5833640000000  0.4775520000000 1.0
C      1  0.4994950000000  0.3917700000000  0.4704100000000 1.0
C      1  0.5247230000000  0.3886960000000  0.5143270000000 1.0
C      1  0.4748440000000  0.3894360000000  0.5142810000000 1.0
C      1  0.4994450000000  0.6082010000000  0.4704180000000 1.0
C      1  0.5247590000000  0.6111680000000  0.5143620000000 1.0
C      1  0.4749720000000  0.6104490000000  0.5145910000000 1.0
C      1  0.4994530000000  0.3905920000000  0.5293360000000 1.0
C      1  0.5246060000000  0.3888860000000  0.4854680000000 1.0
C      1  0.4742730000000  0.3917570000000  0.4850670000000 1.0
C      1  0.4996350000000  0.6093390000000  0.5296150000000 1.0
C      1  0.5244680000000  0.6109720000000  0.4854900000000 1.0
C      1  0.4743240000000  0.6090010000000  0.4853410000000 1.0
C      1  0.5732710000000  0.4478810000000  0.4851420000000 1.0
C      1  0.4766420000000  0.4484400000000  0.5705470000000 1.0
C      1  0.4504510000000  0.4484950000000  0.4447430000000 1.0
C      1  0.5731110000000  0.5521120000000  0.4851670000000 1.0
C      1  0.4761380000000  0.5521560000000  0.5709040000000 1.0
C      1  0.4506090000000  0.5522120000000  0.4441200000000 1.0
C      1  0.5723480000000  0.4484520000000  0.5149560000000 1.0
C      1  0.4762840000000  0.4475870000000  0.4294110000000 1.0
C      1  0.4504490000000  0.4480020000000  0.5561520000000 1.0
C      1  0.5723880000000  0.5514970000000  0.5150200000000 1.0
C      1  0.4768370000000  0.5516800000000  0.4296440000000 1.0
C      1  0.4503990000000  0.5514650000000  0.5557430000000 1.0
C      1  0.4765960000000  0.5348480000000  0.5134040000000 1.0
C      1  0.4995910000000  0.5393410000000  0.4700090000000 1.0
C      1  0.5229510000000  0.5332620000000  0.5136090000000 1.0
C      1  0.4768980000000  0.4660680000000  0.5130750000000 1.0
C      1  0.4996530000000  0.4608350000000  0.4697560000000 1.0
C      1  0.5229610000000  0.4665170000000  0.5136490000000 1.0
C      1  0.4755840000000  0.5359750000000  0.4855500000000 1.0
C      1  0.4998180000000  0.5389540000000  0.5298510000000 1.0
C      1  0.5226200000000  0.5330570000000  0.4862540000000 1.0
C      1  0.4745640000000  0.4608450000000  0.4848950000000 1.0
C      1  0.4996030000000  0.4611180000000  0.5297500000000 1.0
C      1  0.5225980000000  0.4667220000000  0.4862440000000 1.0
C      1  0.5190500000000  0.5756910000000  0.4390580000000 1.0
C      1  0.5429780000000  0.5760610000000  0.5461900000000 1.0
C      1  0.4376600000000  0.5764130000000  0.5155220000000 1.0
C      1  0.5192810000000  0.4242900000000  0.4391010000000 1.0
C      1  0.5428780000000  0.4239260000000  0.5461040000000 1.0
C      1  0.4376070000000  0.4238370000000  0.5152730000000 1.0
C      1  0.5175090000000  0.5759190000000  0.5598720000000 1.0
C      1  0.5444670000000  0.5762220000000  0.4527440000000 1.0
C      1  0.4375200000000  0.5753510000000  0.4865010000000 1.0
C      1  0.5174510000000  0.4240080000000  0.5598470000000 1.0
C      1  0.5446840000000  0.4234850000000  0.4528530000000 1.0
C      1  0.4377320000000  0.4244210000000  0.4863420000000 1.0
C      1  0.4351820000000  0.4474330000000  0.5315190000000 1.0
C      1  0.5055080000000  0.4471700000000  0.4288920000000 1.0
C      1  0.5588320000000  0.4466770000000  0.5401160000000 1.0
C      1  0.4353610000000  0.5527640000000  0.5314920000000 1.0
C      1  0.5053630000000  0.5529610000000  0.4287180000000 1.0
C      1  0.5588140000000  0.5533050000000  0.5400920000000 1.0
C      1  0.4355110000000  0.4469100000000  0.4691410000000 1.0
C      1  0.5051560000000  0.4470950000000  0.5713850000000 1.0
C      1  0.5595450000000  0.4470150000000  0.4597640000000 1.0
C      1  0.4356970000000  0.5527950000000  0.4691820000000 1.0
C      1  0.5051980000000  0.5527460000000  0.5712900000000 1.0
C      1  0.5593960000000  0.5527890000000  0.4596980000000 1.0
C      1  0.4712020000000  0.4737880000000  0.5807720000000 1.0
C      1  0.4446570000000  0.4737910000000  0.4342730000000 1.0
C      1  0.5854800000000  0.4739870000000  0.4853080000000 1.0
C      1  0.4702670000000  0.5260620000000  0.5814450000000 1.0
C      1  0.4445460000000  0.5261860000000  0.4333720000000 1.0
C      1  0.5854020000000  0.5260870000000  0.4852400000000 1.0
C      1  0.4702910000000  0.4737130000000  0.4186040000000 1.0
C      1  0.4445700000000  0.4740980000000  0.5667110000000 1.0
C      1  0.5839670000000  0.4738310000000  0.5154240000000 1.0
C      1  0.4711260000000  0.5263400000000  0.4193670000000 1.0
C      1  0.4445780000000  0.5260770000000  0.5657060000000 1.0
C      1  0.5842250000000  0.5262130000000  0.5153540000000 1.0
END
