TITL C-2441164-471-497 0.127928939672398 125000 -19893.1163398067 0 0 158 (C1) n - 1
REM
REM in /home/bkarasulu/work/CARBON/AIRSS/Generating-Clusters/ReaxFF-fromJPCA2015/Units_Real/with-SteepDescent/Higher-Symm
REM
REM
REM
REM
REM
REM ./C.cell (1df0a924f5614ab8850e4351716899ee)
REM
REM compiler GCC version 9.2.1 20190827 (Red Hat 9.2.1-1)
REM options -cpp -mtune=generic -march=x86-64 -g -O0 -fpre-include=/usr/include/finclude/math-vector-fortran.h
REM seed -781552305 1961340982 -1268993268 -262523121 2015241276 1237682365 395711978 -276499405 -1385019800 144202363 -511628512 790245914 -1993088326 -1598585126 -1786696773 -12465259 -456498057 1199071823 -15626742 -883676882 1256173326 -93038210 1875145565 1074939720 -1271090345 -1914908547 -1986214423 76901873 1020756783 995782539 1778612250 -170110868 -1891285802
REM
CELL 1.54180   50.00000   50.00000   50.00000   90.00000   90.00000   90.00000
LATT -1
SFAC C  
C      1  0.4648950000000  0.5977930000000  0.4725190000000 1.0
C      1  0.4632510000000  0.5978210000000  0.5246230000000 1.0
C      1  0.5115480000000  0.5962460000000  0.5416920000000 1.0
C      1  0.5436810000000  0.5984630000000  0.5012410000000 1.0
C      1  0.5154050000000  0.5966490000000  0.4619880000000 1.0
C      1  0.4149610000000  0.4588550000000  0.4533560000000 1.0
C      1  0.4291230000000  0.4623610000000  0.5628330000000 1.0
C      1  0.5363890000000  0.4584340000000  0.5860770000000 1.0
C      1  0.5961090000000  0.4694610000000  0.5015770000000 1.0
C      1  0.5280170000000  0.4665610000000  0.4129800000000 1.0
C      1  0.4757750000000  0.4467710000000  0.4273530000000 1.0
C      1  0.4267480000000  0.4400890000000  0.5130280000000 1.0
C      1  0.4808470000000  0.4462470000000  0.5712540000000 1.0
C      1  0.5650980000000  0.4402740000000  0.5323180000000 1.0
C      1  0.5632310000000  0.4447390000000  0.4564910000000 1.0
C      1  0.4585090000000  0.4005710000000  0.4736200000000 1.0
C      1  0.4608990000000  0.4060060000000  0.5319080000000 1.0
C      1  0.5165850000000  0.4048720000000  0.5483930000000 1.0
C      1  0.5475860000000  0.4029650000000  0.5006270000000 1.0
C      1  0.5134880000000  0.4017070000000  0.4537060000000 1.0
C      1  0.5682150000000  0.4648570000000  0.4920300000000 1.0
C      1  0.5107810000000  0.4697040000000  0.4372220000000 1.0
C      1  0.4436130000000  0.4656330000000  0.4541560000000 1.0
C      1  0.4446070000000  0.4742990000000  0.5396170000000 1.0
C      1  0.5080870000000  0.4586170000000  0.5799590000000 1.0
C      1  0.4418740000000  0.4269750000000  0.5394620000000 1.0
C      1  0.5329600000000  0.4242490000000  0.5622270000000 1.0
C      1  0.5679490000000  0.4232900000000  0.5069160000000 1.0
C      1  0.5119030000000  0.4199130000000  0.4325820000000 1.0
C      1  0.4376800000000  0.4200010000000  0.4737070000000 1.0
C      1  0.4702980000000  0.4666950000000  0.5939720000000 1.0
C      1  0.5808500000000  0.4618930000000  0.5479700000000 1.0
C      1  0.5745500000000  0.4664040000000  0.4393860000000 1.0
C      1  0.4634300000000  0.4673960000000  0.4107760000000 1.0
C      1  0.4090450000000  0.4623640000000  0.5048830000000 1.0
C      1  0.4208440000000  0.5608660000000  0.4675050000000 1.0
C      1  0.4456590000000  0.5680580000000  0.5677790000000 1.0
C      1  0.5425190000000  0.5665690000000  0.5705770000000 1.0
C      1  0.5839860000000  0.5656920000000  0.4756840000000 1.0
C      1  0.5100790000000  0.5620850000000  0.4255990000000 1.0
C      1  0.4970980000000  0.4766640000000  0.5984860000000 1.0
C      1  0.5992000000000  0.4765220000000  0.5302950000000 1.0
C      1  0.5566820000000  0.4752360000000  0.4172630000000 1.0
C      1  0.4415310000000  0.4775000000000  0.4270200000000 1.0
C      1  0.4156780000000  0.4804490000000  0.5259930000000 1.0
C      1  0.4643290000000  0.5534130000000  0.4591110000000 1.0
C      1  0.4490600000000  0.5480560000000  0.5272790000000 1.0
C      1  0.5051430000000  0.5474330000000  0.5514400000000 1.0
C      1  0.5537840000000  0.5465490000000  0.5096260000000 1.0
C      1  0.5221500000000  0.5505020000000  0.4521870000000 1.0
C      1  0.5516060000000  0.4416390000000  0.5683630000000 1.0
C      1  0.5757740000000  0.4377780000000  0.4826580000000 1.0
C      1  0.5014430000000  0.4390480000000  0.4159770000000 1.0
C      1  0.4181110000000  0.4390210000000  0.4743920000000 1.0
C      1  0.4489330000000  0.4411900000000  0.5631630000000 1.0
C      1  0.5752050000000  0.5134330000000  0.5595460000000 1.0
C      1  0.5813810000000  0.5158680000000  0.4438650000000 1.0
C      1  0.4663560000000  0.5146470000000  0.4072070000000 1.0
C      1  0.4047990000000  0.5150950000000  0.4967760000000 1.0
C      1  0.4692520000000  0.5161980000000  0.5946600000000 1.0
C      1  0.4426340000000  0.5152600000000  0.4643000000000 1.0
C      1  0.4411550000000  0.5133630000000  0.5552700000000 1.0
C      1  0.5319620000000  0.5023320000000  0.5668450000000 1.0
C      1  0.5763120000000  0.5103620000000  0.4899580000000 1.0
C      1  0.5128740000000  0.5122140000000  0.4246360000000 1.0
C      1  0.5735150000000  0.5528100000000  0.5297780000000 1.0
C      1  0.5485000000000  0.5520460000000  0.4388070000000 1.0
C      1  0.4550890000000  0.5544140000000  0.4306570000000 1.0
C      1  0.4213190000000  0.5524240000000  0.5194810000000 1.0
C      1  0.5045560000000  0.5505100000000  0.5818080000000 1.0
C      1  0.6021480000000  0.4977910000000  0.4948100000000 1.0
C      1  0.5226490000000  0.4940150000000  0.4025720000000 1.0
C      1  0.4074280000000  0.4870070000000  0.4516970000000 1.0
C      1  0.4207830000000  0.4920240000000  0.5656550000000 1.0
C      1  0.5384390000000  0.4890490000000  0.5915300000000 1.0
C      1  0.5404380000000  0.4973460000000  0.4621950000000 1.0
C      1  0.4768090000000  0.4941360000000  0.4589070000000 1.0
C      1  0.4550550000000  0.4894010000000  0.4987970000000 1.0
C      1  0.4883570000000  0.4969770000000  0.5496540000000 1.0
C      1  0.5428190000000  0.4893790000000  0.5228350000000 1.0
C      1  0.5198850000000  0.4324380000000  0.4824110000000 1.0
C      1  0.4882150000000  0.4305620000000  0.4745260000000 1.0
C      1  0.4748700000000  0.4296430000000  0.5007450000000 1.0
C      1  0.4930610000000  0.4316200000000  0.5255380000000 1.0
C      1  0.5201180000000  0.4309570000000  0.5146380000000 1.0
C      1  0.5715910000000  0.5281310000000  0.4704960000000 1.0
C      1  0.4882900000000  0.5289890000000  0.4243140000000 1.0
C      1  0.4307090000000  0.5252110000000  0.4889190000000 1.0
C      1  0.4605190000000  0.5299920000000  0.5697910000000 1.0
C      1  0.5474130000000  0.5268490000000  0.5596810000000 1.0
C      1  0.4423830000000  0.5240090000000  0.4196130000000 1.0
C      1  0.4059680000000  0.5265120000000  0.5232510000000 1.0
C      1  0.4970600000000  0.5245200000000  0.5966400000000 1.0
C      1  0.5875340000000  0.5271310000000  0.5376560000000 1.0
C      1  0.5601080000000  0.5260620000000  0.4271100000000 1.0
C      1  0.5269270000000  0.4040870000000  0.5210930000000 1.0
C      1  0.5335500000000  0.4073210000000  0.4750660000000 1.0
C      1  0.4847290000000  0.4061250000000  0.4604150000000 1.0
C      1  0.4628540000000  0.4029720000000  0.5025020000000 1.0
C      1  0.4877690000000  0.4094880000000  0.5429440000000 1.0
C      1  0.5313670000000  0.5111530000000  0.5162810000000 1.0
C      1  0.5191810000000  0.5195300000000  0.4917730000000 1.0
C      1  0.4870520000000  0.5163610000000  0.4734950000000 1.0
C      1  0.4699520000000  0.5136050000000  0.5009430000000 1.0
C      1  0.4878370000000  0.5212570000000  0.5192900000000 1.0
C      1  0.5368150000000  0.4500790000000  0.4658980000000 1.0
C      1  0.4741450000000  0.4506590000000  0.4573020000000 1.0
C      1  0.4529340000000  0.4466230000000  0.5030820000000 1.0
C      1  0.4898030000000  0.4522740000000  0.5436950000000 1.0
C      1  0.5379010000000  0.4501100000000  0.5262160000000 1.0
C      1  0.4067670000000  0.4883100000000  0.4820110000000 1.0
C      1  0.4560390000000  0.4907270000000  0.5871250000000 1.0
C      1  0.5695950000000  0.4845930000000  0.5637670000000 1.0
C      1  0.5867490000000  0.4889900000000  0.4518200000000 1.0
C      1  0.4815580000000  0.4898270000000  0.4053910000000 1.0
C      1  0.4606650000000  0.4696330000000  0.5162310000000 1.0
C      1  0.4963020000000  0.4763430000000  0.5298800000000 1.0
C      1  0.5341320000000  0.4695540000000  0.5055680000000 1.0
C      1  0.5248690000000  0.4749080000000  0.4604990000000 1.0
C      1  0.4875210000000  0.4728700000000  0.4761510000000 1.0
C      1  0.4636530000000  0.5685090000000  0.4849310000000 1.0
C      1  0.4704490000000  0.5684460000000  0.5327540000000 1.0
C      1  0.5213900000000  0.5675920000000  0.5368440000000 1.0
C      1  0.5433940000000  0.5688790000000  0.4886810000000 1.0
C      1  0.5157990000000  0.5681340000000  0.4764310000000 1.0
C      1  0.5501050000000  0.5029190000000  0.4110150000000 1.0
C      1  0.4242950000000  0.5006990000000  0.4295920000000 1.0
C      1  0.4055670000000  0.5026620000000  0.5417150000000 1.0
C      1  0.5138790000000  0.5009520000000  0.6035940000000 1.0
C      1  0.6023140000000  0.5053420000000  0.5228340000000 1.0
C      1  0.5430680000000  0.4817770000000  0.5497830000000 1.0
C      1  0.5653860000000  0.4892690000000  0.4750060000000 1.0
C      1  0.4933600000000  0.4911090000000  0.4330820000000 1.0
C      1  0.4387580000000  0.4873940000000  0.4760430000000 1.0
C      1  0.4607040000000  0.4920970000000  0.5563690000000 1.0
C      1  0.5119350000000  0.5374510000000  0.4110930000000 1.0
C      1  0.4257340000000  0.5360250000000  0.4517320000000 1.0
C      1  0.4334220000000  0.5408170000000  0.5675280000000 1.0
C      1  0.5330650000000  0.5444030000000  0.5842310000000 1.0
C      1  0.5912990000000  0.5455230000000  0.4844160000000 1.0
C      1  0.4871470000000  0.5248710000000  0.5455510000000 1.0
C      1  0.5397480000000  0.5315670000000  0.5304610000000 1.0
C      1  0.5360990000000  0.5246270000000  0.4682720000000 1.0
C      1  0.4839080000000  0.5354000000000  0.4533260000000 1.0
C      1  0.4504460000000  0.5315960000000  0.5045020000000 1.0
C      1  0.4753860000000  0.5682210000000  0.5614540000000 1.0
C      1  0.5508390000000  0.5699780000000  0.5438390000000 1.0
C      1  0.5590080000000  0.5673220000000  0.4621650000000 1.0
C      1  0.4802940000000  0.5669000000000  0.4234370000000 1.0
C      1  0.4309850000000  0.5661160000000  0.4949000000000 1.0
C      1  0.4882000000000  0.6093550000000  0.5313390000000 1.0
C      1  0.5272050000000  0.6093620000000  0.5216600000000 1.0
C      1  0.5270560000000  0.6118690000000  0.4826680000000 1.0
C      1  0.4904510000000  0.6085460000000  0.4664500000000 1.0
C      1  0.4657840000000  0.6088020000000  0.4983630000000 1.0
C      1  0.5041830000000  0.4744950000000  0.5002320000000 1.0
C      1  0.4919330000000  0.5632820000000  0.4955870000000 1.0
C      1  0.5027780000000  0.5392310000000  0.5050970000000 1.0
END
