TITL C-2441169-1362-381 0.00127457096647805 125000 -1255.23589608128 0 0 11 (Ci) n - 1
REM
REM in /home/bkarasulu/work/CARBON/AIRSS/Generating-Clusters/ReaxFF-fromJPCA2015/Units_Real/with-SteepDescent/Higher-Symm
REM
REM
REM
REM
REM
REM ./C.cell (1df0a924f5614ab8850e4351716899ee)
REM
REM compiler GCC version 9.2.1 20190827 (Red Hat 9.2.1-1)
REM options -cpp -mtune=generic -march=x86-64 -g -O0 -fpre-include=/usr/include/finclude/math-vector-fortran.h
REM seed 1453868844 -952312170 -1735926742 1376409671 -213965493 447837397 -591967235 916700694 1759484405 -1184494230 1226355122 -1093801066 907896510 940215398 182769078 1544532513 182668247 1219656760 -1434756124 1277846403 -2030374898 33772329 1368849176 1648781180 111776113 -810774048 -675001496 543207535 151036999 1551144841 1784238514 -995922523 1314667477
REM
CELL 1.54180   50.00000   50.00000   50.00000   90.00000   90.00000   90.00000
LATT -1
SFAC C  
C      1  0.4635330000000  0.5506060000000  0.4847490000000 1.0
C      1  0.5338290000000  0.4482110000000  0.5116450000000 1.0
C      1  0.5108880000000  0.5221160000000  0.5005880000000 1.0
C      1  0.4858320000000  0.4762980000000  0.4951320000000 1.0
C      1  0.5202810000000  0.5618550000000  0.4698610000000 1.0
C      1  0.4774360000000  0.4369120000000  0.5266280000000 1.0
C      1  0.4775420000000  0.5669780000000  0.4961970000000 1.0
C      1  0.5198610000000  0.4318350000000  0.5001450000000 1.0
C      1  0.4926060000000  0.4461680000000  0.5084040000000 1.0
C      1  0.5047640000000  0.5525990000000  0.4878640000000 1.0
C      1  0.4987830000000  0.4990200000000  0.4982180000000 1.0
END
