TITL C-2441162-9305-472 -2.37301552295328e-09 125000 -616.374169833949 0 0 5 (D(inf)h) n - 1
REM
REM in /home/bkarasulu/work/CARBON/AIRSS/Generating-Clusters/ReaxFF-fromJPCA2015/Units_Real/with-SteepDescent/Higher-Symm
REM
REM
REM
REM
REM
REM ./C.cell (1df0a924f5614ab8850e4351716899ee)
REM
REM compiler GCC version 9.2.1 20190827 (Red Hat 9.2.1-1)
REM options -cpp -mtune=generic -march=x86-64 -g -O0 -fpre-include=/usr/include/finclude/math-vector-fortran.h
REM seed -1215061546 -1288633696 -1324806199 -561265518 -1272396512 1944440909 1626148128 1716235201 -11449658 -48794992 672644500 439731888 618806864 2074839613 -149211298 1332516950 -1189276982 -1457995610 1451702691 -1867956335 -1833021581 -2032465428 465709987 1717684882 -277690979 1452532603 -1647423712 -1408027366 -1618843423 -1157394887 -2014383992 -1519768764 -642613623
REM
CELL 1.54180   50.00000   50.00000   50.00000   90.00000   90.00000   90.00000
LATT -1
SFAC C  
C      1  0.4994940000000  0.5257130000000  0.5027550000000 1.0
C      1  0.4994940000000  0.5501350000000  0.5027550000000 1.0
C      1  0.4994940000000  0.4742870000000  0.5027550000000 1.0
C      1  0.4994940000000  0.4498650000000  0.5027550000000 1.0
C      1  0.4994940000000  0.5000000000000  0.5027550000000 1.0
END
