TITL C-2441154-10-451 0.00296733266643232 125000 -7641.00478087655 0 0 53 (C1) n - 1
REM
REM in /home/bkarasulu/work/CARBON/AIRSS/Generating-Clusters/ReaxFF-fromJPCA2015/Units_Real/with-SteepDescent/Higher-Symm
REM
REM
REM
REM
REM
REM ./C.cell (1df0a924f5614ab8850e4351716899ee)
REM
REM compiler GCC version 9.2.1 20190827 (Red Hat 9.2.1-1)
REM options -cpp -mtune=generic -march=x86-64 -g -O0 -fpre-include=/usr/include/finclude/math-vector-fortran.h
REM seed 723831539 -62898880 -1588458675 -1466376506 372700827 -985224175 1269166708 1623339080 -1825559616 621621460 -1258100781 -1602055420 -895180178 -340290754 -860852791 -7290262 936334967 266015234 -971727102 -2095198591 135426765 181797909 1363679509 1112494089 390131054 -2054954154 -601637054 1017402471 -1097591759 -33351652 -38897053 -1212748564 -1611322891
REM
CELL 1.54180   50.00000   50.00000   50.00000   90.00000   90.00000   90.00000
LATT -1
SFAC C  
C      1  0.5358300000000  0.5147670000000  0.5493980000000 1.0
C      1  0.5363570000000  0.4843800000000  0.4498810000000 1.0
C      1  0.5352960000000  0.5124870000000  0.4492230000000 1.0
C      1  0.5356050000000  0.4865200000000  0.5495720000000 1.0
C      1  0.5337570000000  0.4554490000000  0.5234510000000 1.0
C      1  0.5455660000000  0.5539510000000  0.4776380000000 1.0
C      1  0.5405890000000  0.4535300000000  0.4757010000000 1.0
C      1  0.5350810000000  0.5453670000000  0.5226850000000 1.0
C      1  0.5379890000000  0.5223560000000  0.4772400000000 1.0
C      1  0.5372130000000  0.4810000000000  0.5213400000000 1.0
C      1  0.5382510000000  0.5200600000000  0.5212050000000 1.0
C      1  0.5366190000000  0.4789760000000  0.4777720000000 1.0
C      1  0.4868270000000  0.5273270000000  0.4349710000000 1.0
C      1  0.4871550000000  0.4731860000000  0.5644520000000 1.0
C      1  0.4873050000000  0.5272790000000  0.5645070000000 1.0
C      1  0.4867450000000  0.4727610000000  0.4351170000000 1.0
C      1  0.4545890000000  0.5308520000000  0.5279890000000 1.0
C      1  0.4524260000000  0.4705680000000  0.4715610000000 1.0
C      1  0.4525070000000  0.5301200000000  0.4715020000000 1.0
C      1  0.4545490000000  0.4699140000000  0.5279910000000 1.0
C      1  0.5004100000000  0.5483200000000  0.4442560000000 1.0
C      1  0.4997000000000  0.4499260000000  0.5561150000000 1.0
C      1  0.4991300000000  0.5510920000000  0.5567190000000 1.0
C      1  0.4992600000000  0.4512450000000  0.4447510000000 1.0
C      1  0.5154730000000  0.4725070000000  0.5649490000000 1.0
C      1  0.5156870000000  0.5268610000000  0.4336320000000 1.0
C      1  0.5157190000000  0.4713920000000  0.4339750000000 1.0
C      1  0.5155820000000  0.5286490000000  0.5647250000000 1.0
C      1  0.4981380000000  0.4476970000000  0.4733750000000 1.0
C      1  0.4934910000000  0.5625780000000  0.5303440000000 1.0
C      1  0.4947740000000  0.4390330000000  0.5292230000000 1.0
C      1  0.4980090000000  0.5528340000000  0.4729810000000 1.0
C      1  0.5070760000000  0.4866310000000  0.5105860000000 1.0
C      1  0.5086560000000  0.5265500000000  0.4842470000000 1.0
C      1  0.5076790000000  0.4757390000000  0.4840980000000 1.0
C      1  0.5072850000000  0.5151760000000  0.5103840000000 1.0
C      1  0.4684790000000  0.4861870000000  0.5476790000000 1.0
C      1  0.4674000000000  0.5146590000000  0.4522130000000 1.0
C      1  0.4674070000000  0.4858810000000  0.4522790000000 1.0
C      1  0.4685880000000  0.5145350000000  0.5475820000000 1.0
C      1  0.5194550000000  0.5675110000000  0.5167500000000 1.0
C      1  0.5231750000000  0.4338350000000  0.4849290000000 1.0
C      1  0.5230350000000  0.5684830000000  0.4869750000000 1.0
C      1  0.5202220000000  0.4330420000000  0.5141430000000 1.0
C      1  0.4315560000000  0.5155870000000  0.4853750000000 1.0
C      1  0.4332710000000  0.4854850000000  0.5148110000000 1.0
C      1  0.4333460000000  0.5152470000000  0.5148370000000 1.0
C      1  0.4314890000000  0.4851940000000  0.4853510000000 1.0
C      1  0.4671360000000  0.5546190000000  0.4853290000000 1.0
C      1  0.4696150000000  0.4475280000000  0.5169200000000 1.0
C      1  0.4692950000000  0.5535180000000  0.5169870000000 1.0
C      1  0.4668030000000  0.4458160000000  0.4853640000000 1.0
C      1  0.5491340000000  0.5005500000000  0.5014680000000 1.0
END
