TITL C-2441162-9305-1079 0.000926010170689582 125000 -10295.1764032579 0 0 70 (C1) n - 1
REM
REM in /home/bkarasulu/work/CARBON/AIRSS/Generating-Clusters/ReaxFF-fromJPCA2015/Units_Real/with-SteepDescent/Higher-Symm
REM
REM
REM
REM
REM
REM ./C.cell (1df0a924f5614ab8850e4351716899ee)
REM
REM compiler GCC version 9.2.1 20190827 (Red Hat 9.2.1-1)
REM options -cpp -mtune=generic -march=x86-64 -g -O0 -fpre-include=/usr/include/finclude/math-vector-fortran.h
REM seed -1351844554 1510383226 -1456063646 531541755 1863479036 -1143858572 -61090743 -151095708 -489601271 -1653069938 684149810 -1802991500 1171838133 1427271458 1593259804 -1224909252 -905145944 70142639 -1288841122 1675865165 734329697 1542619419 -158395100 573606629 -865840769 272059425 -2108346128 1182462123 1977929524 -1600120140 -609278589 -863673446 244000775
REM
CELL 1.54180   50.00000   50.00000   50.00000   90.00000   90.00000   90.00000
LATT -1
SFAC C  
C      1  0.5729990000000  0.4892440000000  0.5208320000000 1.0
C      1  0.4274320000000  0.5107940000000  0.4793050000000 1.0
C      1  0.5060370000000  0.4837110000000  0.5854140000000 1.0
C      1  0.4919330000000  0.5157090000000  0.4144520000000 1.0
C      1  0.4542550000000  0.4563000000000  0.5028910000000 1.0
C      1  0.5472450000000  0.5459130000000  0.4958210000000 1.0
C      1  0.4862690000000  0.5006020000000  0.5875610000000 1.0
C      1  0.5121620000000  0.4990910000000  0.4136690000000 1.0
C      1  0.4586190000000  0.5012340000000  0.5555320000000 1.0
C      1  0.5426110000000  0.4985760000000  0.4440230000000 1.0
C      1  0.5014160000000  0.4468090000000  0.4824980000000 1.0
C      1  0.4986760000000  0.5531000000000  0.5193340000000 1.0
C      1  0.5153450000000  0.5431250000000  0.4563880000000 1.0
C      1  0.4850950000000  0.4598850000000  0.5426790000000 1.0
C      1  0.4867010000000  0.5453100000000  0.4518880000000 1.0
C      1  0.5130620000000  0.4556070000000  0.5488200000000 1.0
C      1  0.4788870000000  0.5802260000000  0.4950380000000 1.0
C      1  0.5207630000000  0.4192240000000  0.5069180000000 1.0
C      1  0.5601070000000  0.4953130000000  0.5449720000000 1.0
C      1  0.4392430000000  0.5049870000000  0.4544440000000 1.0
C      1  0.4449750000000  0.5505160000000  0.4519420000000 1.0
C      1  0.5545830000000  0.4501170000000  0.5489060000000 1.0
C      1  0.4625860000000  0.4828610000000  0.4931160000000 1.0
C      1  0.5402350000000  0.5176730000000  0.5035770000000 1.0
C      1  0.4402140000000  0.5126720000000  0.5386030000000 1.0
C      1  0.5602390000000  0.4865390000000  0.4612520000000 1.0
C      1  0.5364470000000  0.5064030000000  0.5316040000000 1.0
C      1  0.4641920000000  0.4934310000000  0.4648900000000 1.0
C      1  0.4749850000000  0.5364440000000  0.4776170000000 1.0
C      1  0.5249710000000  0.4635730000000  0.5222590000000 1.0
C      1  0.4225650000000  0.5184900000000  0.5035420000000 1.0
C      1  0.5775640000000  0.4807510000000  0.4967180000000 1.0
C      1  0.4453780000000  0.5275650000000  0.4353190000000 1.0
C      1  0.5536220000000  0.4734380000000  0.5649290000000 1.0
C      1  0.5166090000000  0.5135390000000  0.4871920000000 1.0
C      1  0.4865190000000  0.4921570000000  0.5081870000000 1.0
C      1  0.4741170000000  0.4371840000000  0.4667430000000 1.0
C      1  0.5258250000000  0.5607570000000  0.5353620000000 1.0
C      1  0.4671020000000  0.4521740000000  0.4448970000000 1.0
C      1  0.5320490000000  0.5433840000000  0.5560810000000 1.0
C      1  0.5177980000000  0.4581170000000  0.4365660000000 1.0
C      1  0.4815820000000  0.5413890000000  0.5646700000000 1.0
C      1  0.4297060000000  0.5348330000000  0.5261810000000 1.0
C      1  0.5705610000000  0.4645700000000  0.4740850000000 1.0
C      1  0.4891620000000  0.4678980000000  0.4356820000000 1.0
C      1  0.5096280000000  0.5292920000000  0.5667290000000 1.0
C      1  0.5499330000000  0.5526200000000  0.5232540000000 1.0
C      1  0.4495060000000  0.4471260000000  0.4761970000000 1.0
C      1  0.5500470000000  0.4463030000000  0.5210710000000 1.0
C      1  0.4500910000000  0.5530200000000  0.4797760000000 1.0
C      1  0.4754340000000  0.5546010000000  0.5394910000000 1.0
C      1  0.5250530000000  0.4449090000000  0.4612430000000 1.0
C      1  0.5257010000000  0.4666470000000  0.5739740000000 1.0
C      1  0.4735290000000  0.5336980000000  0.4269220000000 1.0
C      1  0.4743990000000  0.4434250000000  0.5214630000000 1.0
C      1  0.5257300000000  0.5581130000000  0.4786370000000 1.0
C      1  0.4522930000000  0.5741140000000  0.5022710000000 1.0
C      1  0.5472020000000  0.4256150000000  0.4989570000000 1.0
C      1  0.5162870000000  0.5120720000000  0.4574360000000 1.0
C      1  0.4854860000000  0.4905880000000  0.5405370000000 1.0
C      1  0.5313440000000  0.4805000000000  0.4232400000000 1.0
C      1  0.4675320000000  0.5193840000000  0.5775560000000 1.0
C      1  0.5501700000000  0.4411030000000  0.4741410000000 1.0
C      1  0.4498550000000  0.5582840000000  0.5266880000000 1.0
C      1  0.5066170000000  0.4707140000000  0.5011800000000 1.0
C      1  0.4924940000000  0.5254280000000  0.4990890000000 1.0
C      1  0.4940360000000  0.4267730000000  0.5065480000000 1.0
C      1  0.5055240000000  0.5721230000000  0.4961820000000 1.0
C      1  0.5108710000000  0.5078220000000  0.5462250000000 1.0
C      1  0.4887930000000  0.4944880000000  0.4487950000000 1.0
END
