TITL C-2441160-1326-1120 0.0822609193780235 125000 -15130.3735003097 0 0 119 (C1) n - 1
REM
REM in /home/bkarasulu/work/CARBON/AIRSS/Generating-Clusters/ReaxFF-fromJPCA2015/Units_Real/with-SteepDescent/Higher-Symm
REM
REM
REM
REM
REM
REM ./C.cell (1df0a924f5614ab8850e4351716899ee)
REM
REM compiler GCC version 9.2.1 20190827 (Red Hat 9.2.1-1)
REM options -cpp -mtune=generic -march=x86-64 -g -O0 -fpre-include=/usr/include/finclude/math-vector-fortran.h
REM seed -2113520739 2038346276 -766533756 -2047612274 982872274 441365788 51438524 860132695 1057036064 1875087381 30549645 1750126017 1306665110 -1260532219 -2086968641 977845402 -1348732558 768910411 1303008718 432914003 875827155 -1864090857 -1467347583 -701854552 -2079140633 -821385386 -1279964969 709922667 -129821536 1978142019 521792977 -871450347 365762780
REM
CELL 1.54180   50.00000   50.00000   50.00000   90.00000   90.00000   90.00000
LATT -1
SFAC C  
C      1  0.4752610000000  0.4649990000000  0.5838660000000 1.0
C      1  0.4877550000000  0.5696060000000  0.5627910000000 1.0
C      1  0.4756910000000  0.5762490000000  0.4521690000000 1.0
C      1  0.4622820000000  0.4755670000000  0.4173830000000 1.0
C      1  0.4790020000000  0.4080410000000  0.4945620000000 1.0
C      1  0.5236280000000  0.4646240000000  0.5847760000000 1.0
C      1  0.5177610000000  0.5688500000000  0.5619850000000 1.0
C      1  0.5246720000000  0.5764610000000  0.4531110000000 1.0
C      1  0.5218680000000  0.4775680000000  0.4144990000000 1.0
C      1  0.5365210000000  0.4116140000000  0.4983020000000 1.0
C      1  0.5220290000000  0.5449360000000  0.4278750000000 1.0
C      1  0.5198820000000  0.4439200000000  0.4358000000000 1.0
C      1  0.5194390000000  0.4196880000000  0.5340620000000 1.0
C      1  0.5201920000000  0.5046430000000  0.5850200000000 1.0
C      1  0.5206210000000  0.5824140000000  0.5227820000000 1.0
C      1  0.4792950000000  0.5449050000000  0.4266380000000 1.0
C      1  0.4795490000000  0.4438490000000  0.4354790000000 1.0
C      1  0.4778280000000  0.4215710000000  0.5324200000000 1.0
C      1  0.4775910000000  0.5049000000000  0.5858860000000 1.0
C      1  0.4758010000000  0.5799320000000  0.5194050000000 1.0
C      1  0.4901620000000  0.4839900000000  0.5314350000000 1.0
C      1  0.4799170000000  0.5246750000000  0.5129800000000 1.0
C      1  0.4881800000000  0.5222280000000  0.4688610000000 1.0
C      1  0.4889750000000  0.4947620000000  0.4684680000000 1.0
C      1  0.4869100000000  0.4658380000000  0.5116290000000 1.0
C      1  0.5173350000000  0.4982960000000  0.5261900000000 1.0
C      1  0.5090610000000  0.5284060000000  0.5107420000000 1.0
C      1  0.5110750000000  0.5304410000000  0.4822760000000 1.0
C      1  0.5131860000000  0.4806550000000  0.4733040000000 1.0
C      1  0.5094920000000  0.4630250000000  0.4941710000000 1.0
C      1  0.4844940000000  0.4377260000000  0.5546670000000 1.0
C      1  0.4848580000000  0.5304880000000  0.5753270000000 1.0
C      1  0.4842910000000  0.5812820000000  0.4923860000000 1.0
C      1  0.4854750000000  0.5186100000000  0.4182510000000 1.0
C      1  0.4845180000000  0.4294360000000  0.4603330000000 1.0
C      1  0.5141500000000  0.4387110000000  0.5544950000000 1.0
C      1  0.5143460000000  0.5306240000000  0.5759660000000 1.0
C      1  0.5148040000000  0.5822080000000  0.4934380000000 1.0
C      1  0.5145620000000  0.5180260000000  0.4196970000000 1.0
C      1  0.5128840000000  0.4272440000000  0.4574430000000 1.0
C      1  0.5370600000000  0.4185900000000  0.4708390000000 1.0
C      1  0.5375290000000  0.4474320000000  0.5680100000000 1.0
C      1  0.5349070000000  0.5473220000000  0.5680400000000 1.0
C      1  0.5381910000000  0.5805810000000  0.4771160000000 1.0
C      1  0.5370400000000  0.5007010000000  0.4165700000000 1.0
C      1  0.4626280000000  0.4176060000000  0.4740520000000 1.0
C      1  0.4613290000000  0.4487510000000  0.5665540000000 1.0
C      1  0.4678040000000  0.5505820000000  0.5687120000000 1.0
C      1  0.4612030000000  0.5804690000000  0.4754270000000 1.0
C      1  0.4610590000000  0.5034630000000  0.4170920000000 1.0
C      1  0.5505580000000  0.5399080000000  0.4912260000000 1.0
C      1  0.5504320000000  0.5023760000000  0.4567270000000 1.0
C      1  0.5547090000000  0.4563030000000  0.4854730000000 1.0
C      1  0.5420430000000  0.4632620000000  0.5308060000000 1.0
C      1  0.5528910000000  0.5250750000000  0.5358560000000 1.0
C      1  0.4479350000000  0.5419780000000  0.4866320000000 1.0
C      1  0.4458190000000  0.4975750000000  0.4541890000000 1.0
C      1  0.4578900000000  0.4574700000000  0.4761710000000 1.0
C      1  0.4453660000000  0.4720320000000  0.5385770000000 1.0
C      1  0.4491510000000  0.5234780000000  0.5367600000000 1.0
C      1  0.4629010000000  0.5411820000000  0.5275590000000 1.0
C      1  0.4652650000000  0.5389180000000  0.4663340000000 1.0
C      1  0.4659640000000  0.4814360000000  0.4634310000000 1.0
C      1  0.4633260000000  0.4518620000000  0.5030120000000 1.0
C      1  0.4644690000000  0.4897340000000  0.5445520000000 1.0
C      1  0.5366080000000  0.5404450000000  0.5213690000000 1.0
C      1  0.5361980000000  0.5313320000000  0.4695820000000 1.0
C      1  0.5347420000000  0.4794080000000  0.4555830000000 1.0
C      1  0.5344170000000  0.4564630000000  0.5042620000000 1.0
C      1  0.5363750000000  0.4865510000000  0.5454360000000 1.0
C      1  0.4165440000000  0.4637050000000  0.4675340000000 1.0
C      1  0.4137880000000  0.4564600000000  0.5222240000000 1.0
C      1  0.4169510000000  0.5094030000000  0.5530540000000 1.0
C      1  0.4160250000000  0.5477100000000  0.5104280000000 1.0
C      1  0.4129700000000  0.5199620000000  0.4593480000000 1.0
C      1  0.5883640000000  0.4655560000000  0.4655160000000 1.0
C      1  0.5815900000000  0.4574050000000  0.5273940000000 1.0
C      1  0.5871310000000  0.5073620000000  0.5475270000000 1.0
C      1  0.5850830000000  0.5498140000000  0.5076880000000 1.0
C      1  0.5820710000000  0.5255640000000  0.4565370000000 1.0
C      1  0.5445090000000  0.4973830000000  0.5712160000000 1.0
C      1  0.5459610000000  0.5689410000000  0.5244220000000 1.0
C      1  0.5467520000000  0.5431970000000  0.4430390000000 1.0
C      1  0.5446530000000  0.4563600000000  0.4413450000000 1.0
C      1  0.5464660000000  0.4172000000000  0.5241490000000 1.0
C      1  0.4524860000000  0.4980160000000  0.5724660000000 1.0
C      1  0.4500850000000  0.5674490000000  0.5242540000000 1.0
C      1  0.4541920000000  0.5435200000000  0.4401630000000 1.0
C      1  0.4523710000000  0.4525120000000  0.4311200000000 1.0
C      1  0.4536710000000  0.4297450000000  0.5194440000000 1.0
C      1  0.5770240000000  0.4976800000000  0.4677290000000 1.0
C      1  0.5800620000000  0.4671100000000  0.4956360000000 1.0
C      1  0.5851180000000  0.4820850000000  0.5382440000000 1.0
C      1  0.5797480000000  0.5287390000000  0.5285250000000 1.0
C      1  0.5779760000000  0.5351150000000  0.4838340000000 1.0
C      1  0.4180310000000  0.4916350000000  0.4580920000000 1.0
C      1  0.4184060000000  0.4690700000000  0.4963440000000 1.0
C      1  0.4219610000000  0.4838060000000  0.5331550000000 1.0
C      1  0.4207660000000  0.5257400000000  0.5289100000000 1.0
C      1  0.4200020000000  0.5320310000000  0.4844010000000 1.0
C      1  0.5581250000000  0.5218460000000  0.5626370000000 1.0
C      1  0.5622680000000  0.5691040000000  0.5003830000000 1.0
C      1  0.5615800000000  0.5188950000000  0.4346790000000 1.0
C      1  0.5578270000000  0.4395110000000  0.4617680000000 1.0
C      1  0.5595240000000  0.4410570000000  0.5401760000000 1.0
C      1  0.4400200000000  0.5237730000000  0.5653330000000 1.0
C      1  0.4374590000000  0.5670810000000  0.4976340000000 1.0
C      1  0.4394950000000  0.5190300000000  0.4358430000000 1.0
C      1  0.4380220000000  0.4462070000000  0.4575960000000 1.0
C      1  0.4372890000000  0.4457820000000  0.5386240000000 1.0
C      1  0.4988740000000  0.4178930000000  0.5137590000000 1.0
C      1  0.5002460000000  0.4629710000000  0.4276580000000 1.0
C      1  0.4967260000000  0.5691030000000  0.5323520000000 1.0
C      1  0.4988210000000  0.4849820000000  0.5794450000000 1.0
C      1  0.5006450000000  0.5583420000000  0.4444110000000 1.0
C      1  0.5395880000000  0.4974550000000  0.5041300000000 1.0
C      1  0.4605600000000  0.5043190000000  0.5025330000000 1.0
C      1  0.4339860000000  0.4931180000000  0.5044390000000 1.0
C      1  0.5654250000000  0.4946860000000  0.4952850000000 1.0
END
