TITL C-2441166-8118-563 0.0283655230570593 125000 -13756.4120188357 0 0 98 (C1) n - 1
REM
REM in /home/bkarasulu/work/CARBON/AIRSS/Generating-Clusters/ReaxFF-fromJPCA2015/Units_Real/with-SteepDescent/Higher-Symm
REM
REM
REM
REM
REM
REM ./C.cell (1df0a924f5614ab8850e4351716899ee)
REM
REM compiler GCC version 9.2.1 20190827 (Red Hat 9.2.1-1)
REM options -cpp -mtune=generic -march=x86-64 -g -O0 -fpre-include=/usr/include/finclude/math-vector-fortran.h
REM seed 1803291967 124091843 -560568826 -1312328631 1828409233 -394146710 -1730994985 -1349954172 -1750173894 901980496 -999458340 952069300 -340798789 -641815472 190221033 -1983846055 -430374830 -1425260614 -946562584 -627969411 -883893663 665803298 1371092315 -31348425 -137343829 904586656 -1725593433 394638154 38477098 1851673551 219228319 1049463046 495238413
REM
CELL 1.54180   50.00000   50.00000   50.00000   90.00000   90.00000   90.00000
LATT -1
SFAC C  
C      1  0.4730620000000  0.4849160000000  0.4999860000000 1.0
C      1  0.5289840000000  0.4987150000000  0.4854090000000 1.0
C      1  0.4724410000000  0.5138420000000  0.4997310000000 1.0
C      1  0.5295290000000  0.4984550000000  0.5146230000000 1.0
C      1  0.5582570000000  0.4928180000000  0.4695990000000 1.0
C      1  0.4426480000000  0.5313250000000  0.4928750000000 1.0
C      1  0.5555230000000  0.5037950000000  0.5305560000000 1.0
C      1  0.4415380000000  0.4676280000000  0.5049260000000 1.0
C      1  0.5290100000000  0.4727500000000  0.4421760000000 1.0
C      1  0.4719110000000  0.5571010000000  0.4739830000000 1.0
C      1  0.5287910000000  0.5265830000000  0.5567330000000 1.0
C      1  0.4701240000000  0.4418950000000  0.5259430000000 1.0
C      1  0.4670470000000  0.5555320000000  0.5216660000000 1.0
C      1  0.5333000000000  0.4811840000000  0.5618790000000 1.0
C      1  0.4654650000000  0.4410610000000  0.4763750000000 1.0
C      1  0.5325990000000  0.5206620000000  0.4447120000000 1.0
C      1  0.5114450000000  0.4273570000000  0.4571660000000 1.0
C      1  0.4893080000000  0.5423600000000  0.4264710000000 1.0
C      1  0.5102170000000  0.5725270000000  0.5442080000000 1.0
C      1  0.4853990000000  0.4511040000000  0.5637440000000 1.0
C      1  0.5369410000000  0.4345040000000  0.5039430000000 1.0
C      1  0.4599830000000  0.4943850000000  0.4353710000000 1.0
C      1  0.5391390000000  0.5641210000000  0.4944690000000 1.0
C      1  0.4615840000000  0.5088950000000  0.5633590000000 1.0
C      1  0.5678680000000  0.4617020000000  0.5211650000000 1.0
C      1  0.4279650000000  0.4675650000000  0.4601560000000 1.0
C      1  0.5713330000000  0.5386810000000  0.4651060000000 1.0
C      1  0.4283070000000  0.5307400000000  0.5364240000000 1.0
C      1  0.5235090000000  0.4759040000000  0.5873260000000 1.0
C      1  0.4857170000000  0.4217900000000  0.4715540000000 1.0
C      1  0.5166160000000  0.5283950000000  0.4228880000000 1.0
C      1  0.4846800000000  0.5778180000000  0.5289470000000 1.0
C      1  0.4497260000000  0.5487810000000  0.5429750000000 1.0
C      1  0.5513490000000  0.4813830000000  0.5802730000000 1.0
C      1  0.4506440000000  0.4508630000000  0.4538380000000 1.0
C      1  0.5513840000000  0.5355920000000  0.4450340000000 1.0
C      1  0.4769210000000  0.5000800000000  0.4590780000000 1.0
C      1  0.5227000000000  0.5398930000000  0.4997280000000 1.0
C      1  0.4791420000000  0.4987100000000  0.5417630000000 1.0
C      1  0.5211550000000  0.4579480000000  0.4957110000000 1.0
C      1  0.5078040000000  0.5249240000000  0.5773730000000 1.0
C      1  0.4930910000000  0.4221390000000  0.5238160000000 1.0
C      1  0.5072820000000  0.4747960000000  0.4213230000000 1.0
C      1  0.4910580000000  0.5775520000000  0.4762000000000 1.0
C      1  0.5677250000000  0.4655940000000  0.4702490000000 1.0
C      1  0.4316880000000  0.5292850000000  0.4638730000000 1.0
C      1  0.5657900000000  0.5317370000000  0.5290830000000 1.0
C      1  0.4362410000000  0.4742080000000  0.5315020000000 1.0
C      1  0.5165050000000  0.4706930000000  0.5214150000000 1.0
C      1  0.4841530000000  0.4769020000000  0.4747400000000 1.0
C      1  0.5164310000000  0.5237140000000  0.4762280000000 1.0
C      1  0.4848790000000  0.5222340000000  0.5245190000000 1.0
C      1  0.5241890000000  0.4167670000000  0.4827630000000 1.0
C      1  0.4769060000000  0.5165910000000  0.4185750000000 1.0
C      1  0.5234030000000  0.5805910000000  0.5174680000000 1.0
C      1  0.4837800000000  0.4772070000000  0.5763080000000 1.0
C      1  0.5563850000000  0.5523470000000  0.5375550000000 1.0
C      1  0.4351820000000  0.4606310000000  0.5558260000000 1.0
C      1  0.5603510000000  0.4418060000000  0.4571550000000 1.0
C      1  0.4437900000000  0.5414040000000  0.4435400000000 1.0
C      1  0.4848930000000  0.5241750000000  0.4745190000000 1.0
C      1  0.5153880000000  0.5246140000000  0.5240520000000 1.0
C      1  0.4842270000000  0.4745100000000  0.5247920000000 1.0
C      1  0.5144750000000  0.4754230000000  0.4741160000000 1.0
C      1  0.5771040000000  0.4433830000000  0.4805880000000 1.0
C      1  0.4137090000000  0.5067440000000  0.4626240000000 1.0
C      1  0.5820570000000  0.5386950000000  0.5096080000000 1.0
C      1  0.4223330000000  0.4860420000000  0.5496010000000 1.0
C      1  0.4213950000000  0.5224180000000  0.5093990000000 1.0
C      1  0.5793440000000  0.4870690000000  0.5214070000000 1.0
C      1  0.4201830000000  0.4744700000000  0.4873680000000 1.0
C      1  0.5792730000000  0.5125860000000  0.4766710000000 1.0
C      1  0.4596320000000  0.4452550000000  0.5534540000000 1.0
C      1  0.5330840000000  0.4443300000000  0.4468360000000 1.0
C      1  0.4668200000000  0.5560820000000  0.4418710000000 1.0
C      1  0.5344760000000  0.5563950000000  0.5537920000000 1.0
C      1  0.4947750000000  0.4528060000000  0.4341930000000 1.0
C      1  0.5045920000000  0.5676440000000  0.4529420000000 1.0
C      1  0.4949460000000  0.5475020000000  0.5654730000000 1.0
C      1  0.5067200000000  0.4362200000000  0.5448350000000 1.0
C      1  0.4331480000000  0.5102950000000  0.5559840000000 1.0
C      1  0.5668630000000  0.4387020000000  0.5065020000000 1.0
C      1  0.4306750000000  0.4912640000000  0.4449390000000 1.0
C      1  0.5671920000000  0.5536890000000  0.4893940000000 1.0
C      1  0.5015960000000  0.5035450000000  0.4136550000000 1.0
C      1  0.4987720000000  0.5853040000000  0.5044830000000 1.0
C      1  0.5016480000000  0.4963430000000  0.5870940000000 1.0
C      1  0.4992440000000  0.4136080000000  0.4964010000000 1.0
C      1  0.4683230000000  0.4620780000000  0.4341260000000 1.0
C      1  0.5300120000000  0.5721330000000  0.4628610000000 1.0
C      1  0.4677460000000  0.5385000000000  0.5635010000000 1.0
C      1  0.5312550000000  0.4464640000000  0.5335040000000 1.0
C      1  0.4540160000000  0.5568000000000  0.4959520000000 1.0
C      1  0.5500360000000  0.5039320000000  0.5591080000000 1.0
C      1  0.4539200000000  0.4422930000000  0.5022550000000 1.0
C      1  0.5466840000000  0.4954940000000  0.4432660000000 1.0
C      1  0.5881740000000  0.5099300000000  0.5027910000000 1.0
C      1  0.4113780000000  0.5014780000000  0.4916110000000 1.0
END
