TITL C-2441169-1362-1126 0.19509293066157 125000 -24464.982310562 0 0 195 (C1) n - 1
REM
REM in /home/bkarasulu/work/CARBON/AIRSS/Generating-Clusters/ReaxFF-fromJPCA2015/Units_Real/with-SteepDescent/Higher-Symm
REM
REM
REM
REM
REM
REM ./C.cell (1df0a924f5614ab8850e4351716899ee)
REM
REM compiler GCC version 9.2.1 20190827 (Red Hat 9.2.1-1)
REM options -cpp -mtune=generic -march=x86-64 -g -O0 -fpre-include=/usr/include/finclude/math-vector-fortran.h
REM seed -835997803 1937252929 480117082 480597655 -537759635 1224263203 1542266583 1317045760 -1226051586 183125565 286916978 568604179 100694499 686067340 1236448765 630296608 -363868538 -728949087 -1585036833 -639017942 -724770264 -1275148442 -1687305744 -1891455564 1119013453 -946874750 1273221324 -761242090 1633568552 2038789866 -37905097 774878971 -1805977169
REM
CELL 1.54180   50.00000   50.00000   50.00000   90.00000   90.00000   90.00000
LATT -1
SFAC C  
C      1  0.4891530000000  0.5753640000000  0.5172720000000 1.0
C      1  0.5250330000000  0.5753860000000  0.5079500000000 1.0
C      1  0.4908290000000  0.5733810000000  0.4708990000000 1.0
C      1  0.4477690000000  0.5581070000000  0.4263560000000 1.0
C      1  0.4655210000000  0.5653720000000  0.5924540000000 1.0
C      1  0.5956660000000  0.5599100000000  0.4863080000000 1.0
C      1  0.4329590000000  0.4288250000000  0.5480160000000 1.0
C      1  0.5741320000000  0.4286880000000  0.5346880000000 1.0
C      1  0.4935000000000  0.4269290000000  0.4183330000000 1.0
C      1  0.5519540000000  0.4033750000000  0.4620320000000 1.0
C      1  0.4415650000000  0.4076240000000  0.4737200000000 1.0
C      1  0.5072200000000  0.4042220000000  0.5636100000000 1.0
C      1  0.5551000000000  0.4683250000000  0.5220610000000 1.0
C      1  0.4919880000000  0.4689660000000  0.4414940000000 1.0
C      1  0.4523500000000  0.4693710000000  0.5357010000000 1.0
C      1  0.5566950000000  0.5069170000000  0.5971910000000 1.0
C      1  0.5626190000000  0.5085350000000  0.3996280000000 1.0
C      1  0.3845680000000  0.5060840000000  0.5011540000000 1.0
C      1  0.4591270000000  0.4484400000000  0.5842250000000 1.0
C      1  0.5994240000000  0.4483520000000  0.4987420000000 1.0
C      1  0.4542560000000  0.4588260000000  0.4152830000000 1.0
C      1  0.3792290000000  0.5329850000000  0.4999510000000 1.0
C      1  0.5627430000000  0.5342280000000  0.5973360000000 1.0
C      1  0.5455210000000  0.5296120000000  0.3938520000000 1.0
C      1  0.5884880000000  0.5580210000000  0.5352570000000 1.0
C      1  0.4751160000000  0.5567190000000  0.4137240000000 1.0
C      1  0.4234280000000  0.5549920000000  0.5571170000000 1.0
C      1  0.5297070000000  0.4717650000000  0.4166540000000 1.0
C      1  0.4126930000000  0.4711810000000  0.5222860000000 1.0
C      1  0.5597270000000  0.4696030000000  0.5648380000000 1.0
C      1  0.5227500000000  0.4756490000000  0.4677980000000 1.0
C      1  0.4584790000000  0.4754350000000  0.4939280000000 1.0
C      1  0.5160400000000  0.4753120000000  0.5326570000000 1.0
C      1  0.5729040000000  0.4944090000000  0.4378790000000 1.0
C      1  0.4089550000000  0.4893820000000  0.4675330000000 1.0
C      1  0.5172130000000  0.4877910000000  0.5970040000000 1.0
C      1  0.4558380000000  0.4105760000000  0.5472660000000 1.0
C      1  0.5633020000000  0.4111260000000  0.5144460000000 1.0
C      1  0.4801900000000  0.4113000000000  0.4384980000000 1.0
C      1  0.4659300000000  0.3998300000000  0.5219260000000 1.0
C      1  0.5361570000000  0.3998690000000  0.5177640000000 1.0
C      1  0.4968130000000  0.4003440000000  0.4598500000000 1.0
C      1  0.5085260000000  0.4995530000000  0.5216200000000 1.0
C      1  0.5255290000000  0.5036070000000  0.4709550000000 1.0
C      1  0.4688260000000  0.5005080000000  0.4910850000000 1.0
C      1  0.4363370000000  0.5814020000000  0.4688810000000 1.0
C      1  0.5044100000000  0.5826970000000  0.5687470000000 1.0
C      1  0.5592160000000  0.5838870000000  0.4577440000000 1.0
C      1  0.5256370000000  0.5521760000000  0.4187770000000 1.0
C      1  0.4135990000000  0.5510750000000  0.5114920000000 1.0
C      1  0.5593610000000  0.5532920000000  0.5704500000000 1.0
C      1  0.5506790000000  0.4544310000000  0.4982820000000 1.0
C      1  0.4760670000000  0.4551870000000  0.4586840000000 1.0
C      1  0.4753300000000  0.4545150000000  0.5411550000000 1.0
C      1  0.4815950000000  0.4081420000000  0.4839690000000 1.0
C      1  0.4949700000000  0.4068490000000  0.5245040000000 1.0
C      1  0.5235960000000  0.4070930000000  0.4919330000000 1.0
C      1  0.6091890000000  0.4547820000000  0.4736090000000 1.0
C      1  0.4129410000000  0.4592790000000  0.4227130000000 1.0
C      1  0.4707450000000  0.4597400000000  0.6092840000000 1.0
C      1  0.5480550000000  0.4577090000000  0.5892440000000 1.0
C      1  0.5548790000000  0.4571550000000  0.4151330000000 1.0
C      1  0.3989040000000  0.4588750000000  0.4986990000000 1.0
C      1  0.4368990000000  0.5208800000000  0.5870540000000 1.0
C      1  0.6059920000000  0.5271660000000  0.5158620000000 1.0
C      1  0.4583480000000  0.5196410000000  0.3912580000000 1.0
C      1  0.5145410000000  0.5262330000000  0.5094620000000 1.0
C      1  0.5034570000000  0.5230820000000  0.4827870000000 1.0
C      1  0.4692570000000  0.5205560000000  0.5114180000000 1.0
C      1  0.5296980000000  0.5900480000000  0.5579770000000 1.0
C      1  0.5322740000000  0.5872420000000  0.4482930000000 1.0
C      1  0.4416660000000  0.5868430000000  0.4969650000000 1.0
C      1  0.4201110000000  0.4997570000000  0.4174800000000 1.0
C      1  0.4649480000000  0.4885630000000  0.6070130000000 1.0
C      1  0.6120200000000  0.4955550000000  0.4764240000000 1.0
C      1  0.6022260000000  0.5340710000000  0.5428380000000 1.0
C      1  0.4834220000000  0.5344930000000  0.3949180000000 1.0
C      1  0.4140580000000  0.5327430000000  0.5705810000000 1.0
C      1  0.5698560000000  0.4969790000000  0.4910930000000 1.0
C      1  0.4546130000000  0.5009700000000  0.4418970000000 1.0
C      1  0.4769250000000  0.4966760000000  0.5646030000000 1.0
C      1  0.4712060000000  0.5558040000000  0.4807590000000 1.0
C      1  0.4981050000000  0.5513210000000  0.5319070000000 1.0
C      1  0.5390440000000  0.5569890000000  0.4889420000000 1.0
C      1  0.5400980000000  0.4294320000000  0.4504020000000 1.0
C      1  0.4387660000000  0.4318900000000  0.4911340000000 1.0
C      1  0.5222280000000  0.4309690000000  0.5575650000000 1.0
C      1  0.4797120000000  0.4573730000000  0.4873780000000 1.0
C      1  0.4972210000000  0.4559850000000  0.5221600000000 1.0
C      1  0.5238650000000  0.4570790000000  0.4885160000000 1.0
C      1  0.5988060000000  0.5007640000000  0.4501920000000 1.0
C      1  0.4060070000000  0.5058120000000  0.4430090000000 1.0
C      1  0.4923490000000  0.5008930000000  0.6079890000000 1.0
C      1  0.5633070000000  0.4272790000000  0.5849920000000 1.0
C      1  0.5419790000000  0.4273610000000  0.4019460000000 1.0
C      1  0.3953170000000  0.4273900000000  0.5114840000000 1.0
C      1  0.5393270000000  0.5713220000000  0.5353310000000 1.0
C      1  0.5160640000000  0.5660540000000  0.4617770000000 1.0
C      1  0.4644570000000  0.5704610000000  0.5040100000000 1.0
C      1  0.4232960000000  0.4749690000000  0.5727790000000 1.0
C      1  0.5986550000000  0.4759200000000  0.5341810000000 1.0
C      1  0.4880940000000  0.4740720000000  0.3967930000000 1.0
C      1  0.4422920000000  0.5208630000000  0.5148790000000 1.0
C      1  0.5319190000000  0.5179180000000  0.5542410000000 1.0
C      1  0.5235500000000  0.5161070000000  0.4462220000000 1.0
C      1  0.5244260000000  0.3919280000000  0.4665820000000 1.0
C      1  0.4577820000000  0.3936990000000  0.4941000000000 1.0
C      1  0.5165770000000  0.3920810000000  0.5379860000000 1.0
C      1  0.4550500000000  0.4935380000000  0.5463290000000 1.0
C      1  0.5600390000000  0.4941220000000  0.5176890000000 1.0
C      1  0.4820220000000  0.4932340000000  0.4392960000000 1.0
C      1  0.5835850000000  0.5442270000000  0.4641470000000 1.0
C      1  0.4311650000000  0.5445670000000  0.4468520000000 1.0
C      1  0.4846360000000  0.5412190000000  0.5836950000000 1.0
C      1  0.4192590000000  0.4509920000000  0.4752620000000 1.0
C      1  0.5185510000000  0.4482840000000  0.5832120000000 1.0
C      1  0.5630730000000  0.4460320000000  0.4418320000000 1.0
C      1  0.4526990000000  0.4467360000000  0.4435420000000 1.0
C      1  0.4784500000000  0.4635770000000  0.5682810000000 1.0
C      1  0.5688010000000  0.4681070000000  0.4816290000000 1.0
C      1  0.4123610000000  0.4509280000000  0.4480540000000 1.0
C      1  0.4974700000000  0.4507850000000  0.6015330000000 1.0
C      1  0.5831660000000  0.4572980000000  0.4587940000000 1.0
C      1  0.4786760000000  0.4485500000000  0.4021070000000 1.0
C      1  0.4324860000000  0.4479960000000  0.5708370000000 1.0
C      1  0.5949680000000  0.4492250000000  0.5267510000000 1.0
C      1  0.4898630000000  0.6195600000000  0.5140510000000 1.0
C      1  0.5159990000000  0.6210610000000  0.5012440000000 1.0
C      1  0.4924570000000  0.6201280000000  0.4858330000000 1.0
C      1  0.5689550000000  0.4825030000000  0.4116240000000 1.0
C      1  0.3870910000000  0.4823730000000  0.4853110000000 1.0
C      1  0.5440890000000  0.4826160000000  0.6066300000000 1.0
C      1  0.4364990000000  0.5138950000000  0.5401950000000 1.0
C      1  0.5577300000000  0.5124670000000  0.5398000000000 1.0
C      1  0.5000450000000  0.5141550000000  0.4322190000000 1.0
C      1  0.5369830000000  0.6012270000000  0.5014060000000 1.0
C      1  0.4840550000000  0.6008950000000  0.4670180000000 1.0
C      1  0.4800770000000  0.5993390000000  0.5319110000000 1.0
C      1  0.4064680000000  0.5317550000000  0.4564680000000 1.0
C      1  0.5039180000000  0.5261640000000  0.6011090000000 1.0
C      1  0.5950260000000  0.5284090000000  0.4416320000000 1.0
C      1  0.5560270000000  0.4273360000000  0.5579390000000 1.0
C      1  0.5226530000000  0.4245500000000  0.4217210000000 1.0
C      1  0.4218530000000  0.4278690000000  0.5205300000000 1.0
C      1  0.5692370000000  0.4085440000000  0.4847970000000 1.0
C      1  0.4526440000000  0.4173330000000  0.4485670000000 1.0
C      1  0.4785810000000  0.4085750000000  0.5670650000000 1.0
C      1  0.5069270000000  0.5546730000000  0.5600980000000 1.0
C      1  0.5549870000000  0.5547660000000  0.4609210000000 1.0
C      1  0.4399720000000  0.5521130000000  0.4734270000000 1.0
C      1  0.5493000000000  0.5502080000000  0.4109860000000 1.0
C      1  0.3945680000000  0.5543750000000  0.4918520000000 1.0
C      1  0.5470100000000  0.5578330000000  0.5961330000000 1.0
C      1  0.4807610000000  0.5317200000000  0.4695930000000 1.0
C      1  0.4829830000000  0.5294950000000  0.5335870000000 1.0
C      1  0.5422690000000  0.5314100000000  0.5007890000000 1.0
C      1  0.4447550000000  0.5161140000000  0.4185520000000 1.0
C      1  0.4637820000000  0.5209040000000  0.5762480000000 1.0
C      1  0.5978490000000  0.5141280000000  0.4937340000000 1.0
C      1  0.5230920000000  0.4314930000000  0.4771570000000 1.0
C      1  0.4688480000000  0.4320950000000  0.4918100000000 1.0
C      1  0.5072780000000  0.4317390000000  0.5314200000000 1.0
C      1  0.5483060000000  0.5794660000000  0.5771450000000 1.0
C      1  0.5224380000000  0.5789290000000  0.4212880000000 1.0
C      1  0.4200950000000  0.5771130000000  0.5148170000000 1.0
C      1  0.4759770000000  0.5954990000000  0.4392580000000 1.0
C      1  0.4580330000000  0.5921640000000  0.5490760000000 1.0
C      1  0.5655360000000  0.5957840000000  0.5065650000000 1.0
C      1  0.4499900000000  0.5823700000000  0.4427790000000 1.0
C      1  0.4740260000000  0.5851270000000  0.5729890000000 1.0
C      1  0.5766660000000  0.5838970000000  0.4826210000000 1.0
C      1  0.4101630000000  0.5149710000000  0.4830360000000 1.0
C      1  0.5278070000000  0.5129990000000  0.5851210000000 1.0
C      1  0.5694000000000  0.5221260000000  0.4264130000000 1.0
C      1  0.5841310000000  0.5106710000000  0.5522670000000 1.0
C      1  0.5027340000000  0.5130090000000  0.4030430000000 1.0
C      1  0.4086750000000  0.5122270000000  0.5493960000000 1.0
C      1  0.6121530000000  0.4731130000000  0.4964520000000 1.0
C      1  0.4300360000000  0.4738530000000  0.4062980000000 1.0
C      1  0.4385530000000  0.4927110000000  0.5934490000000 1.0
C      1  0.5348580000000  0.5467520000000  0.5530790000000 1.0
C      1  0.5279750000000  0.5433570000000  0.4455110000000 1.0
C      1  0.4278400000000  0.5331200000000  0.4967880000000 1.0
C      1  0.4077140000000  0.4828530000000  0.5489530000000 1.0
C      1  0.5865300000000  0.4818870000000  0.5588690000000 1.0
C      1  0.5129670000000  0.4860080000000  0.3956670000000 1.0
C      1  0.5401010000000  0.4661950000000  0.5454100000000 1.0
C      1  0.5182250000000  0.4673710000000  0.4417950000000 1.0
C      1  0.4384330000000  0.4676270000000  0.5120790000000 1.0
C      1  0.4601830000000  0.5127110000000  0.4673180000000 1.0
C      1  0.4994550000000  0.5106800000000  0.5466740000000 1.0
C      1  0.5496190000000  0.5123500000000  0.4819770000000 1.0
C      1  0.4919310000000  0.5787910000000  0.4214480000000 1.0
C      1  0.4327310000000  0.5767370000000  0.5424090000000 1.0
C      1  0.5698240000000  0.5779780000000  0.5299700000000 1.0
END
