TITL C-2441161-5029-617 0.0383656516292923 125000 -12495.1362704757 0 0 91 (C1) n - 1
REM
REM in /home/bkarasulu/work/CARBON/AIRSS/Generating-Clusters/ReaxFF-fromJPCA2015/Units_Real/with-SteepDescent/Higher-Symm
REM
REM
REM
REM
REM
REM ./C.cell (1df0a924f5614ab8850e4351716899ee)
REM
REM compiler GCC version 9.2.1 20190827 (Red Hat 9.2.1-1)
REM options -cpp -mtune=generic -march=x86-64 -g -O0 -fpre-include=/usr/include/finclude/math-vector-fortran.h
REM seed -762559076 -652881280 -950229135 -1083235657 -262402614 -2003578244 1795484759 462177936 591790211 2053722822 -1963981555 758021025 -209151710 1187285494 -1799145728 -827586755 1876958771 1119120818 222944213 1462840183 189030094 24242703 377053437 1873649373 -943110385 1996166390 -1882401572 515733963 -553937189 1935476254 -2088049072 1610491527 2102935581
REM
CELL 1.54180   50.00000   50.00000   50.00000   90.00000   90.00000   90.00000
LATT -1
SFAC C  
C      1  0.5078470000000  0.4643930000000  0.5186820000000 1.0
C      1  0.5800170000000  0.5159070000000  0.4898890000000 1.0
C      1  0.4890560000000  0.4621210000000  0.4165510000000 1.0
C      1  0.5476110000000  0.5621320000000  0.5161280000000 1.0
C      1  0.4484080000000  0.5226200000000  0.4373340000000 1.0
C      1  0.4522350000000  0.4960190000000  0.4347580000000 1.0
C      1  0.4453090000000  0.4582260000000  0.4513120000000 1.0
C      1  0.4993680000000  0.5700490000000  0.5406020000000 1.0
C      1  0.4939230000000  0.4244720000000  0.5251490000000 1.0
C      1  0.5336960000000  0.5367530000000  0.4551100000000 1.0
C      1  0.4514610000000  0.4963990000000  0.5559300000000 1.0
C      1  0.5324800000000  0.4521560000000  0.5291500000000 1.0
C      1  0.4953860000000  0.4789290000000  0.5401530000000 1.0
C      1  0.5323720000000  0.4389800000000  0.4354760000000 1.0
C      1  0.4324550000000  0.4568440000000  0.4950560000000 1.0
C      1  0.5426780000000  0.4569810000000  0.5562710000000 1.0
C      1  0.4968960000000  0.5539750000000  0.5654410000000 1.0
C      1  0.5361040000000  0.4438640000000  0.4653600000000 1.0
C      1  0.5088980000000  0.4862540000000  0.5929860000000 1.0
C      1  0.5399370000000  0.4898290000000  0.4951110000000 1.0
C      1  0.4201870000000  0.5000550000000  0.4753270000000 1.0
C      1  0.4523230000000  0.5640290000000  0.5260930000000 1.0
C      1  0.5655850000000  0.5347840000000  0.5530710000000 1.0
C      1  0.4831990000000  0.4224170000000  0.4426730000000 1.0
C      1  0.4294420000000  0.5561960000000  0.5083430000000 1.0
C      1  0.5652390000000  0.4472020000000  0.5043700000000 1.0
C      1  0.4436600000000  0.4414660000000  0.5149360000000 1.0
C      1  0.4979280000000  0.5463580000000  0.4268860000000 1.0
C      1  0.5145970000000  0.5592560000000  0.4478410000000 1.0
C      1  0.5084190000000  0.5142430000000  0.5871650000000 1.0
C      1  0.4828600000000  0.4419480000000  0.4828590000000 1.0
C      1  0.5450580000000  0.4899240000000  0.4412830000000 1.0
C      1  0.5157920000000  0.5247590000000  0.5301640000000 1.0
C      1  0.4801480000000  0.5806860000000  0.4907070000000 1.0
C      1  0.4391810000000  0.5501540000000  0.4821340000000 1.0
C      1  0.4986410000000  0.4858420000000  0.4047600000000 1.0
C      1  0.5533910000000  0.4908490000000  0.4705360000000 1.0
C      1  0.5101790000000  0.5234660000000  0.4679240000000 1.0
C      1  0.5427020000000  0.4871530000000  0.5549550000000 1.0
C      1  0.5203280000000  0.4411450000000  0.5682000000000 1.0
C      1  0.4815940000000  0.4597750000000  0.5580970000000 1.0
C      1  0.5797950000000  0.4857480000000  0.4831660000000 1.0
C      1  0.5160980000000  0.4619360000000  0.5865290000000 1.0
C      1  0.5850280000000  0.5448600000000  0.4612910000000 1.0
C      1  0.5613950000000  0.4509080000000  0.4768090000000 1.0
C      1  0.4809920000000  0.5137220000000  0.5881990000000 1.0
C      1  0.5070740000000  0.4954940000000  0.4714340000000 1.0
C      1  0.4818840000000  0.5330590000000  0.4658580000000 1.0
C      1  0.5032510000000  0.4382360000000  0.4274650000000 1.0
C      1  0.5165900000000  0.4846260000000  0.4478890000000 1.0
C      1  0.4648460000000  0.5601030000000  0.4780260000000 1.0
C      1  0.4668020000000  0.5128210000000  0.4792060000000 1.0
C      1  0.4815890000000  0.5071190000000  0.5027710000000 1.0
C      1  0.4137290000000  0.5324450000000  0.5153080000000 1.0
C      1  0.4528240000000  0.5252100000000  0.5618160000000 1.0
C      1  0.5138680000000  0.5573060000000  0.4929080000000 1.0
C      1  0.4537720000000  0.4673510000000  0.5612140000000 1.0
C      1  0.4637430000000  0.4367950000000  0.4604430000000 1.0
C      1  0.5403100000000  0.5211890000000  0.4262420000000 1.0
C      1  0.5049540000000  0.5740940000000  0.4722780000000 1.0
C      1  0.5116900000000  0.5234890000000  0.4136750000000 1.0
C      1  0.5640910000000  0.4771700000000  0.5074090000000 1.0
C      1  0.4104170000000  0.5085910000000  0.4999800000000 1.0
C      1  0.5171750000000  0.4217110000000  0.5061170000000 1.0
C      1  0.4783120000000  0.5764240000000  0.5204130000000 1.0
C      1  0.4852630000000  0.5255020000000  0.5236200000000 1.0
C      1  0.5536450000000  0.5120250000000  0.5675710000000 1.0
C      1  0.5451540000000  0.4630710000000  0.4294050000000 1.0
C      1  0.5081200000000  0.4877710000000  0.4998470000000 1.0
C      1  0.5438260000000  0.4293060000000  0.5154500000000 1.0
C      1  0.5117380000000  0.4370760000000  0.4825720000000 1.0
C      1  0.5187280000000  0.4973210000000  0.5416940000000 1.0
C      1  0.5352250000000  0.5447280000000  0.5512810000000 1.0
C      1  0.4264330000000  0.4712080000000  0.4721670000000 1.0
C      1  0.5011610000000  0.5000060000000  0.4279760000000 1.0
C      1  0.4390900000000  0.4622890000000  0.5357140000000 1.0
C      1  0.4722840000000  0.5388600000000  0.4375980000000 1.0
C      1  0.4427470000000  0.4907520000000  0.5301550000000 1.0
C      1  0.5192490000000  0.5396000000000  0.5736960000000 1.0
C      1  0.4627150000000  0.4717670000000  0.4326230000000 1.0
C      1  0.4957840000000  0.4345680000000  0.5526620000000 1.0
C      1  0.5306130000000  0.5397340000000  0.5070040000000 1.0
C      1  0.5284890000000  0.5695520000000  0.5369160000000 1.0
C      1  0.5777190000000  0.5229430000000  0.5161000000000 1.0
C      1  0.4720720000000  0.4328520000000  0.5081550000000 1.0
C      1  0.5717390000000  0.5471080000000  0.5267720000000 1.0
C      1  0.4738720000000  0.5385750000000  0.5781330000000 1.0
C      1  0.5638580000000  0.5349350000000  0.4695000000000 1.0
C      1  0.4619280000000  0.5386040000000  0.5367940000000 1.0
C      1  0.4402340000000  0.5203740000000  0.4690720000000 1.0
C      1  0.4314920000000  0.5104550000000  0.5163010000000 1.0
END
