TITL C-2441168-9922-234 0.000502151998383905 125000 -1672.84564200636 0 0 13 (C2) n - 1
REM
REM in /home/bkarasulu/work/CARBON/AIRSS/Generating-Clusters/ReaxFF-fromJPCA2015/Units_Real/with-SteepDescent/Higher-Symm
REM
REM
REM
REM
REM
REM ./C.cell (1df0a924f5614ab8850e4351716899ee)
REM
REM compiler GCC version 9.2.1 20190827 (Red Hat 9.2.1-1)
REM options -cpp -mtune=generic -march=x86-64 -g -O0 -fpre-include=/usr/include/finclude/math-vector-fortran.h
REM seed -441723984 2032472349 -1847174446 1237743591 -1787566891 -1663764489 1650501109 1199152499 667554717 619670803 -2055761433 -2062125698 -928573811 -1355767295 -2113584653 -1021386785 -1561177480 -1200541220 -1402593864 -529367115 27546205 366347934 1897006990 1673932713 432577781 -69287109 256779476 1923268634 1266739547 -674202082 -974279073 1073144231 -2092589455
REM
CELL 1.54180   50.00000   50.00000   50.00000   90.00000   90.00000   90.00000
LATT -1
SFAC C  
C      1  0.5067080000000  0.4777020000000  0.5355170000000 1.0
C      1  0.4808650000000  0.5153510000000  0.5106620000000 1.0
C      1  0.4916300000000  0.4543700000000  0.5307620000000 1.0
C      1  0.4768820000000  0.5380620000000  0.4947170000000 1.0
C      1  0.4629790000000  0.4316880000000  0.4961100000000 1.0
C      1  0.5031940000000  0.5677570000000  0.4636510000000 1.0
C      1  0.4990120000000  0.4618540000000  0.4779280000000 1.0
C      1  0.5298960000000  0.5458220000000  0.5002830000000 1.0
C      1  0.5132520000000  0.4847750000000  0.4855370000000 1.0
C      1  0.5309270000000  0.5226990000000  0.5163630000000 1.0
C      1  0.5034530000000  0.5526530000000  0.4838380000000 1.0
C      1  0.4822300000000  0.4471680000000  0.5011630000000 1.0
C      1  0.5087360000000  0.5001380000000  0.5130510000000 1.0
END
