TITL C-2441154-10-282 0.00771018823094231 125000 -13767.3386312547 0 0 93 (C1) n - 1
REM
REM in /home/bkarasulu/work/CARBON/AIRSS/Generating-Clusters/ReaxFF-fromJPCA2015/Units_Real/with-SteepDescent/Higher-Symm
REM
REM
REM
REM
REM
REM ./C.cell (1df0a924f5614ab8850e4351716899ee)
REM
REM compiler GCC version 9.2.1 20190827 (Red Hat 9.2.1-1)
REM options -cpp -mtune=generic -march=x86-64 -g -O0 -fpre-include=/usr/include/finclude/math-vector-fortran.h
REM seed -1111212824 1819110774 301540023 -1921535715 215194858 1912388702 778404212 -50211190 -318187460 1261550008 -1234860241 871973258 787215446 -1990564201 1562731555 1839299575 1740329901 -1907959901 1808209528 -266629256 1330434684 238042293 -1887281351 120492401 1695639293 -1080437883 -250486020 -365637464 958518158 1272941359 -2079488545 -1150185888 786041893
REM
CELL 1.54180   50.00000   50.00000   50.00000   90.00000   90.00000   90.00000
LATT -1
SFAC C  
C      1  0.4966730000000  0.5214370000000  0.4665730000000 1.0
C      1  0.5259810000000  0.5094220000000  0.4685840000000 1.0
C      1  0.5288840000000  0.4806430000000  0.4720320000000 1.0
C      1  0.4830450000000  0.4749090000000  0.4768960000000 1.0
C      1  0.4732420000000  0.5022400000000  0.4714690000000 1.0
C      1  0.4343450000000  0.4356670000000  0.5199280000000 1.0
C      1  0.4150890000000  0.5580930000000  0.5102470000000 1.0
C      1  0.5264020000000  0.5927970000000  0.5124350000000 1.0
C      1  0.5883090000000  0.5143470000000  0.5184300000000 1.0
C      1  0.5334250000000  0.4082870000000  0.5088120000000 1.0
C      1  0.4759720000000  0.5146780000000  0.5213580000000 1.0
C      1  0.5018350000000  0.5254030000000  0.5230450000000 1.0
C      1  0.5190030000000  0.5028660000000  0.5282860000000 1.0
C      1  0.5051010000000  0.4793980000000  0.5280030000000 1.0
C      1  0.4786200000000  0.4867820000000  0.5246830000000 1.0
C      1  0.4568720000000  0.5049000000000  0.4452540000000 1.0
C      1  0.4965000000000  0.5248280000000  0.4355390000000 1.0
C      1  0.5420970000000  0.5190880000000  0.4427800000000 1.0
C      1  0.5233730000000  0.4795260000000  0.4231470000000 1.0
C      1  0.4819500000000  0.4725250000000  0.4259800000000 1.0
C      1  0.5574310000000  0.5171370000000  0.5563520000000 1.0
C      1  0.5290420000000  0.4515370000000  0.5599400000000 1.0
C      1  0.4579500000000  0.4503630000000  0.5610360000000 1.0
C      1  0.4564500000000  0.5180430000000  0.5622250000000 1.0
C      1  0.4999350000000  0.5660500000000  0.5644160000000 1.0
C      1  0.5881440000000  0.5129770000000  0.4891680000000 1.0
C      1  0.5311140000000  0.4095530000000  0.4808260000000 1.0
C      1  0.4274870000000  0.4415840000000  0.4912140000000 1.0
C      1  0.4222770000000  0.5589160000000  0.4810700000000 1.0
C      1  0.5283910000000  0.5914430000000  0.4817890000000 1.0
C      1  0.4426970000000  0.5135370000000  0.4871020000000 1.0
C      1  0.4963290000000  0.5521440000000  0.4816890000000 1.0
C      1  0.5402830000000  0.5236980000000  0.4925250000000 1.0
C      1  0.5486810000000  0.4592140000000  0.4747230000000 1.0
C      1  0.4702870000000  0.4507810000000  0.4873260000000 1.0
C      1  0.4204260000000  0.4688840000000  0.4801560000000 1.0
C      1  0.4501320000000  0.5683280000000  0.4714550000000 1.0
C      1  0.5500590000000  0.5746900000000  0.4708880000000 1.0
C      1  0.5830250000000  0.4863290000000  0.4761950000000 1.0
C      1  0.5030500000000  0.4168510000000  0.4700450000000 1.0
C      1  0.4643050000000  0.5689140000000  0.5195740000000 1.0
C      1  0.5610290000000  0.5561120000000  0.5197120000000 1.0
C      1  0.5697710000000  0.4638850000000  0.5220790000000 1.0
C      1  0.4869370000000  0.4261480000000  0.5350350000000 1.0
C      1  0.4217000000000  0.4903950000000  0.5264140000000 1.0
C      1  0.5143570000000  0.4593850000000  0.5111250000000 1.0
C      1  0.4607180000000  0.4672780000000  0.5131610000000 1.0
C      1  0.4528400000000  0.5256300000000  0.5115000000000 1.0
C      1  0.5163700000000  0.5443650000000  0.5054150000000 1.0
C      1  0.5438490000000  0.5052630000000  0.5148450000000 1.0
C      1  0.5185580000000  0.5457230000000  0.5655380000000 1.0
C      1  0.5489880000000  0.4888140000000  0.5624650000000 1.0
C      1  0.5034560000000  0.4367260000000  0.5568340000000 1.0
C      1  0.4475040000000  0.4775250000000  0.5671040000000 1.0
C      1  0.4621050000000  0.5476490000000  0.5666940000000 1.0
C      1  0.5089480000000  0.5750330000000  0.4660750000000 1.0
C      1  0.5678950000000  0.5322090000000  0.4818900000000 1.0
C      1  0.5407320000000  0.4334240000000  0.4632880000000 1.0
C      1  0.4470650000000  0.4391490000000  0.4699110000000 1.0
C      1  0.4291100000000  0.5333670000000  0.4678660000000 1.0
C      1  0.4715200000000  0.5667220000000  0.4912030000000 1.0
C      1  0.5664860000000  0.5597680000000  0.4904730000000 1.0
C      1  0.5714750000000  0.4637930000000  0.4926200000000 1.0
C      1  0.4877380000000  0.4259880000000  0.4927660000000 1.0
C      1  0.4234320000000  0.4924800000000  0.4973600000000 1.0
C      1  0.4367810000000  0.4619290000000  0.4552720000000 1.0
C      1  0.4486910000000  0.5469040000000  0.4501450000000 1.0
C      1  0.5302570000000  0.5643130000000  0.4492890000000 1.0
C      1  0.5688550000000  0.4886920000000  0.4516030000000 1.0
C      1  0.5151740000000  0.4338850000000  0.4490530000000 1.0
C      1  0.4849360000000  0.4529260000000  0.5721400000000 1.0
C      1  0.4695930000000  0.4954710000000  0.5761040000000 1.0
C      1  0.4815450000000  0.5569260000000  0.5878880000000 1.0
C      1  0.5353180000000  0.5275350000000  0.5664140000000 1.0
C      1  0.5238950000000  0.4771230000000  0.5740170000000 1.0
C      1  0.5242660000000  0.5399090000000  0.4346130000000 1.0
C      1  0.5503730000000  0.4933780000000  0.4310800000000 1.0
C      1  0.5069070000000  0.4559350000000  0.4309250000000 1.0
C      1  0.4544240000000  0.4772540000000  0.4368260000000 1.0
C      1  0.4663020000000  0.5299650000000  0.4342670000000 1.0
C      1  0.5710890000000  0.5323750000000  0.5334890000000 1.0
C      1  0.5529200000000  0.4635360000000  0.5466320000000 1.0
C      1  0.4582970000000  0.4324270000000  0.5379940000000 1.0
C      1  0.4353540000000  0.4996280000000  0.5514620000000 1.0
C      1  0.4758850000000  0.5642170000000  0.5456790000000 1.0
C      1  0.4413520000000  0.5498000000000  0.5226830000000 1.0
C      1  0.5327670000000  0.5653370000000  0.5211420000000 1.0
C      1  0.5685280000000  0.4932640000000  0.5239810000000 1.0
C      1  0.5072290000000  0.4299920000000  0.5134170000000 1.0
C      1  0.4352670000000  0.4642630000000  0.5264010000000 1.0
C      1  0.4995040000000  0.4955890000000  0.4212190000000 1.0
C      1  0.5084900000000  0.4703880000000  0.4856170000000 1.0
C      1  0.4947710000000  0.4798740000000  0.5778320000000 1.0
END
