TITL C-2441165-58-1257 0.0897748544936325 125000 -23765.1844183242 0 0 176 (C1) n - 1
REM
REM in /home/bkarasulu/work/CARBON/AIRSS/Generating-Clusters/ReaxFF-fromJPCA2015/Units_Real/with-SteepDescent/Higher-Symm
REM
REM
REM
REM
REM
REM ./C.cell (1df0a924f5614ab8850e4351716899ee)
REM
REM compiler GCC version 9.2.1 20190827 (Red Hat 9.2.1-1)
REM options -cpp -mtune=generic -march=x86-64 -g -O0 -fpre-include=/usr/include/finclude/math-vector-fortran.h
REM seed -2009584879 169519970 1764828406 -684322668 -2042209560 104845948 -1581464200 -2016435227 91801242 -1485100409 -1030154952 216384671 1008580366 470849769 356380246 -1054181136 625014449 -822222043 -537262307 456226167 -420027413 273422618 -372231780 -1646016638 664070305 1264362588 -256126459 1412109768 -986898815 -219641448 -615568043 160231039 1884551282
REM
CELL 1.54180   50.00000   50.00000   50.00000   90.00000   90.00000   90.00000
LATT -1
SFAC C  
C      1  0.5519030000000  0.5638430000000  0.4894730000000 1.0
C      1  0.5774420000000  0.4700420000000  0.4897540000000 1.0
C      1  0.4960960000000  0.4018510000000  0.4842500000000 1.0
C      1  0.4071860000000  0.4737110000000  0.4862170000000 1.0
C      1  0.4528610000000  0.5722280000000  0.4892110000000 1.0
C      1  0.5828800000000  0.5102760000000  0.4307800000000 1.0
C      1  0.5256210000000  0.4227050000000  0.4453480000000 1.0
C      1  0.4444910000000  0.4394400000000  0.4296600000000 1.0
C      1  0.4330960000000  0.5397670000000  0.4308460000000 1.0
C      1  0.5109440000000  0.5801590000000  0.4289230000000 1.0
C      1  0.4703120000000  0.4502730000000  0.4465760000000 1.0
C      1  0.4478640000000  0.5144270000000  0.4453030000000 1.0
C      1  0.4929550000000  0.5747230000000  0.4510020000000 1.0
C      1  0.5630580000000  0.5242500000000  0.4480530000000 1.0
C      1  0.5345360000000  0.4542380000000  0.4469270000000 1.0
C      1  0.4940030000000  0.4601660000000  0.5008040000000 1.0
C      1  0.4567980000000  0.4920910000000  0.5025760000000 1.0
C      1  0.4739710000000  0.5465680000000  0.5002800000000 1.0
C      1  0.5324280000000  0.5372220000000  0.5008020000000 1.0
C      1  0.5466200000000  0.4810710000000  0.5015430000000 1.0
C      1  0.4196900000000  0.5403960000000  0.5115520000000 1.0
C      1  0.5158900000000  0.5914890000000  0.5123920000000 1.0
C      1  0.5840730000000  0.5151840000000  0.5130760000000 1.0
C      1  0.5434590000000  0.4228410000000  0.5153720000000 1.0
C      1  0.4421130000000  0.4358630000000  0.5147630000000 1.0
C      1  0.4059970000000  0.5615810000000  0.4959650000000 1.0
C      1  0.5333320000000  0.6072990000000  0.4946640000000 1.0
C      1  0.6088960000000  0.5042790000000  0.4986280000000 1.0
C      1  0.5432750000000  0.3938150000000  0.5013450000000 1.0
C      1  0.4162470000000  0.4282940000000  0.4982690000000 1.0
C      1  0.5428890000000  0.5072650000000  0.5422110000000 1.0
C      1  0.5185730000000  0.4586100000000  0.5400140000000 1.0
C      1  0.4674930000000  0.4674890000000  0.5414750000000 1.0
C      1  0.4636780000000  0.5059920000000  0.5424300000000 1.0
C      1  0.5051280000000  0.5368680000000  0.5406920000000 1.0
C      1  0.5556240000000  0.5901500000000  0.5030550000000 1.0
C      1  0.6013930000000  0.4768980000000  0.5051200000000 1.0
C      1  0.5152190000000  0.3918350000000  0.5040730000000 1.0
C      1  0.4013030000000  0.4520920000000  0.5042300000000 1.0
C      1  0.4273110000000  0.5793060000000  0.5042320000000 1.0
C      1  0.4689810000000  0.4689840000000  0.4887610000000 1.0
C      1  0.4579410000000  0.5184820000000  0.4905510000000 1.0
C      1  0.5047610000000  0.5469540000000  0.4888750000000 1.0
C      1  0.5407540000000  0.5091500000000  0.4873920000000 1.0
C      1  0.5213930000000  0.4599940000000  0.4898620000000 1.0
C      1  0.5122420000000  0.4024310000000  0.5331810000000 1.0
C      1  0.4088820000000  0.4579580000000  0.5334010000000 1.0
C      1  0.4291080000000  0.5775510000000  0.5338020000000 1.0
C      1  0.5539770000000  0.5915160000000  0.5335350000000 1.0
C      1  0.5962820000000  0.4763140000000  0.5339910000000 1.0
C      1  0.4936230000000  0.4436510000000  0.4141920000000 1.0
C      1  0.4385960000000  0.4883480000000  0.4158040000000 1.0
C      1  0.4755610000000  0.5571280000000  0.4146530000000 1.0
C      1  0.5373890000000  0.5361550000000  0.4167450000000 1.0
C      1  0.5553470000000  0.4724450000000  0.4131620000000 1.0
C      1  0.5313660000000  0.5195910000000  0.5935480000000 1.0
C      1  0.5360230000000  0.4697870000000  0.5891840000000 1.0
C      1  0.5004990000000  0.4522220000000  0.5966880000000 1.0
C      1  0.4509410000000  0.5004910000000  0.5920930000000 1.0
C      1  0.4897510000000  0.5344140000000  0.5911330000000 1.0
C      1  0.5820390000000  0.4739280000000  0.4588070000000 1.0
C      1  0.5003720000000  0.4125520000000  0.4556940000000 1.0
C      1  0.4276480000000  0.4699100000000  0.4611950000000 1.0
C      1  0.4464490000000  0.5689740000000  0.4581420000000 1.0
C      1  0.5403080000000  0.5642760000000  0.4577450000000 1.0
C      1  0.4599040000000  0.5102350000000  0.4185730000000 1.0
C      1  0.5033880000000  0.5320740000000  0.4362030000000 1.0
C      1  0.5390370000000  0.5116210000000  0.4329190000000 1.0
C      1  0.5270120000000  0.4677940000000  0.4212830000000 1.0
C      1  0.4776380000000  0.4673910000000  0.4247730000000 1.0
C      1  0.4243870000000  0.4410960000000  0.4499610000000 1.0
C      1  0.4211830000000  0.5579570000000  0.4498080000000 1.0
C      1  0.5303800000000  0.5906200000000  0.4472650000000 1.0
C      1  0.5987390000000  0.4968100000000  0.4512110000000 1.0
C      1  0.5406680000000  0.4023160000000  0.4556970000000 1.0
C      1  0.5625890000000  0.4292170000000  0.4778070000000 1.0
C      1  0.4548700000000  0.4198580000000  0.4779120000000 1.0
C      1  0.4070910000000  0.5193460000000  0.4760810000000 1.0
C      1  0.4933180000000  0.5931860000000  0.4752250000000 1.0
C      1  0.5868780000000  0.5366010000000  0.4768690000000 1.0
C      1  0.5542080000000  0.5496740000000  0.4358910000000 1.0
C      1  0.5643080000000  0.4630580000000  0.4396400000000 1.0
C      1  0.4829550000000  0.4264650000000  0.4368160000000 1.0
C      1  0.4275270000000  0.4920640000000  0.4415130000000 1.0
C      1  0.4678170000000  0.5683420000000  0.4395940000000 1.0
C      1  0.4876250000000  0.5840720000000  0.5766310000000 1.0
C      1  0.5800590000000  0.5378050000000  0.5755820000000 1.0
C      1  0.5541510000000  0.4482040000000  0.5854870000000 1.0
C      1  0.4627280000000  0.4219480000000  0.5764260000000 1.0
C      1  0.4155790000000  0.5117430000000  0.5757810000000 1.0
C      1  0.5062090000000  0.5541290000000  0.4152730000000 1.0
C      1  0.5605660000000  0.5014700000000  0.4138040000000 1.0
C      1  0.5186980000000  0.4496290000000  0.4026890000000 1.0
C      1  0.4506130000000  0.4623210000000  0.4127010000000 1.0
C      1  0.4538120000000  0.5392670000000  0.4111610000000 1.0
C      1  0.5308560000000  0.5465340000000  0.5843530000000 1.0
C      1  0.5582630000000  0.4888390000000  0.5886530000000 1.0
C      1  0.5138080000000  0.4318830000000  0.5816780000000 1.0
C      1  0.4466090000000  0.4728540000000  0.5856860000000 1.0
C      1  0.4622410000000  0.5398830000000  0.5865850000000 1.0
C      1  0.4697430000000  0.4208350000000  0.5245520000000 1.0
C      1  0.4135010000000  0.5019250000000  0.5249980000000 1.0
C      1  0.4772640000000  0.5827190000000  0.5260330000000 1.0
C      1  0.5716150000000  0.5444080000000  0.5245770000000 1.0
C      1  0.5701920000000  0.4323150000000  0.5213880000000 1.0
C      1  0.5695090000000  0.5152650000000  0.4869650000000 1.0
C      1  0.5375250000000  0.4362510000000  0.4907170000000 1.0
C      1  0.4554210000000  0.4449420000000  0.4922240000000 1.0
C      1  0.4308860000000  0.5264210000000  0.4908200000000 1.0
C      1  0.5055130000000  0.5747150000000  0.4932760000000 1.0
C      1  0.5909570000000  0.5163760000000  0.5593550000000 1.0
C      1  0.5452910000000  0.4273650000000  0.5659430000000 1.0
C      1  0.4422940000000  0.4379750000000  0.5636680000000 1.0
C      1  0.4207040000000  0.5362170000000  0.5608100000000 1.0
C      1  0.5095620000000  0.5919700000000  0.5607840000000 1.0
C      1  0.4607370000000  0.4705310000000  0.4615090000000 1.0
C      1  0.4695560000000  0.5147920000000  0.4657670000000 1.0
C      1  0.5107140000000  0.5478640000000  0.4596490000000 1.0
C      1  0.5227400000000  0.5000540000000  0.4626580000000 1.0
C      1  0.5220210000000  0.4713110000000  0.4644580000000 1.0
C      1  0.5575710000000  0.5574210000000  0.5755410000000 1.0
C      1  0.5752500000000  0.4664590000000  0.5798230000000 1.0
C      1  0.4916500000000  0.4139480000000  0.5753310000000 1.0
C      1  0.4176930000000  0.4819870000000  0.5759820000000 1.0
C      1  0.4631000000000  0.5676590000000  0.5750840000000 1.0
C      1  0.5702510000000  0.4355000000000  0.5484740000000 1.0
C      1  0.4545240000000  0.4154130000000  0.5496000000000 1.0
C      1  0.4048140000000  0.5157500000000  0.5487720000000 1.0
C      1  0.4844040000000  0.5976580000000  0.5513170000000 1.0
C      1  0.5888870000000  0.5432430000000  0.5486310000000 1.0
C      1  0.4313730000000  0.5477940000000  0.5369690000000 1.0
C      1  0.5250690000000  0.5841610000000  0.5386420000000 1.0
C      1  0.5822180000000  0.5001700000000  0.5376390000000 1.0
C      1  0.5284770000000  0.4293230000000  0.5409240000000 1.0
C      1  0.4405110000000  0.4537460000000  0.5384250000000 1.0
C      1  0.4884480000000  0.4510430000000  0.5273170000000 1.0
C      1  0.4417390000000  0.4961020000000  0.5259230000000 1.0
C      1  0.4824480000000  0.5534540000000  0.5267060000000 1.0
C      1  0.5378850000000  0.5340090000000  0.5292070000000 1.0
C      1  0.5375340000000  0.4811970000000  0.5285800000000 1.0
C      1  0.4255690000000  0.4214960000000  0.4718230000000 1.0
C      1  0.4024560000000  0.5476710000000  0.4705250000000 1.0
C      1  0.5199030000000  0.6064960000000  0.4691040000000 1.0
C      1  0.6079750000000  0.5154790000000  0.4725240000000 1.0
C      1  0.5585520000000  0.3988620000000  0.4773380000000 1.0
C      1  0.4565630000000  0.5169620000000  0.5698480000000 1.0
C      1  0.5063250000000  0.5437730000000  0.5698540000000 1.0
C      1  0.5467070000000  0.5093440000000  0.5719390000000 1.0
C      1  0.5185570000000  0.4727800000000  0.5657940000000 1.0
C      1  0.4711380000000  0.4715300000000  0.5694990000000 1.0
C      1  0.4712430000000  0.5932050000000  0.4992510000000 1.0
C      1  0.5789760000000  0.5562680000000  0.4982960000000 1.0
C      1  0.5808820000000  0.4424730000000  0.4967120000000 1.0
C      1  0.4713250000000  0.4063070000000  0.4980020000000 1.0
C      1  0.4013370000000  0.4991270000000  0.4975240000000 1.0
C      1  0.5611550000000  0.5762860000000  0.5552780000000 1.0
C      1  0.5874220000000  0.4575670000000  0.5545720000000 1.0
C      1  0.4965350000000  0.3982280000000  0.5524910000000 1.0
C      1  0.4033710000000  0.4708480000000  0.5547620000000 1.0
C      1  0.4474310000000  0.5810810000000  0.5553460000000 1.0
C      1  0.4952970000000  0.5050950000000  0.5039860000000 1.0
C      1  0.5002850000000  0.5024190000000  0.6296880000000 1.0
C      1  0.5028440000000  0.4978240000000  0.3555840000000 1.0
C      1  0.4993410000000  0.4978990000000  0.6802410000000 1.0
C      1  0.4958170000000  0.4822200000000  0.5805760000000 1.0
C      1  0.5027350000000  0.5089770000000  0.6008700000000 1.0
C      1  0.5026230000000  0.4981890000000  0.3805420000000 1.0
C      1  0.4998090000000  0.4987250000000  0.7046090000000 1.0
C      1  0.4912070000000  0.5104330000000  0.5313430000000 1.0
C      1  0.5014100000000  0.4986160000000  0.3321780000000 1.0
C      1  0.5001680000000  0.4993850000000  0.3065620000000 1.0
C      1  0.4906080000000  0.5055440000000  0.4281230000000 1.0
C      1  0.4996500000000  0.4999510000000  0.2824790000000 1.0
C      1  0.4971870000000  0.5015990000000  0.4031790000000 1.0
C      1  0.4991980000000  0.4985460000000  0.6543090000000 1.0
C      1  0.4946960000000  0.5048530000000  0.4755280000000 1.0
END
