TITL C-2441162-9305-984 0.0404972777532458 125000 -16253.5981478775 0 0 116 (C1) n - 1
REM
REM in /home/bkarasulu/work/CARBON/AIRSS/Generating-Clusters/ReaxFF-fromJPCA2015/Units_Real/with-SteepDescent/Higher-Symm
REM
REM
REM
REM
REM
REM ./C.cell (1df0a924f5614ab8850e4351716899ee)
REM
REM compiler GCC version 9.2.1 20190827 (Red Hat 9.2.1-1)
REM options -cpp -mtune=generic -march=x86-64 -g -O0 -fpre-include=/usr/include/finclude/math-vector-fortran.h
REM seed -908805817 1053683534 1438391735 1853495578 39620424 -774371889 1707114597 -1188971511 1961050178 399121861 55371220 724489461 -602237076 -1772490265 -1332233432 -1256861193 15698696 -401891671 -1264548654 -2079923271 -1723105469 -2130106358 1625904723 1737728949 1106181194 -1817436184 -1536593243 -2128893979 668417417 218465104 1890030470 400549938 -1213287512
REM
CELL 1.54180   50.00000   50.00000   50.00000   90.00000   90.00000   90.00000
LATT -1
SFAC C  
C      1  0.5416510000000  0.4372670000000  0.5626140000000 1.0
C      1  0.4354750000000  0.4363280000000  0.4956250000000 1.0
C      1  0.5063660000000  0.5382310000000  0.5587230000000 1.0
C      1  0.5438600000000  0.5017270000000  0.4921930000000 1.0
C      1  0.4624140000000  0.4299990000000  0.4444490000000 1.0
C      1  0.5094410000000  0.4544610000000  0.4866760000000 1.0
C      1  0.5114040000000  0.4463160000000  0.4238550000000 1.0
C      1  0.4961250000000  0.5871390000000  0.5129140000000 1.0
C      1  0.5130250000000  0.4760570000000  0.4265380000000 1.0
C      1  0.5555400000000  0.5154620000000  0.5143280000000 1.0
C      1  0.5028590000000  0.4121310000000  0.5072610000000 1.0
C      1  0.5378220000000  0.5391060000000  0.4070710000000 1.0
C      1  0.4575210000000  0.4176650000000  0.4935560000000 1.0
C      1  0.4526150000000  0.5125350000000  0.4817730000000 1.0
C      1  0.4378070000000  0.5652300000000  0.5183220000000 1.0
C      1  0.5653180000000  0.4502350000000  0.4663540000000 1.0
C      1  0.5610900000000  0.5616230000000  0.4753940000000 1.0
C      1  0.4813540000000  0.5221420000000  0.4182330000000 1.0
C      1  0.4424270000000  0.4977220000000  0.4578840000000 1.0
C      1  0.4376840000000  0.5154870000000  0.4346980000000 1.0
C      1  0.5393620000000  0.5153750000000  0.4084350000000 1.0
C      1  0.5407460000000  0.5457050000000  0.5466250000000 1.0
C      1  0.4458400000000  0.4569190000000  0.4758640000000 1.0
C      1  0.5103120000000  0.5307030000000  0.5045340000000 1.0
C      1  0.4805350000000  0.5422370000000  0.5022430000000 1.0
C      1  0.4390510000000  0.5261780000000  0.5656200000000 1.0
C      1  0.4463510000000  0.4434210000000  0.5443850000000 1.0
C      1  0.4812700000000  0.4431500000000  0.4260150000000 1.0
C      1  0.5032350000000  0.5679180000000  0.5533180000000 1.0
C      1  0.4994820000000  0.5019450000000  0.4951360000000 1.0
C      1  0.4898220000000  0.5149300000000  0.5944790000000 1.0
C      1  0.4421010000000  0.5848310000000  0.4821750000000 1.0
C      1  0.4350840000000  0.5383940000000  0.4515110000000 1.0
C      1  0.5271840000000  0.4139430000000  0.4741420000000 1.0
C      1  0.4798250000000  0.5714220000000  0.5034270000000 1.0
C      1  0.5211620000000  0.4871170000000  0.5068850000000 1.0
C      1  0.5307730000000  0.5255730000000  0.4833150000000 1.0
C      1  0.4468130000000  0.4554750000000  0.4460930000000 1.0
C      1  0.5114600000000  0.4953890000000  0.5958580000000 1.0
C      1  0.4665890000000  0.5092850000000  0.5734310000000 1.0
C      1  0.4983180000000  0.4910610000000  0.5469300000000 1.0
C      1  0.5321420000000  0.4354680000000  0.4392850000000 1.0
C      1  0.5137620000000  0.5835900000000  0.5304020000000 1.0
C      1  0.5593510000000  0.4742660000000  0.4524210000000 1.0
C      1  0.5793310000000  0.5492220000000  0.5341160000000 1.0
C      1  0.4700480000000  0.4267020000000  0.5411640000000 1.0
C      1  0.4990610000000  0.4833980000000  0.4505860000000 1.0
C      1  0.4994950000000  0.4143390000000  0.4788860000000 1.0
C      1  0.4769610000000  0.4924690000000  0.4150140000000 1.0
C      1  0.4833630000000  0.5432930000000  0.4378700000000 1.0
C      1  0.5222250000000  0.5241590000000  0.4562600000000 1.0
C      1  0.4580920000000  0.5555600000000  0.4465170000000 1.0
C      1  0.5370600000000  0.4168810000000  0.5429310000000 1.0
C      1  0.4371670000000  0.5164490000000  0.5324610000000 1.0
C      1  0.4536810000000  0.5409030000000  0.5264100000000 1.0
C      1  0.5640360000000  0.4608520000000  0.5163600000000 1.0
C      1  0.4564720000000  0.5851510000000  0.5075710000000 1.0
C      1  0.4573370000000  0.4558820000000  0.5766320000000 1.0
C      1  0.4119270000000  0.4770300000000  0.4882410000000 1.0
C      1  0.5812760000000  0.5403150000000  0.4857740000000 1.0
C      1  0.4854140000000  0.4510880000000  0.5797480000000 1.0
C      1  0.5308420000000  0.4183160000000  0.5152300000000 1.0
C      1  0.5916750000000  0.5332900000000  0.5127490000000 1.0
C      1  0.4977540000000  0.5088430000000  0.4652640000000 1.0
C      1  0.5321010000000  0.5163060000000  0.5898850000000 1.0
C      1  0.5129700000000  0.4602870000000  0.5129340000000 1.0
C      1  0.5804340000000  0.4566470000000  0.4915290000000 1.0
C      1  0.5611290000000  0.5484240000000  0.4495060000000 1.0
C      1  0.5551390000000  0.5134610000000  0.5722290000000 1.0
C      1  0.4611320000000  0.5815840000000  0.4599930000000 1.0
C      1  0.4112150000000  0.4980510000000  0.5242210000000 1.0
C      1  0.5093690000000  0.5353080000000  0.5861750000000 1.0
C      1  0.5115750000000  0.5536160000000  0.4457270000000 1.0
C      1  0.5356870000000  0.4644060000000  0.5690340000000 1.0
C      1  0.4102300000000  0.4697870000000  0.5147080000000 1.0
C      1  0.4265210000000  0.4454260000000  0.5214600000000 1.0
C      1  0.5137560000000  0.5758290000000  0.4675650000000 1.0
C      1  0.4271440000000  0.5621310000000  0.4917650000000 1.0
C      1  0.4529490000000  0.4819470000000  0.5669890000000 1.0
C      1  0.5419530000000  0.4819960000000  0.4300900000000 1.0
C      1  0.4906250000000  0.4300100000000  0.5608940000000 1.0
C      1  0.4178770000000  0.5208700000000  0.5092240000000 1.0
C      1  0.5312810000000  0.5240060000000  0.5285470000000 1.0
C      1  0.4762860000000  0.5649300000000  0.5568140000000 1.0
C      1  0.4516840000000  0.5536750000000  0.5552870000000 1.0
C      1  0.4712480000000  0.4158620000000  0.4682900000000 1.0
C      1  0.5366750000000  0.5812400000000  0.5144300000000 1.0
C      1  0.5716460000000  0.4817870000000  0.5342930000000 1.0
C      1  0.5549940000000  0.5647340000000  0.5299820000000 1.0
C      1  0.5662040000000  0.5369260000000  0.5589800000000 1.0
C      1  0.5817840000000  0.5081980000000  0.5259040000000 1.0
C      1  0.4765720000000  0.4173040000000  0.5158840000000 1.0
C      1  0.4890260000000  0.5915160000000  0.4652180000000 1.0
C      1  0.4923860000000  0.4611030000000  0.4675590000000 1.0
C      1  0.5913520000000  0.4806240000000  0.4814880000000 1.0
C      1  0.4754070000000  0.5289830000000  0.4760080000000 1.0
C      1  0.4745400000000  0.4893160000000  0.5015310000000 1.0
C      1  0.4265050000000  0.5337710000000  0.4820100000000 1.0
C      1  0.5181360000000  0.4210340000000  0.5612950000000 1.0
C      1  0.5791730000000  0.4952770000000  0.4616320000000 1.0
C      1  0.4713430000000  0.4674120000000  0.4841720000000 1.0
C      1  0.5395780000000  0.5096290000000  0.4348170000000 1.0
C      1  0.5503800000000  0.4872460000000  0.5557700000000 1.0
C      1  0.5377430000000  0.4470120000000  0.5143820000000 1.0
C      1  0.5375140000000  0.5757310000000  0.4851820000000 1.0
C      1  0.4665530000000  0.4679490000000  0.4274150000000 1.0
C      1  0.4532260000000  0.4720050000000  0.5392680000000 1.0
C      1  0.5782060000000  0.5261040000000  0.4609930000000 1.0
C      1  0.5491900000000  0.4245290000000  0.4587280000000 1.0
C      1  0.4195680000000  0.4802870000000  0.4627300000000 1.0
C      1  0.5386140000000  0.5547400000000  0.4305770000000 1.0
C      1  0.4799340000000  0.4772890000000  0.5278030000000 1.0
C      1  0.4871320000000  0.5171630000000  0.5529700000000 1.0
C      1  0.5079390000000  0.4724270000000  0.5760120000000 1.0
C      1  0.4565680000000  0.5120460000000  0.4135360000000 1.0
C      1  0.5242220000000  0.4967550000000  0.5357940000000 1.0
END
