TITL C-2441168-9922-1236 0.0345053668886971 125000 -18525.4802540479 0 0 125 (C1) n - 1
REM
REM in /home/bkarasulu/work/CARBON/AIRSS/Generating-Clusters/ReaxFF-fromJPCA2015/Units_Real/with-SteepDescent/Higher-Symm
REM
REM
REM
REM
REM
REM ./C.cell (1df0a924f5614ab8850e4351716899ee)
REM
REM compiler GCC version 9.2.1 20190827 (Red Hat 9.2.1-1)
REM options -cpp -mtune=generic -march=x86-64 -g -O0 -fpre-include=/usr/include/finclude/math-vector-fortran.h
REM seed -1002947332 -737003877 -785755614 1293376739 -54502338 2009216620 1003818510 -1421836823 888900454 -507122669 -1276174485 -1345033496 539481465 -1503207376 1320943127 -329106079 241515392 -1956167824 421568009 983751507 914456719 4292791 -230835034 -2110442841 470248060 -1040167126 -178997042 1529393259 1355762902 -1359512765 -1526979400 -2127002459 -1290689087
REM
CELL 1.54180   50.00000   50.00000   50.00000   90.00000   90.00000   90.00000
LATT -1
SFAC C  
C      1  0.5343960000000  0.4281040000000  0.5489100000000 1.0
C      1  0.5327410000000  0.4630540000000  0.5867140000000 1.0
C      1  0.5311650000000  0.5150620000000  0.5884420000000 1.0
C      1  0.5350650000000  0.5593140000000  0.5638350000000 1.0
C      1  0.5347780000000  0.5904180000000  0.5238870000000 1.0
C      1  0.5341090000000  0.5902840000000  0.4719560000000 1.0
C      1  0.5337620000000  0.5626000000000  0.4294740000000 1.0
C      1  0.5348600000000  0.5128610000000  0.4115350000000 1.0
C      1  0.5360950000000  0.4632820000000  0.4212310000000 1.0
C      1  0.5327330000000  0.4201240000000  0.4502100000000 1.0
C      1  0.5324340000000  0.4093060000000  0.5013720000000 1.0
C      1  0.4523050000000  0.5153060000000  0.5907830000000 1.0
C      1  0.4540750000000  0.5561660000000  0.5629950000000 1.0
C      1  0.4524190000000  0.5842870000000  0.5228380000000 1.0
C      1  0.4508470000000  0.5855860000000  0.4752740000000 1.0
C      1  0.4552720000000  0.5540390000000  0.4407680000000 1.0
C      1  0.4524610000000  0.5129430000000  0.4149720000000 1.0
C      1  0.4520490000000  0.4650000000000  0.4222060000000 1.0
C      1  0.4514990000000  0.4278700000000  0.4557610000000 1.0
C      1  0.4509550000000  0.4100850000000  0.5020350000000 1.0
C      1  0.4512650000000  0.4292130000000  0.5479100000000 1.0
C      1  0.4508770000000  0.4663080000000  0.5808940000000 1.0
C      1  0.4148260000000  0.4821990000000  0.4550690000000 1.0
C      1  0.4192970000000  0.4629010000000  0.4750400000000 1.0
C      1  0.4109240000000  0.4507250000000  0.4993760000000 1.0
C      1  0.4136760000000  0.4568520000000  0.5269280000000 1.0
C      1  0.4137200000000  0.4795620000000  0.5462020000000 1.0
C      1  0.4095770000000  0.5056980000000  0.5398980000000 1.0
C      1  0.4174650000000  0.5317310000000  0.5382000000000 1.0
C      1  0.4150980000000  0.5514020000000  0.5161270000000 1.0
C      1  0.4073610000000  0.5485550000000  0.4885630000000 1.0
C      1  0.4091740000000  0.5301730000000  0.4711710000000 1.0
C      1  0.4134290000000  0.5112520000000  0.4524250000000 1.0
C      1  0.4471900000000  0.5334460000000  0.5461630000000 1.0
C      1  0.4432960000000  0.5583370000000  0.5133330000000 1.0
C      1  0.4409960000000  0.5592770000000  0.4836240000000 1.0
C      1  0.4543520000000  0.5393580000000  0.4658820000000 1.0
C      1  0.4426850000000  0.5114480000000  0.4425080000000 1.0
C      1  0.4404870000000  0.4822480000000  0.4427420000000 1.0
C      1  0.4436310000000  0.4480060000000  0.4746800000000 1.0
C      1  0.4387680000000  0.4371800000000  0.5016900000000 1.0
C      1  0.4411240000000  0.4494260000000  0.5303610000000 1.0
C      1  0.4426040000000  0.4807240000000  0.5572440000000 1.0
C      1  0.4474740000000  0.5093180000000  0.5632970000000 1.0
C      1  0.5643830000000  0.4362490000000  0.5080310000000 1.0
C      1  0.5655640000000  0.4666830000000  0.5555370000000 1.0
C      1  0.5683930000000  0.4905170000000  0.5720910000000 1.0
C      1  0.5640150000000  0.5178150000000  0.5618430000000 1.0
C      1  0.5657870000000  0.5577060000000  0.5227700000000 1.0
C      1  0.5682400000000  0.5667200000000  0.4958510000000 1.0
C      1  0.5624540000000  0.5520490000000  0.4677110000000 1.0
C      1  0.5677330000000  0.5324230000000  0.4419480000000 1.0
C      1  0.5674120000000  0.5037470000000  0.4385430000000 1.0
C      1  0.5651590000000  0.4507470000000  0.4587950000000 1.0
C      1  0.5682740000000  0.4304880000000  0.4794940000000 1.0
C      1  0.5226480000000  0.5449700000000  0.5026560000000 1.0
C      1  0.5364550000000  0.5413970000000  0.4781040000000 1.0
C      1  0.5268630000000  0.5196140000000  0.4635310000000 1.0
C      1  0.5461770000000  0.4982430000000  0.4578980000000 1.0
C      1  0.5481970000000  0.4728620000000  0.4681280000000 1.0
C      1  0.5303700000000  0.4654360000000  0.4870080000000 1.0
C      1  0.5448860000000  0.4580170000000  0.5097540000000 1.0
C      1  0.5467660000000  0.4718780000000  0.5337200000000 1.0
C      1  0.5272320000000  0.4918090000000  0.5412660000000 1.0
C      1  0.5422420000000  0.5159710000000  0.5427070000000 1.0
C      1  0.5447140000000  0.5350480000000  0.5209580000000 1.0
C      1  0.5050910000000  0.5920630000000  0.4718170000000 1.0
C      1  0.5046730000000  0.5631800000000  0.4278770000000 1.0
C      1  0.5043970000000  0.5117190000000  0.4133760000000 1.0
C      1  0.5049060000000  0.4623880000000  0.4231930000000 1.0
C      1  0.5036730000000  0.4177580000000  0.4490310000000 1.0
C      1  0.5020380000000  0.4162680000000  0.5011090000000 1.0
C      1  0.5033840000000  0.4320790000000  0.5478180000000 1.0
C      1  0.5037210000000  0.4621920000000  0.5894000000000 1.0
C      1  0.5007860000000  0.5138500000000  0.5810010000000 1.0
C      1  0.5042290000000  0.5578060000000  0.5603420000000 1.0
C      1  0.5058410000000  0.5939450000000  0.5242850000000 1.0
C      1  0.4939950000000  0.4488580000000  0.5041040000000 1.0
C      1  0.4941520000000  0.4587260000000  0.5299120000000 1.0
C      1  0.4991730000000  0.4860840000000  0.5403210000000 1.0
C      1  0.4903180000000  0.5123730000000  0.5492630000000 1.0
C      1  0.4932670000000  0.5367040000000  0.5359060000000 1.0
C      1  0.4949930000000  0.5429880000000  0.5075820000000 1.0
C      1  0.4792720000000  0.5318150000000  0.4818830000000 1.0
C      1  0.4989290000000  0.5206720000000  0.4629810000000 1.0
C      1  0.4939580000000  0.4991050000000  0.4446180000000 1.0
C      1  0.4960550000000  0.4729380000000  0.4531660000000 1.0
C      1  0.5037450000000  0.4630810000000  0.4802290000000 1.0
C      1  0.4908010000000  0.4118640000000  0.5287100000000 1.0
C      1  0.4908750000000  0.4404220000000  0.5746670000000 1.0
C      1  0.4907300000000  0.4879080000000  0.5950200000000 1.0
C      1  0.4916220000000  0.5424560000000  0.5836440000000 1.0
C      1  0.4926140000000  0.5833950000000  0.5480770000000 1.0
C      1  0.4925130000000  0.5973640000000  0.4979700000000 1.0
C      1  0.4920090000000  0.5816010000000  0.4477220000000 1.0
C      1  0.4925380000000  0.5405280000000  0.4142080000000 1.0
C      1  0.4925840000000  0.4850910000000  0.4056350000000 1.0
C      1  0.4912550000000  0.4354330000000  0.4290740000000 1.0
C      1  0.4906300000000  0.4083620000000  0.4735310000000 1.0
C      1  0.5485760000000  0.5378180000000  0.4213670000000 1.0
C      1  0.5491790000000  0.4889170000000  0.4172960000000 1.0
C      1  0.5479230000000  0.4417980000000  0.4367540000000 1.0
C      1  0.5454500000000  0.4125000000000  0.4755010000000 1.0
C      1  0.5472700000000  0.4180930000000  0.5247820000000 1.0
C      1  0.5474210000000  0.4463720000000  0.5671070000000 1.0
C      1  0.5450770000000  0.4894390000000  0.5898690000000 1.0
C      1  0.5470830000000  0.5370150000000  0.5780070000000 1.0
C      1  0.5491400000000  0.5730160000000  0.5424830000000 1.0
C      1  0.5490780000000  0.5881900000000  0.4978960000000 1.0
C      1  0.5469990000000  0.5735680000000  0.4525160000000 1.0
C      1  0.4624080000000  0.4092790000000  0.5287280000000 1.0
C      1  0.4623860000000  0.4401610000000  0.5731300000000 1.0
C      1  0.4625240000000  0.4881900000000  0.5975300000000 1.0
C      1  0.4634810000000  0.5427780000000  0.5878240000000 1.0
C      1  0.4640690000000  0.5808780000000  0.5494250000000 1.0
C      1  0.4636050000000  0.5968590000000  0.4986680000000 1.0
C      1  0.4630290000000  0.5808750000000  0.4493980000000 1.0
C      1  0.4640110000000  0.5397680000000  0.4161700000000 1.0
C      1  0.4638340000000  0.4868360000000  0.4064350000000 1.0
C      1  0.4627250000000  0.4386000000000  0.4307690000000 1.0
C      1  0.4622300000000  0.4081410000000  0.4752020000000 1.0
C      1  0.5247810000000  0.5028520000000  0.5011960000000 1.0
C      1  0.4718930000000  0.5028290000000  0.4973110000000 1.0
C      1  0.4993740000000  0.5005200000000  0.4998090000000 1.0
C      1  0.5515580000000  0.5062910000000  0.5027540000000 1.0
END
