TITL C-2441167-4473-39 0.13276068869614 125000 -24782.8118961883 0 0 184 (C1) n - 1
REM
REM in /home/bkarasulu/work/CARBON/AIRSS/Generating-Clusters/ReaxFF-fromJPCA2015/Units_Real/with-SteepDescent/Higher-Symm
REM
REM
REM
REM
REM
REM ./C.cell (1df0a924f5614ab8850e4351716899ee)
REM
REM compiler GCC version 9.2.1 20190827 (Red Hat 9.2.1-1)
REM options -cpp -mtune=generic -march=x86-64 -g -O0 -fpre-include=/usr/include/finclude/math-vector-fortran.h
REM seed -1567789172 -506016772 -247981756 1554175312 867855339 -68109885 -634919504 -75904584 -1888595275 2068446226 -1875974232 -1149391424 1588989469 1158352269 -41554174 -698412132 1179925770 -1045776323 530753089 1416911879 -324480199 -697678476 79972085 1992772480 1790755882 -1952404424 -696921152 527124704 180449256 -422247035 611690599 2130979437 -270347017
REM
CELL 1.54180   50.00000   50.00000   50.00000   90.00000   90.00000   90.00000
LATT -1
SFAC C  
C      1  0.5861840000000  0.4680910000000  0.5047280000000 1.0
C      1  0.5110750000000  0.4107500000000  0.5171900000000 1.0
C      1  0.5100930000000  0.5542560000000  0.5314630000000 1.0
C      1  0.5083350000000  0.5128830000000  0.4917760000000 1.0
C      1  0.4037480000000  0.4783970000000  0.4458620000000 1.0
C      1  0.4716550000000  0.6077520000000  0.4997240000000 1.0
C      1  0.5377620000000  0.4169140000000  0.4724080000000 1.0
C      1  0.4703060000000  0.5807770000000  0.4290200000000 1.0
C      1  0.4836530000000  0.6038740000000  0.5263660000000 1.0
C      1  0.5892130000000  0.5337550000000  0.4966150000000 1.0
C      1  0.5703580000000  0.5761010000000  0.4798440000000 1.0
C      1  0.5849930000000  0.5067980000000  0.5617060000000 1.0
C      1  0.6205070000000  0.4911240000000  0.4855970000000 1.0
C      1  0.4085560000000  0.4821000000000  0.5476740000000 1.0
C      1  0.5498440000000  0.4807720000000  0.5736780000000 1.0
C      1  0.4427420000000  0.5000430000000  0.4141950000000 1.0
C      1  0.4922960000000  0.5516810000000  0.5090650000000 1.0
C      1  0.5886350000000  0.4413180000000  0.5135730000000 1.0
C      1  0.5471670000000  0.5427930000000  0.5254180000000 1.0
C      1  0.4412620000000  0.5947010000000  0.5034130000000 1.0
C      1  0.4256510000000  0.4616530000000  0.4362820000000 1.0
C      1  0.5479100000000  0.5038490000000  0.5877520000000 1.0
C      1  0.5031070000000  0.5012990000000  0.6097330000000 1.0
C      1  0.4684660000000  0.4654240000000  0.5532230000000 1.0
C      1  0.5848000000000  0.4291850000000  0.4885030000000 1.0
C      1  0.4605930000000  0.4722090000000  0.5297890000000 1.0
C      1  0.4952390000000  0.5720680000000  0.5488180000000 1.0
C      1  0.4982140000000  0.4079320000000  0.4336170000000 1.0
C      1  0.4654240000000  0.4699000000000  0.4032600000000 1.0
C      1  0.4053310000000  0.4469900000000  0.5074160000000 1.0
C      1  0.5028210000000  0.5864220000000  0.5725730000000 1.0
C      1  0.4585990000000  0.5434090000000  0.5344020000000 1.0
C      1  0.4373260000000  0.5429860000000  0.4331590000000 1.0
C      1  0.5506300000000  0.5108630000000  0.4802870000000 1.0
C      1  0.5350190000000  0.5034120000000  0.4179440000000 1.0
C      1  0.5455220000000  0.4180750000000  0.4407680000000 1.0
C      1  0.5471450000000  0.5830060000000  0.4973470000000 1.0
C      1  0.4514530000000  0.4211650000000  0.5558240000000 1.0
C      1  0.4468710000000  0.4709130000000  0.4543550000000 1.0
C      1  0.5699980000000  0.4820950000000  0.5515950000000 1.0
C      1  0.5714400000000  0.5651240000000  0.4370440000000 1.0
C      1  0.4667650000000  0.5082860000000  0.4796660000000 1.0
C      1  0.5210390000000  0.5961530000000  0.4968370000000 1.0
C      1  0.5220040000000  0.4227340000000  0.4251280000000 1.0
C      1  0.4547180000000  0.4282470000000  0.4721450000000 1.0
C      1  0.5025740000000  0.4563780000000  0.5305060000000 1.0
C      1  0.4823160000000  0.4237090000000  0.5701110000000 1.0
C      1  0.4917200000000  0.5459980000000  0.4635330000000 1.0
C      1  0.5838720000000  0.5087990000000  0.4247460000000 1.0
C      1  0.5888820000000  0.4404710000000  0.4610820000000 1.0
C      1  0.5135680000000  0.5280810000000  0.5427760000000 1.0
C      1  0.4814480000000  0.5703910000000  0.4705620000000 1.0
C      1  0.4811870000000  0.4343480000000  0.4839290000000 1.0
C      1  0.5258810000000  0.5020170000000  0.4734840000000 1.0
C      1  0.4147580000000  0.5175150000000  0.5257220000000 1.0
C      1  0.5342190000000  0.5860910000000  0.4473220000000 1.0
C      1  0.4851880000000  0.5066460000000  0.4405990000000 1.0
C      1  0.4926810000000  0.4718630000000  0.4567420000000 1.0
C      1  0.5185430000000  0.5413570000000  0.5870120000000 1.0
C      1  0.4327190000000  0.5012770000000  0.5077120000000 1.0
C      1  0.5390130000000  0.4746980000000  0.5093510000000 1.0
C      1  0.4645380000000  0.5163490000000  0.5426660000000 1.0
C      1  0.5944400000000  0.5232450000000  0.4479000000000 1.0
C      1  0.5437510000000  0.4479110000000  0.5186340000000 1.0
C      1  0.4836570000000  0.4452620000000  0.5496950000000 1.0
C      1  0.4434860000000  0.5181660000000  0.4877710000000 1.0
C      1  0.5587840000000  0.5897820000000  0.5234470000000 1.0
C      1  0.4966870000000  0.5919590000000  0.4814930000000 1.0
C      1  0.4777620000000  0.5574540000000  0.4130670000000 1.0
C      1  0.4687970000000  0.4772310000000  0.6124690000000 1.0
C      1  0.4478630000000  0.4696760000000  0.5962440000000 1.0
C      1  0.4291640000000  0.5271990000000  0.5740640000000 1.0
C      1  0.5189870000000  0.5760170000000  0.4246980000000 1.0
C      1  0.5078570000000  0.5355980000000  0.4415000000000 1.0
C      1  0.5108270000000  0.6005820000000  0.4569400000000 1.0
C      1  0.4668480000000  0.5101750000000  0.4011570000000 1.0
C      1  0.5993720000000  0.5172570000000  0.5185520000000 1.0
C      1  0.4734170000000  0.5251470000000  0.4587500000000 1.0
C      1  0.3980100000000  0.4730220000000  0.5200780000000 1.0
C      1  0.4942630000000  0.4876330000000  0.5720080000000 1.0
C      1  0.5090750000000  0.4464960000000  0.4112700000000 1.0
C      1  0.4386070000000  0.4702880000000  0.4114390000000 1.0
C      1  0.4819900000000  0.5729190000000  0.5878880000000 1.0
C      1  0.4549830000000  0.4154100000000  0.5283710000000 1.0
C      1  0.4295290000000  0.4197700000000  0.4830010000000 1.0
C      1  0.5953360000000  0.4644610000000  0.4485010000000 1.0
C      1  0.5028420000000  0.4424440000000  0.5872330000000 1.0
C      1  0.3965800000000  0.5343690000000  0.5097270000000 1.0
C      1  0.4076410000000  0.5077320000000  0.4457990000000 1.0
C      1  0.4582260000000  0.5753970000000  0.5709950000000 1.0
C      1  0.4616700000000  0.4906300000000  0.4388190000000 1.0
C      1  0.5726820000000  0.4522210000000  0.5559380000000 1.0
C      1  0.5918670000000  0.5257790000000  0.5425960000000 1.0
C      1  0.5137580000000  0.5186980000000  0.4043000000000 1.0
C      1  0.5592840000000  0.5204130000000  0.4156390000000 1.0
C      1  0.5406880000000  0.4646180000000  0.4588370000000 1.0
C      1  0.5127220000000  0.4719670000000  0.4005370000000 1.0
C      1  0.4297900000000  0.4394280000000  0.5501520000000 1.0
C      1  0.5717670000000  0.4952240000000  0.4736670000000 1.0
C      1  0.5390480000000  0.5181660000000  0.5369660000000 1.0
C      1  0.5518040000000  0.4523570000000  0.5754090000000 1.0
C      1  0.4514920000000  0.5997610000000  0.4777020000000 1.0
C      1  0.4504420000000  0.5113240000000  0.5861190000000 1.0
C      1  0.4337890000000  0.4543940000000  0.5026580000000 1.0
C      1  0.3989950000000  0.4658080000000  0.4713710000000 1.0
C      1  0.4650850000000  0.5490580000000  0.5074770000000 1.0
C      1  0.5382030000000  0.5588790000000  0.5755430000000 1.0
C      1  0.5226420000000  0.3988760000000  0.4929320000000 1.0
C      1  0.4967410000000  0.5930600000000  0.4318270000000 1.0
C      1  0.5622540000000  0.4723380000000  0.4878000000000 1.0
C      1  0.4882970000000  0.4051510000000  0.4848610000000 1.0
C      1  0.5495460000000  0.4920780000000  0.5295830000000 1.0
C      1  0.5485430000000  0.3987620000000  0.5108840000000 1.0
C      1  0.5735690000000  0.5490500000000  0.5426370000000 1.0
C      1  0.4722830000000  0.5059950000000  0.5683680000000 1.0
C      1  0.3920850000000  0.5145540000000  0.4889990000000 1.0
C      1  0.4135640000000  0.5103640000000  0.5541830000000 1.0
C      1  0.5344720000000  0.5399510000000  0.4523930000000 1.0
C      1  0.5077800000000  0.5405300000000  0.4885330000000 1.0
C      1  0.4954540000000  0.4703050000000  0.5972790000000 1.0
C      1  0.4254030000000  0.5744180000000  0.5167380000000 1.0
C      1  0.4912830000000  0.3950670000000  0.5302650000000 1.0
C      1  0.5197050000000  0.4839500000000  0.4515060000000 1.0
C      1  0.4125910000000  0.5560240000000  0.4984150000000 1.0
C      1  0.5683590000000  0.4348470000000  0.4389840000000 1.0
C      1  0.4700510000000  0.3942350000000  0.5087700000000 1.0
C      1  0.5634990000000  0.5474290000000  0.5708330000000 1.0
C      1  0.4572340000000  0.4982610000000  0.5228800000000 1.0
C      1  0.4763140000000  0.4791880000000  0.4824270000000 1.0
C      1  0.4942900000000  0.4988620000000  0.3988590000000 1.0
C      1  0.5680430000000  0.5208280000000  0.5797660000000 1.0
C      1  0.5850400000000  0.5480460000000  0.4538850000000 1.0
C      1  0.5281950000000  0.4100900000000  0.5579700000000 1.0
C      1  0.4352210000000  0.5561280000000  0.5699960000000 1.0
C      1  0.5817040000000  0.5724830000000  0.5248330000000 1.0
C      1  0.4603030000000  0.4129690000000  0.4486650000000 1.0
C      1  0.4806560000000  0.4475700000000  0.4112940000000 1.0
C      1  0.5237730000000  0.5144930000000  0.5945580000000 1.0
C      1  0.5352740000000  0.5492560000000  0.4795370000000 1.0
C      1  0.5845040000000  0.4796660000000  0.4284510000000 1.0
C      1  0.4589040000000  0.5803420000000  0.4563370000000 1.0
C      1  0.3938010000000  0.4854470000000  0.4942900000000 1.0
C      1  0.5891330000000  0.5634010000000  0.4987400000000 1.0
C      1  0.4835320000000  0.3967550000000  0.4567440000000 1.0
C      1  0.4998970000000  0.4027940000000  0.5563610000000 1.0
C      1  0.4469470000000  0.4713520000000  0.4833230000000 1.0
C      1  0.4780230000000  0.4282600000000  0.4327350000000 1.0
C      1  0.5309960000000  0.5853730000000  0.5667730000000 1.0
C      1  0.4338980000000  0.5579950000000  0.5409760000000 1.0
C      1  0.4477740000000  0.4674260000000  0.5722690000000 1.0
C      1  0.5617250000000  0.4126860000000  0.4896950000000 1.0
C      1  0.5247130000000  0.4429270000000  0.4690340000000 1.0
C      1  0.4999720000000  0.4956830000000  0.5100390000000 1.0
C      1  0.5133300000000  0.6036430000000  0.5234260000000 1.0
C      1  0.5580890000000  0.4625000000000  0.4295740000000 1.0
C      1  0.5201390000000  0.4353460000000  0.5248490000000 1.0
C      1  0.4263260000000  0.5464710000000  0.4601710000000 1.0
C      1  0.4597730000000  0.5361390000000  0.4136550000000 1.0
C      1  0.5611590000000  0.5825190000000  0.4540620000000 1.0
C      1  0.5094650000000  0.4807290000000  0.5494800000000 1.0
C      1  0.4926020000000  0.5472220000000  0.5957590000000 1.0
C      1  0.5544440000000  0.5349590000000  0.4974800000000 1.0
C      1  0.4974800000000  0.4451170000000  0.4630230000000 1.0
C      1  0.5491260000000  0.4076590000000  0.5379800000000 1.0
C      1  0.5391490000000  0.4756170000000  0.4088220000000 1.0
C      1  0.6063860000000  0.4890000000000  0.5108160000000 1.0
C      1  0.4696650000000  0.5853370000000  0.5447220000000 1.0
C      1  0.4621330000000  0.5063200000000  0.6125700000000 1.0
C      1  0.5277230000000  0.4347220000000  0.5767840000000 1.0
C      1  0.5017610000000  0.5038270000000  0.5354060000000 1.0
C      1  0.4210780000000  0.4626900000000  0.5664310000000 1.0
C      1  0.4852370000000  0.5235120000000  0.6113620000000 1.0
C      1  0.5521480000000  0.5450320000000  0.4296040000000 1.0
C      1  0.5072760000000  0.5484240000000  0.4145730000000 1.0
C      1  0.4416260000000  0.4536840000000  0.5268060000000 1.0
C      1  0.4249810000000  0.5186610000000  0.4272000000000 1.0
C      1  0.4423560000000  0.4062100000000  0.5050030000000 1.0
C      1  0.5968770000000  0.5100690000000  0.4742090000000 1.0
C      1  0.5362210000000  0.5971470000000  0.5405920000000 1.0
C      1  0.5675190000000  0.4351030000000  0.5334140000000 1.0
C      1  0.4047840000000  0.5272430000000  0.4657520000000 1.0
C      1  0.4409590000000  0.5485070000000  0.4872290000000 1.0
C      1  0.4052200000000  0.4376690000000  0.4800080000000 1.0
C      1  0.4975350000000  0.4680580000000  0.5019510000000 1.0
END
