TITL C-2441166-8118-720 0.145274733106187 125000 -20094.5700982895 0 0 158 (C1) n - 1
REM
REM in /home/bkarasulu/work/CARBON/AIRSS/Generating-Clusters/ReaxFF-fromJPCA2015/Units_Real/with-SteepDescent/Higher-Symm
REM
REM
REM
REM
REM
REM ./C.cell (1df0a924f5614ab8850e4351716899ee)
REM
REM compiler GCC version 9.2.1 20190827 (Red Hat 9.2.1-1)
REM options -cpp -mtune=generic -march=x86-64 -g -O0 -fpre-include=/usr/include/finclude/math-vector-fortran.h
REM seed -995020414 120774778 530407487 -2084877550 -1000367032 -1624458101 -285856424 -1371565017 1921585769 455672570 1602841429 254550526 2000983537 -242867020 -436968498 1936133501 -121350168 -1759837733 1584201988 2092536382 -839426673 661477610 -1537229419 -290596814 -906370972 226389761 -1646688168 111809913 889597082 -1558527563 -159816740 1196584061 185877331
REM
CELL 1.54180   50.00000   50.00000   50.00000   90.00000   90.00000   90.00000
LATT -1
SFAC C  
C      1  0.4452760000000  0.4793610000000  0.4706550000000 1.0
C      1  0.5542390000000  0.5230720000000  0.4694220000000 1.0
C      1  0.5556130000000  0.4751480000000  0.5306610000000 1.0
C      1  0.4452650000000  0.5301050000000  0.5353320000000 1.0
C      1  0.5118570000000  0.4374570000000  0.5662070000000 1.0
C      1  0.4885230000000  0.5614650000000  0.5646360000000 1.0
C      1  0.4864030000000  0.4392710000000  0.4353550000000 1.0
C      1  0.5136050000000  0.5631520000000  0.4355500000000 1.0
C      1  0.4741990000000  0.5012410000000  0.5100190000000 1.0
C      1  0.5220420000000  0.4948020000000  0.5094580000000 1.0
C      1  0.5192820000000  0.5110160000000  0.4869810000000 1.0
C      1  0.4834630000000  0.4862200000000  0.4875080000000 1.0
C      1  0.3995150000000  0.4871380000000  0.4774810000000 1.0
C      1  0.6008080000000  0.5102730000000  0.4768170000000 1.0
C      1  0.6051640000000  0.4898560000000  0.5241930000000 1.0
C      1  0.3998730000000  0.5158710000000  0.5272420000000 1.0
C      1  0.5081780000000  0.4230380000000  0.4443390000000 1.0
C      1  0.4902870000000  0.5766860000000  0.4464770000000 1.0
C      1  0.4903550000000  0.4229750000000  0.5536460000000 1.0
C      1  0.5080940000000  0.5760110000000  0.5489450000000 1.0
C      1  0.5331200000000  0.5676910000000  0.5599980000000 1.0
C      1  0.4626610000000  0.4291910000000  0.5615510000000 1.0
C      1  0.4645710000000  0.5682450000000  0.4360470000000 1.0
C      1  0.5338480000000  0.4308370000000  0.4349900000000 1.0
C      1  0.5494070000000  0.4044040000000  0.5331060000000 1.0
C      1  0.4531930000000  0.5989850000000  0.5352110000000 1.0
C      1  0.4509120000000  0.4059660000000  0.4719160000000 1.0
C      1  0.5492850000000  0.5944760000000  0.4735200000000 1.0
C      1  0.5794660000000  0.4798970000000  0.4454970000000 1.0
C      1  0.4164440000000  0.5214690000000  0.4435240000000 1.0
C      1  0.4223210000000  0.4796420000000  0.5493000000000 1.0
C      1  0.5796210000000  0.5209450000000  0.5541240000000 1.0
C      1  0.4720120000000  0.4813840000000  0.4054320000000 1.0
C      1  0.5292070000000  0.5223120000000  0.4063190000000 1.0
C      1  0.5255360000000  0.4819020000000  0.5948040000000 1.0
C      1  0.4763290000000  0.5175640000000  0.5938520000000 1.0
C      1  0.4028170000000  0.5428660000000  0.4818600000000 1.0
C      1  0.5965650000000  0.4574260000000  0.4834510000000 1.0
C      1  0.5952430000000  0.5456680000000  0.5206190000000 1.0
C      1  0.4053380000000  0.4507890000000  0.5194440000000 1.0
C      1  0.5146520000000  0.5216510000000  0.5492320000000 1.0
C      1  0.4916400000000  0.4823330000000  0.5497500000000 1.0
C      1  0.4932990000000  0.5149130000000  0.4482040000000 1.0
C      1  0.5191950000000  0.4766180000000  0.4516700000000 1.0
C      1  0.5746850000000  0.5416250000000  0.4573250000000 1.0
C      1  0.4264290000000  0.4587210000000  0.4573900000000 1.0
C      1  0.4237050000000  0.5469670000000  0.5493290000000 1.0
C      1  0.5778860000000  0.4561180000000  0.5411220000000 1.0
C      1  0.4885800000000  0.5208330000000  0.4173940000000 1.0
C      1  0.5136470000000  0.4755210000000  0.4052800000000 1.0
C      1  0.5162800000000  0.5268250000000  0.5980340000000 1.0
C      1  0.4885870000000  0.4781650000000  0.5800520000000 1.0
C      1  0.5723070000000  0.5589620000000  0.4799810000000 1.0
C      1  0.4295570000000  0.4419200000000  0.4805680000000 1.0
C      1  0.4273180000000  0.5587700000000  0.5108300000000 1.0
C      1  0.5727500000000  0.4388030000000  0.5185920000000 1.0
C      1  0.5120570000000  0.5683000000000  0.4802920000000 1.0
C      1  0.4859810000000  0.4323490000000  0.4804540000000 1.0
C      1  0.4768260000000  0.5612420000000  0.5187910000000 1.0
C      1  0.5191620000000  0.4286660000000  0.5202910000000 1.0
C      1  0.4579580000000  0.5850310000000  0.5552750000000 1.0
C      1  0.5441940000000  0.4170730000000  0.5542350000000 1.0
C      1  0.5429410000000  0.5866180000000  0.4506330000000 1.0
C      1  0.4565220000000  0.4153240000000  0.4495800000000 1.0
C      1  0.4357360000000  0.4279640000000  0.5491390000000 1.0
C      1  0.5600330000000  0.5723980000000  0.5503870000000 1.0
C      1  0.5596680000000  0.4300610000000  0.4471700000000 1.0
C      1  0.4375370000000  0.5739040000000  0.4434120000000 1.0
C      1  0.4190660000000  0.4297970000000  0.5049500000000 1.0
C      1  0.5825790000000  0.5686560000000  0.5062830000000 1.0
C      1  0.5839120000000  0.4327680000000  0.4917370000000 1.0
C      1  0.4188150000000  0.5676050000000  0.4847300000000 1.0
C      1  0.5396100000000  0.4778420000000  0.4126940000000 1.0
C      1  0.4598520000000  0.5237230000000  0.4178910000000 1.0
C      1  0.4603460000000  0.4756560000000  0.5831280000000 1.0
C      1  0.5416300000000  0.5219270000000  0.5848880000000 1.0
C      1  0.4832710000000  0.4616340000000  0.5307240000000 1.0
C      1  0.5181570000000  0.5369280000000  0.5255930000000 1.0
C      1  0.5198940000000  0.4623250000000  0.4748700000000 1.0
C      1  0.4840330000000  0.5329500000000  0.4682700000000 1.0
C      1  0.5944220000000  0.5213090000000  0.4507640000000 1.0
C      1  0.4058600000000  0.4781500000000  0.4505750000000 1.0
C      1  0.4062180000000  0.5218260000000  0.5547760000000 1.0
C      1  0.5955650000000  0.4781540000000  0.5496010000000 1.0
C      1  0.5786610000000  0.4955070000000  0.5675030000000 1.0
C      1  0.4207000000000  0.5007480000000  0.5686830000000 1.0
C      1  0.4187500000000  0.4966680000000  0.4317790000000 1.0
C      1  0.5811650000000  0.5039240000000  0.4319690000000 1.0
C      1  0.4571330000000  0.6002130000000  0.5100880000000 1.0
C      1  0.5462480000000  0.4015190000000  0.5057400000000 1.0
C      1  0.5508310000000  0.5963130000000  0.5018350000000 1.0
C      1  0.4502250000000  0.4027230000000  0.5006420000000 1.0
C      1  0.5718210000000  0.5471790000000  0.5550530000000 1.0
C      1  0.4175450000000  0.4513550000000  0.5460820000000 1.0
C      1  0.4300440000000  0.5459240000000  0.4346510000000 1.0
C      1  0.5660930000000  0.4561450000000  0.4367560000000 1.0
C      1  0.4905130000000  0.5860010000000  0.4739210000000 1.0
C      1  0.5036290000000  0.4120510000000  0.4708500000000 1.0
C      1  0.5030170000000  0.5880630000000  0.5234430000000 1.0
C      1  0.4972160000000  0.4099670000000  0.5287100000000 1.0
C      1  0.5497320000000  0.4922500000000  0.5783250000000 1.0
C      1  0.4490430000000  0.5032640000000  0.5803700000000 1.0
C      1  0.4485220000000  0.4957230000000  0.4202840000000 1.0
C      1  0.5516590000000  0.5058840000000  0.4182880000000 1.0
C      1  0.4561460000000  0.4535910000000  0.5709720000000 1.0
C      1  0.5329470000000  0.5386750000000  0.5630380000000 1.0
C      1  0.5371750000000  0.4610300000000  0.4342670000000 1.0
C      1  0.4569170000000  0.5401190000000  0.4388850000000 1.0
C      1  0.5829150000000  0.4858150000000  0.4747150000000 1.0
C      1  0.4119380000000  0.5155570000000  0.4723900000000 1.0
C      1  0.4179340000000  0.4923400000000  0.5219780000000 1.0
C      1  0.5882510000000  0.5157790000000  0.5222290000000 1.0
C      1  0.4634750000000  0.5944580000000  0.4835470000000 1.0
C      1  0.5271930000000  0.3987420000000  0.4848210000000 1.0
C      1  0.5218400000000  0.6047700000000  0.5105030000000 1.0
C      1  0.4762690000000  0.3964470000000  0.5119280000000 1.0
C      1  0.4407660000000  0.5095330000000  0.4823840000000 1.0
C      1  0.5583110000000  0.4983960000000  0.4841920000000 1.0
C      1  0.5508990000000  0.5030280000000  0.5117190000000 1.0
C      1  0.4456470000000  0.5086100000000  0.5114230000000 1.0
C      1  0.4690510000000  0.4388640000000  0.4579610000000 1.0
C      1  0.5298030000000  0.5627630000000  0.4581860000000 1.0
C      1  0.5312870000000  0.4416090000000  0.5464180000000 1.0
C      1  0.4692470000000  0.5616740000000  0.5464400000000 1.0
C      1  0.4039720000000  0.5385350000000  0.5101460000000 1.0
C      1  0.6011670000000  0.4673580000000  0.5083200000000 1.0
C      1  0.5981710000000  0.5288660000000  0.4978380000000 1.0
C      1  0.4037940000000  0.4748370000000  0.5026620000000 1.0
C      1  0.5482930000000  0.5458920000000  0.4890440000000 1.0
C      1  0.4515900000000  0.4577580000000  0.4903130000000 1.0
C      1  0.4541920000000  0.5520410000000  0.5012620000000 1.0
C      1  0.5519390000000  0.4560980000000  0.5107200000000 1.0
C      1  0.5037000000000  0.5402010000000  0.4870600000000 1.0
C      1  0.4962500000000  0.4585930000000  0.4900990000000 1.0
C      1  0.4957910000000  0.5425150000000  0.5120700000000 1.0
C      1  0.5054330000000  0.4533170000000  0.5156010000000 1.0
C      1  0.5113190000000  0.5426030000000  0.4136460000000 1.0
C      1  0.4896090000000  0.4602600000000  0.4148900000000 1.0
C      1  0.4912720000000  0.5397350000000  0.5857800000000 1.0
C      1  0.5104110000000  0.4590160000000  0.5871730000000 1.0
C      1  0.4799960000000  0.5051050000000  0.5388460000000 1.0
C      1  0.5177960000000  0.4932630000000  0.5416310000000 1.0
C      1  0.5211670000000  0.5050650000000  0.4559920000000 1.0
C      1  0.4820130000000  0.4899300000000  0.4585910000000 1.0
C      1  0.4384480000000  0.5833640000000  0.4704750000000 1.0
C      1  0.5587680000000  0.4270500000000  0.4761620000000 1.0
C      1  0.5575910000000  0.5744900000000  0.5201850000000 1.0
C      1  0.4432910000000  0.4277640000000  0.5214910000000 1.0
C      1  0.4586720000000  0.4556400000000  0.5174290000000 1.0
C      1  0.5453310000000  0.5348210000000  0.5152720000000 1.0
C      1  0.5438090000000  0.4508130000000  0.4846960000000 1.0
C      1  0.4573890000000  0.5343120000000  0.4774520000000 1.0
C      1  0.4588140000000  0.4805380000000  0.4445030000000 1.0
C      1  0.5426080000000  0.5202650000000  0.4445270000000 1.0
C      1  0.5381260000000  0.4764840000000  0.5517350000000 1.0
C      1  0.4594920000000  0.5161700000000  0.5552550000000 1.0
C      1  0.4957260000000  0.4981780000000  0.3991370000000 1.0
C      1  0.5012020000000  0.5011690000000  0.6025810000000 1.0
END
