TITL C-2441169-1362-28 0.129845530593798 125000 -24746.7109898445 0 0 190 (C1) n - 1
REM
REM in /home/bkarasulu/work/CARBON/AIRSS/Generating-Clusters/ReaxFF-fromJPCA2015/Units_Real/with-SteepDescent/Higher-Symm
REM
REM
REM
REM
REM
REM ./C.cell (1df0a924f5614ab8850e4351716899ee)
REM
REM compiler GCC version 9.2.1 20190827 (Red Hat 9.2.1-1)
REM options -cpp -mtune=generic -march=x86-64 -g -O0 -fpre-include=/usr/include/finclude/math-vector-fortran.h
REM seed -29003757 -775783078 1439508891 315494525 1238466060 1862002932 992960089 -360077839 412383618 -2045209206 -1890578415 1663881147 371347252 -1801827222 -2000685572 -962422670 -2027044456 -1881779183 -525844762 263872229 -373990245 -1865550845 1117235801 -1174781377 -2899321 106969442 1844917897 -1163707613 -1490451928 207061486 -1405302650 762469964 -39713710
REM
CELL 1.54180   50.00000   50.00000   50.00000   90.00000   90.00000   90.00000
LATT -1
SFAC C  
C      1  0.4422080000000  0.5623870000000  0.5576120000000 1.0
C      1  0.5553530000000  0.4410540000000  0.4482280000000 1.0
C      1  0.4858870000000  0.5721310000000  0.5694640000000 1.0
C      1  0.5049600000000  0.4209300000000  0.4438200000000 1.0
C      1  0.5344620000000  0.5326810000000  0.5676260000000 1.0
C      1  0.4649040000000  0.4692170000000  0.4315020000000 1.0
C      1  0.5387160000000  0.4949260000000  0.3958360000000 1.0
C      1  0.4619970000000  0.5069150000000  0.6048630000000 1.0
C      1  0.5579590000000  0.4909280000000  0.4202100000000 1.0
C      1  0.4423160000000  0.5121620000000  0.5818890000000 1.0
C      1  0.5093200000000  0.5491790000000  0.5023160000000 1.0
C      1  0.4947360000000  0.4472380000000  0.4952750000000 1.0
C      1  0.4767600000000  0.4823130000000  0.6112150000000 1.0
C      1  0.5226090000000  0.5187160000000  0.3907370000000 1.0
C      1  0.4589870000000  0.5464470000000  0.4153440000000 1.0
C      1  0.5460970000000  0.4499940000000  0.5855500000000 1.0
C      1  0.5803670000000  0.4677100000000  0.5452710000000 1.0
C      1  0.4134030000000  0.5309660000000  0.4610310000000 1.0
C      1  0.4961320000000  0.5644930000000  0.4810930000000 1.0
C      1  0.5072190000000  0.4356670000000  0.5180130000000 1.0
C      1  0.5620870000000  0.5886180000000  0.4669670000000 1.0
C      1  0.4385930000000  0.4177110000000  0.5293770000000 1.0
C      1  0.5337970000000  0.4182380000000  0.4427050000000 1.0
C      1  0.4610200000000  0.5844680000000  0.5618280000000 1.0
C      1  0.5165820000000  0.5994520000000  0.5259350000000 1.0
C      1  0.4798470000000  0.3926160000000  0.4698220000000 1.0
C      1  0.4874690000000  0.4822100000000  0.4749780000000 1.0
C      1  0.5124850000000  0.5150420000000  0.5241340000000 1.0
C      1  0.5903130000000  0.5343790000000  0.5246230000000 1.0
C      1  0.4083350000000  0.4680660000000  0.4585460000000 1.0
C      1  0.4983300000000  0.4417980000000  0.4037130000000 1.0
C      1  0.4942550000000  0.5470800000000  0.6018490000000 1.0
C      1  0.5350210000000  0.3975820000000  0.4620030000000 1.0
C      1  0.4617750000000  0.6008200000000  0.5382930000000 1.0
C      1  0.5797800000000  0.5072680000000  0.5151610000000 1.0
C      1  0.4238090000000  0.4942980000000  0.4963720000000 1.0
C      1  0.4765730000000  0.5273670000000  0.4894260000000 1.0
C      1  0.5217430000000  0.4744240000000  0.5129800000000 1.0
C      1  0.4753820000000  0.4226440000000  0.5635080000000 1.0
C      1  0.5254000000000  0.5750480000000  0.4375220000000 1.0
C      1  0.4071120000000  0.5654960000000  0.4981960000000 1.0
C      1  0.5847850000000  0.4429200000000  0.4984740000000 1.0
C      1  0.5631520000000  0.4626050000000  0.4254720000000 1.0
C      1  0.4353560000000  0.5406780000000  0.5772690000000 1.0
C      1  0.6035310000000  0.4829210000000  0.4825020000000 1.0
C      1  0.3967780000000  0.5189500000000  0.5139880000000 1.0
C      1  0.4156030000000  0.4459870000000  0.4757340000000 1.0
C      1  0.5741000000000  0.5523090000000  0.5407690000000 1.0
C      1  0.5340350000000  0.4024480000000  0.5484310000000 1.0
C      1  0.4651240000000  0.6016090000000  0.4547110000000 1.0
C      1  0.5569820000000  0.4580600000000  0.5029090000000 1.0
C      1  0.4400360000000  0.5405840000000  0.4962980000000 1.0
C      1  0.5254230000000  0.5151810000000  0.6134660000000 1.0
C      1  0.4792650000000  0.4872990000000  0.3859750000000 1.0
C      1  0.4604650000000  0.4323930000000  0.4562790000000 1.0
C      1  0.5321530000000  0.5764520000000  0.5386170000000 1.0
C      1  0.4052650000000  0.5358940000000  0.4904420000000 1.0
C      1  0.6031950000000  0.4656260000000  0.5047630000000 1.0
C      1  0.5120020000000  0.4840650000000  0.5901350000000 1.0
C      1  0.4862660000000  0.5163000000000  0.4148390000000 1.0
C      1  0.4515840000000  0.5185470000000  0.5366030000000 1.0
C      1  0.5565640000000  0.4887750000000  0.4668990000000 1.0
C      1  0.4442960000000  0.5595420000000  0.4325790000000 1.0
C      1  0.5528740000000  0.4323520000000  0.5646530000000 1.0
C      1  0.4242710000000  0.4860630000000  0.4318480000000 1.0
C      1  0.5732640000000  0.5064650000000  0.5675040000000 1.0
C      1  0.5816710000000  0.4702630000000  0.4668730000000 1.0
C      1  0.4077880000000  0.5389260000000  0.5334140000000 1.0
C      1  0.5325400000000  0.5272130000000  0.4612430000000 1.0
C      1  0.4743370000000  0.4693160000000  0.5399670000000 1.0
C      1  0.5409490000000  0.5715720000000  0.4796270000000 1.0
C      1  0.4601290000000  0.4346360000000  0.5172340000000 1.0
C      1  0.5978490000000  0.4831790000000  0.5288090000000 1.0
C      1  0.3963480000000  0.4930700000000  0.4602480000000 1.0
C      1  0.4405070000000  0.5983830000000  0.4744530000000 1.0
C      1  0.5595720000000  0.4053410000000  0.5260010000000 1.0
C      1  0.4938050000000  0.4746870000000  0.5046110000000 1.0
C      1  0.5035330000000  0.5208330000000  0.4959800000000 1.0
C      1  0.5849950000000  0.4984360000000  0.4317570000000 1.0
C      1  0.4183620000000  0.5029930000000  0.5665500000000 1.0
C      1  0.4071980000000  0.5107450000000  0.4415820000000 1.0
C      1  0.5920210000000  0.4864930000000  0.5593920000000 1.0
C      1  0.4883610000000  0.5253360000000  0.5642770000000 1.0
C      1  0.5135180000000  0.4742730000000  0.4335400000000 1.0
C      1  0.5743270000000  0.4407120000000  0.5475870000000 1.0
C      1  0.4241740000000  0.5569060000000  0.4521050000000 1.0
C      1  0.5592600000000  0.3991280000000  0.4998830000000 1.0
C      1  0.4412700000000  0.6009280000000  0.5023510000000 1.0
C      1  0.5638550000000  0.4051310000000  0.4734780000000 1.0
C      1  0.4352240000000  0.5922190000000  0.5271480000000 1.0
C      1  0.4598000000000  0.4710680000000  0.5658950000000 1.0
C      1  0.5460790000000  0.5293880000000  0.4343470000000 1.0
C      1  0.4330260000000  0.4731990000000  0.4053020000000 1.0
C      1  0.5680580000000  0.5237950000000  0.5898660000000 1.0
C      1  0.4824190000000  0.6074370000000  0.4781530000000 1.0
C      1  0.5136220000000  0.3958680000000  0.5266090000000 1.0
C      1  0.5148920000000  0.4433650000000  0.5765250000000 1.0
C      1  0.4823610000000  0.5660460000000  0.4161960000000 1.0
C      1  0.4580570000000  0.3951070000000  0.5124330000000 1.0
C      1  0.5517040000000  0.6087940000000  0.4876170000000 1.0
C      1  0.4559940000000  0.5163130000000  0.4976400000000 1.0
C      1  0.5425840000000  0.4848840000000  0.5036970000000 1.0
C      1  0.5501380000000  0.5315880000000  0.4912800000000 1.0
C      1  0.4530790000000  0.4739140000000  0.5222320000000 1.0
C      1  0.4791270000000  0.5824740000000  0.4996530000000 1.0
C      1  0.5192850000000  0.4144740000000  0.5036900000000 1.0
C      1  0.5022590000000  0.4994110000000  0.4317790000000 1.0
C      1  0.4931240000000  0.4965540000000  0.5702360000000 1.0
C      1  0.4525830000000  0.5477610000000  0.5348890000000 1.0
C      1  0.5361100000000  0.4557530000000  0.4669220000000 1.0
C      1  0.5180560000000  0.4639120000000  0.5527350000000 1.0
C      1  0.4783130000000  0.5303570000000  0.4511580000000 1.0
C      1  0.4363490000000  0.4953460000000  0.5239790000000 1.0
C      1  0.5687290000000  0.5095920000000  0.4870890000000 1.0
C      1  0.4893390000000  0.5057350000000  0.4553860000000 1.0
C      1  0.5120760000000  0.4908760000000  0.5487860000000 1.0
C      1  0.5307330000000  0.5006580000000  0.4748020000000 1.0
C      1  0.4736750000000  0.5078700000000  0.5240210000000 1.0
C      1  0.5603730000000  0.5587360000000  0.4959630000000 1.0
C      1  0.4519530000000  0.4563340000000  0.5005680000000 1.0
C      1  0.5238400000000  0.4559340000000  0.4124100000000 1.0
C      1  0.4753470000000  0.5466950000000  0.5789850000000 1.0
C      1  0.5081630000000  0.5592130000000  0.5294020000000 1.0
C      1  0.4907330000000  0.4370060000000  0.4671540000000 1.0
C      1  0.4544130000000  0.4009850000000  0.4835020000000 1.0
C      1  0.5593340000000  0.6041720000000  0.5143330000000 1.0
C      1  0.5082670000000  0.3900290000000  0.4728890000000 1.0
C      1  0.4879860000000  0.5968970000000  0.5237700000000 1.0
C      1  0.5183500000000  0.4756860000000  0.3922840000000 1.0
C      1  0.4841350000000  0.5227630000000  0.6138840000000 1.0
C      1  0.4074430000000  0.4550540000000  0.5010850000000 1.0
C      1  0.6013100000000  0.5371530000000  0.4971100000000 1.0
C      1  0.5889140000000  0.4697210000000  0.4380110000000 1.0
C      1  0.4109740000000  0.5306310000000  0.5616540000000 1.0
C      1  0.5162240000000  0.4161810000000  0.5654060000000 1.0
C      1  0.4758280000000  0.5855050000000  0.4351850000000 1.0
C      1  0.5457130000000  0.5073550000000  0.5568590000000 1.0
C      1  0.4509180000000  0.4937450000000  0.4401860000000 1.0
C      1  0.5045740000000  0.4926740000000  0.6170070000000 1.0
C      1  0.4943030000000  0.5128330000000  0.3872150000000 1.0
C      1  0.4164030000000  0.5666130000000  0.5257610000000 1.0
C      1  0.5762450000000  0.4310460000000  0.4689700000000 1.0
C      1  0.4853190000000  0.3899870000000  0.5217650000000 1.0
C      1  0.5087830000000  0.6137400000000  0.4763310000000 1.0
C      1  0.5224190000000  0.5972010000000  0.4955690000000 1.0
C      1  0.4936970000000  0.4059890000000  0.4930610000000 1.0
C      1  0.5133110000000  0.5740240000000  0.5770720000000 1.0
C      1  0.4865570000000  0.4214460000000  0.4210270000000 1.0
C      1  0.4468380000000  0.4234830000000  0.5580970000000 1.0
C      1  0.5543800000000  0.5785750000000  0.4406140000000 1.0
C      1  0.5402440000000  0.5739820000000  0.5695860000000 1.0
C      1  0.4582580000000  0.4262270000000  0.4276770000000 1.0
C      1  0.4379560000000  0.4505010000000  0.5635810000000 1.0
C      1  0.5652360000000  0.5514550000000  0.4363830000000 1.0
C      1  0.5078140000000  0.4637080000000  0.4593050000000 1.0
C      1  0.4995930000000  0.5345330000000  0.5406110000000 1.0
C      1  0.4604670000000  0.4704910000000  0.4774290000000 1.0
C      1  0.5383870000000  0.5272290000000  0.5176270000000 1.0
C      1  0.5507090000000  0.5043990000000  0.6029570000000 1.0
C      1  0.4516660000000  0.4929530000000  0.3947660000000 1.0
C      1  0.3998700000000  0.4882660000000  0.5115380000000 1.0
C      1  0.6071420000000  0.5130490000000  0.4787450000000 1.0
C      1  0.5599330000000  0.5491420000000  0.5685390000000 1.0
C      1  0.4440700000000  0.4512740000000  0.4220210000000 1.0
C      1  0.5208760000000  0.5593640000000  0.4625020000000 1.0
C      1  0.4812670000000  0.4396720000000  0.5373880000000 1.0
C      1  0.5284730000000  0.4528220000000  0.5296830000000 1.0
C      1  0.4724280000000  0.5486970000000  0.4703030000000 1.0
C      1  0.4215080000000  0.5762840000000  0.4744490000000 1.0
C      1  0.5790950000000  0.4257480000000  0.5235300000000 1.0
C      1  0.5877160000000  0.5569680000000  0.4815070000000 1.0
C      1  0.4147690000000  0.4388150000000  0.5228510000000 1.0
C      1  0.4382340000000  0.4244080000000  0.4723710000000 1.0
C      1  0.5597420000000  0.5719410000000  0.5243080000000 1.0
C      1  0.4559790000000  0.5139360000000  0.4162190000000 1.0
C      1  0.5406760000000  0.4787070000000  0.5895840000000 1.0
C      1  0.5276650000000  0.5371550000000  0.4125290000000 1.0
C      1  0.4719480000000  0.4616600000000  0.5911460000000 1.0
C      1  0.4147800000000  0.4556010000000  0.5464980000000 1.0
C      1  0.5874020000000  0.5455330000000  0.4543790000000 1.0
C      1  0.4816430000000  0.4661690000000  0.4067140000000 1.0
C      1  0.5216840000000  0.5372370000000  0.5949130000000 1.0
C      1  0.5381480000000  0.4397840000000  0.4909810000000 1.0
C      1  0.4569580000000  0.5598240000000  0.5087740000000 1.0
C      1  0.5961440000000  0.5178070000000  0.4517390000000 1.0
C      1  0.4105130000000  0.4847240000000  0.5432180000000 1.0
C      1  0.4434460000000  0.4937270000000  0.4741090000000 1.0
C      1  0.5522670000000  0.5038970000000  0.5270020000000 1.0
C      1  0.5124230000000  0.5614300000000  0.4158010000000 1.0
C      1  0.4861950000000  0.4365110000000  0.5865950000000 1.0
END
