TITL C-2441168-9922-239 0.0608681760972733 125000 -17590.9290265959 0 0 128 (C1) n - 1
REM
REM in /home/bkarasulu/work/CARBON/AIRSS/Generating-Clusters/ReaxFF-fromJPCA2015/Units_Real/with-SteepDescent/Higher-Symm
REM
REM
REM
REM
REM
REM ./C.cell (1df0a924f5614ab8850e4351716899ee)
REM
REM compiler GCC version 9.2.1 20190827 (Red Hat 9.2.1-1)
REM options -cpp -mtune=generic -march=x86-64 -g -O0 -fpre-include=/usr/include/finclude/math-vector-fortran.h
REM seed 1880296682 1566701752 1881785221 350775876 1469616180 -1337533970 2117437528 -959719948 1815588249 -9452408 829864394 2119886783 -1084301006 1951750507 -2101174783 -162367596 -1651119035 -804415415 484143539 454739909 -653495598 1638628629 1475519789 -852793084 453906782 -511239469 -1659885456 -327103954 72608569 145074653 -387479153 -1971438422 1048169718
REM
CELL 1.54180   50.00000   50.00000   50.00000   90.00000   90.00000   90.00000
LATT -1
SFAC C  
C      1  0.4850250000000  0.5017810000000  0.4927330000000 1.0
C      1  0.5105620000000  0.5018360000000  0.5065690000000 1.0
C      1  0.5179830000000  0.5211930000000  0.4593120000000 1.0
C      1  0.4827650000000  0.5209980000000  0.5411180000000 1.0
C      1  0.5075220000000  0.5369370000000  0.4371800000000 1.0
C      1  0.4934020000000  0.5366640000000  0.5638180000000 1.0
C      1  0.4294090000000  0.4925190000000  0.4868090000000 1.0
C      1  0.5720330000000  0.4929100000000  0.5140440000000 1.0
C      1  0.5046240000000  0.5786420000000  0.4664310000000 1.0
C      1  0.4952970000000  0.5800160000000  0.5342950000000 1.0
C      1  0.4692500000000  0.4873700000000  0.5124050000000 1.0
C      1  0.5335950000000  0.4932720000000  0.4905540000000 1.0
C      1  0.5483560000000  0.5687290000000  0.5449460000000 1.0
C      1  0.4535700000000  0.5674810000000  0.4512120000000 1.0
C      1  0.5000190000000  0.4120890000000  0.5364350000000 1.0
C      1  0.5005430000000  0.4129750000000  0.4634550000000 1.0
C      1  0.5638000000000  0.4542170000000  0.4702700000000 1.0
C      1  0.4357610000000  0.4543160000000  0.5298000000000 1.0
C      1  0.5022500000000  0.5241580000000  0.4107080000000 1.0
C      1  0.4987080000000  0.5227140000000  0.5889970000000 1.0
C      1  0.4299940000000  0.5461870000000  0.5312370000000 1.0
C      1  0.5704510000000  0.5460430000000  0.4680050000000 1.0
C      1  0.5965730000000  0.5080340000000  0.5210200000000 1.0
C      1  0.4036610000000  0.5059960000000  0.4796180000000 1.0
C      1  0.4547000000000  0.5206260000000  0.4621260000000 1.0
C      1  0.5428310000000  0.5195410000000  0.5370170000000 1.0
C      1  0.4915360000000  0.4824780000000  0.4719250000000 1.0
C      1  0.5128680000000  0.4789710000000  0.5261410000000 1.0
C      1  0.5183930000000  0.5002510000000  0.4087720000000 1.0
C      1  0.4814130000000  0.4995370000000  0.5915230000000 1.0
C      1  0.4320090000000  0.5275750000000  0.5509690000000 1.0
C      1  0.5682800000000  0.5274280000000  0.4486070000000 1.0
C      1  0.4439410000000  0.4610180000000  0.5567020000000 1.0
C      1  0.5553900000000  0.4606810000000  0.4431220000000 1.0
C      1  0.5238560000000  0.5838860000000  0.4884140000000 1.0
C      1  0.4764890000000  0.5843430000000  0.5119570000000 1.0
C      1  0.5418450000000  0.4934690000000  0.5952470000000 1.0
C      1  0.4673090000000  0.4889070000000  0.4057100000000 1.0
C      1  0.5569750000000  0.5697580000000  0.4610070000000 1.0
C      1  0.4434840000000  0.5696650000000  0.5393100000000 1.0
C      1  0.4624720000000  0.4976770000000  0.4460770000000 1.0
C      1  0.5348350000000  0.4980820000000  0.5546920000000 1.0
C      1  0.5082550000000  0.4883000000000  0.5545850000000 1.0
C      1  0.4894830000000  0.4896970000000  0.4448810000000 1.0
C      1  0.5444150000000  0.5064080000000  0.4187340000000 1.0
C      1  0.4550170000000  0.5066390000000  0.5814690000000 1.0
C      1  0.4722250000000  0.4402180000000  0.4285800000000 1.0
C      1  0.5271380000000  0.4406350000000  0.5718260000000 1.0
C      1  0.4742400000000  0.5566780000000  0.4998460000000 1.0
C      1  0.5246600000000  0.5565000000000  0.5005490000000 1.0
C      1  0.5498880000000  0.5341790000000  0.4288850000000 1.0
C      1  0.4503280000000  0.5343360000000  0.5713660000000 1.0
C      1  0.4216900000000  0.4880630000000  0.4454800000000 1.0
C      1  0.5779630000000  0.4887810000000  0.5535000000000 1.0
C      1  0.5833130000000  0.5158630000000  0.5465750000000 1.0
C      1  0.4150090000000  0.5142220000000  0.4538790000000 1.0
C      1  0.5117200000000  0.4089720000000  0.5098460000000 1.0
C      1  0.4885120000000  0.4092080000000  0.4899560000000 1.0
C      1  0.5094250000000  0.5562100000000  0.5243160000000 1.0
C      1  0.4910720000000  0.5549040000000  0.4764490000000 1.0
C      1  0.5418690000000  0.4613090000000  0.4913620000000 1.0
C      1  0.4570550000000  0.4619430000000  0.5071840000000 1.0
C      1  0.5119060000000  0.5354880000000  0.4846180000000 1.0
C      1  0.4874180000000  0.5381770000000  0.5183230000000 1.0
C      1  0.5333890000000  0.4964210000000  0.4607910000000 1.0
C      1  0.4673780000000  0.4957530000000  0.5394130000000 1.0
C      1  0.4904250000000  0.5672400000000  0.5607530000000 1.0
C      1  0.5102960000000  0.5674640000000  0.4394410000000 1.0
C      1  0.5972160000000  0.5144910000000  0.4921350000000 1.0
C      1  0.4039690000000  0.5152720000000  0.5079870000000 1.0
C      1  0.5278480000000  0.4171530000000  0.4713520000000 1.0
C      1  0.4723480000000  0.4158410000000  0.5288900000000 1.0
C      1  0.5676870000000  0.5001300000000  0.4550380000000 1.0
C      1  0.4322470000000  0.5001640000000  0.5447210000000 1.0
C      1  0.5709910000000  0.5579550000000  0.5142020000000 1.0
C      1  0.4267220000000  0.5567450000000  0.4806740000000 1.0
C      1  0.4375650000000  0.4248910000000  0.4886300000000 1.0
C      1  0.5616910000000  0.4260520000000  0.5122290000000 1.0
C      1  0.4778760000000  0.4464300000000  0.5288070000000 1.0
C      1  0.5221080000000  0.4485060000000  0.4730540000000 1.0
C      1  0.5880430000000  0.4632780000000  0.4831740000000 1.0
C      1  0.4118190000000  0.4633260000000  0.5166710000000 1.0
C      1  0.4878900000000  0.4509510000000  0.5735570000000 1.0
C      1  0.5103800000000  0.4537690000000  0.4275060000000 1.0
C      1  0.5561460000000  0.4783910000000  0.5707530000000 1.0
C      1  0.4447950000000  0.4778580000000  0.4302990000000 1.0
C      1  0.4660870000000  0.5423450000000  0.4215980000000 1.0
C      1  0.5403000000000  0.5433150000000  0.5772240000000 1.0
C      1  0.4269940000000  0.5355310000000  0.5042870000000 1.0
C      1  0.5745330000000  0.5360640000000  0.4954510000000 1.0
C      1  0.4184910000000  0.4468730000000  0.4926800000000 1.0
C      1  0.5811530000000  0.4475340000000  0.5075410000000 1.0
C      1  0.5695600000000  0.4685210000000  0.5275360000000 1.0
C      1  0.4300190000000  0.4680310000000  0.4720480000000 1.0
C      1  0.5516290000000  0.5129450000000  0.5091090000000 1.0
C      1  0.4481500000000  0.5144350000000  0.4899050000000 1.0
C      1  0.4720080000000  0.4619690000000  0.5523570000000 1.0
C      1  0.5272510000000  0.4639330000000  0.4481430000000 1.0
C      1  0.4731180000000  0.5193620000000  0.4071630000000 1.0
C      1  0.5284040000000  0.5190260000000  0.5917520000000 1.0
C      1  0.5582060000000  0.5812520000000  0.5138530000000 1.0
C      1  0.4427280000000  0.5792750000000  0.4875060000000 1.0
C      1  0.4753450000000  0.5649820000000  0.4339310000000 1.0
C      1  0.5267780000000  0.5646610000000  0.5633470000000 1.0
C      1  0.4989510000000  0.4572220000000  0.5131440000000 1.0
C      1  0.4961180000000  0.4568930000000  0.4845760000000 1.0
C      1  0.5893120000000  0.4920580000000  0.4760770000000 1.0
C      1  0.4111700000000  0.4922730000000  0.5238080000000 1.0
C      1  0.4476810000000  0.5870670000000  0.5150900000000 1.0
C      1  0.5524840000000  0.5872010000000  0.4849590000000 1.0
C      1  0.5592250000000  0.5401910000000  0.5531990000000 1.0
C      1  0.4352380000000  0.5446960000000  0.4542460000000 1.0
C      1  0.4984580000000  0.4790450000000  0.4184120000000 1.0
C      1  0.4972330000000  0.4779260000000  0.5788880000000 1.0
C      1  0.4382320000000  0.4860460000000  0.5695920000000 1.0
C      1  0.5614670000000  0.4855640000000  0.4302730000000 1.0
C      1  0.5385680000000  0.4126660000000  0.4979820000000 1.0
C      1  0.4616510000000  0.4123350000000  0.5020080000000 1.0
C      1  0.4599310000000  0.5607940000000  0.5619370000000 1.0
C      1  0.5410450000000  0.5605530000000  0.4379230000000 1.0
C      1  0.5043660000000  0.4292820000000  0.5613860000000 1.0
C      1  0.4961020000000  0.4303990000000  0.4383250000000 1.0
C      1  0.5523010000000  0.4470490000000  0.5633890000000 1.0
C      1  0.4470410000000  0.4465530000000  0.4371050000000 1.0
C      1  0.4513770000000  0.4337740000000  0.4638000000000 1.0
C      1  0.5476870000000  0.4354910000000  0.5364130000000 1.0
C      1  0.4569800000000  0.4587330000000  0.4779890000000 1.0
C      1  0.5414210000000  0.4603550000000  0.5214720000000 1.0
END
