TITL C-2441161-5029-796 0.138170683289207 125000 -22768.2366903441 0 0 174 (C1) n - 1
REM
REM in /home/bkarasulu/work/CARBON/AIRSS/Generating-Clusters/ReaxFF-fromJPCA2015/Units_Real/with-SteepDescent/Higher-Symm
REM
REM
REM
REM
REM
REM ./C.cell (1df0a924f5614ab8850e4351716899ee)
REM
REM compiler GCC version 9.2.1 20190827 (Red Hat 9.2.1-1)
REM options -cpp -mtune=generic -march=x86-64 -g -O0 -fpre-include=/usr/include/finclude/math-vector-fortran.h
REM seed 1004472828 1590983248 744344313 1988181251 -1541417947 177573696 643621548 1393125073 1697945669 1323746989 -1538468924 1715067337 -348308866 1080421673 603323079 2060255281 -1605371791 -1968139272 1230011931 -837800178 -1556387920 -2023590120 615804240 -117967878 -154467398 849304424 162185995 291134454 -177796965 -1446756459 -1012501419 881452421 -484697323
REM
CELL 1.54180   50.00000   50.00000   50.00000   90.00000   90.00000   90.00000
LATT -1
SFAC C  
C      1  0.5017050000000  0.5333890000000  0.4782090000000 1.0
C      1  0.5345910000000  0.5240210000000  0.4682870000000 1.0
C      1  0.5358460000000  0.4948560000000  0.4759260000000 1.0
C      1  0.5134860000000  0.4736050000000  0.4694400000000 1.0
C      1  0.4853810000000  0.4715380000000  0.4772290000000 1.0
C      1  0.4726960000000  0.4978830000000  0.4813940000000 1.0
C      1  0.4746030000000  0.5280570000000  0.4660340000000 1.0
C      1  0.5583650000000  0.4367390000000  0.5484130000000 1.0
C      1  0.4906890000000  0.4146970000000  0.5527250000000 1.0
C      1  0.4259100000000  0.4571210000000  0.5449380000000 1.0
C      1  0.4225810000000  0.5302950000000  0.5447650000000 1.0
C      1  0.4729050000000  0.5815570000000  0.5473710000000 1.0
C      1  0.5487460000000  0.5652630000000  0.5417550000000 1.0
C      1  0.5821330000000  0.5048490000000  0.5463140000000 1.0
C      1  0.5604370000000  0.5342200000000  0.4817110000000 1.0
C      1  0.5652870000000  0.4742780000000  0.4761210000000 1.0
C      1  0.5241790000000  0.4474590000000  0.4763790000000 1.0
C      1  0.4592510000000  0.4443640000000  0.4745350000000 1.0
C      1  0.4281280000000  0.4914990000000  0.4887920000000 1.0
C      1  0.4484640000000  0.5439060000000  0.4825550000000 1.0
C      1  0.5096190000000  0.5769090000000  0.4805670000000 1.0
C      1  0.4685070000000  0.5934320000000  0.4595570000000 1.0
C      1  0.5570700000000  0.5812770000000  0.4571260000000 1.0
C      1  0.6023190000000  0.5042850000000  0.4579290000000 1.0
C      1  0.5638620000000  0.4227150000000  0.4571370000000 1.0
C      1  0.4839000000000  0.4011960000000  0.4587710000000 1.0
C      1  0.4103970000000  0.4538130000000  0.4549640000000 1.0
C      1  0.4067170000000  0.5386260000000  0.4554100000000 1.0
C      1  0.4956340000000  0.4362630000000  0.4135980000000 1.0
C      1  0.4428020000000  0.4609290000000  0.4111420000000 1.0
C      1  0.4357970000000  0.5193670000000  0.4109380000000 1.0
C      1  0.4753690000000  0.5606690000000  0.4134470000000 1.0
C      1  0.5317950000000  0.5582450000000  0.4147950000000 1.0
C      1  0.5698860000000  0.5090360000000  0.4124820000000 1.0
C      1  0.5509080000000  0.4537720000000  0.4125270000000 1.0
C      1  0.4704670000000  0.4030570000000  0.5055880000000 1.0
C      1  0.3978930000000  0.4631860000000  0.5032740000000 1.0
C      1  0.4073440000000  0.5530700000000  0.5022280000000 1.0
C      1  0.4800770000000  0.6061200000000  0.5045120000000 1.0
C      1  0.5759150000000  0.5781030000000  0.5024010000000 1.0
C      1  0.6076220000000  0.4887630000000  0.5048720000000 1.0
C      1  0.5646480000000  0.4087200000000  0.5067910000000 1.0
C      1  0.5417970000000  0.4044790000000  0.4653900000000 1.0
C      1  0.4550620000000  0.4050060000000  0.4602480000000 1.0
C      1  0.3946590000000  0.4782930000000  0.4604030000000 1.0
C      1  0.4142460000000  0.5668160000000  0.4591850000000 1.0
C      1  0.4947020000000  0.6060720000000  0.4557590000000 1.0
C      1  0.5804300000000  0.5646510000000  0.4545780000000 1.0
C      1  0.6031820000000  0.4752820000000  0.4590610000000 1.0
C      1  0.5521900000000  0.5395150000000  0.5289100000000 1.0
C      1  0.5565130000000  0.4782940000000  0.5187830000000 1.0
C      1  0.5223590000000  0.4401590000000  0.5249900000000 1.0
C      1  0.4700730000000  0.4505520000000  0.5249540000000 1.0
C      1  0.4339890000000  0.4928510000000  0.5161300000000 1.0
C      1  0.4516690000000  0.5386970000000  0.5384540000000 1.0
C      1  0.5049980000000  0.5546290000000  0.5282840000000 1.0
C      1  0.5858930000000  0.4582260000000  0.5698940000000 1.0
C      1  0.5176110000000  0.4110890000000  0.5651780000000 1.0
C      1  0.4415530000000  0.4289890000000  0.5701980000000 1.0
C      1  0.4037500000000  0.5008480000000  0.5704720000000 1.0
C      1  0.4390890000000  0.5735320000000  0.5681700000000 1.0
C      1  0.5240380000000  0.5913430000000  0.5656840000000 1.0
C      1  0.5843190000000  0.5391080000000  0.5675720000000 1.0
C      1  0.5710350000000  0.4573990000000  0.5308700000000 1.0
C      1  0.5206510000000  0.4119120000000  0.5169750000000 1.0
C      1  0.4441750000000  0.4390100000000  0.5299880000000 1.0
C      1  0.4141520000000  0.5056810000000  0.5316280000000 1.0
C      1  0.4542830000000  0.5669950000000  0.5299570000000 1.0
C      1  0.5245020000000  0.5750880000000  0.5258830000000 1.0
C      1  0.5775700000000  0.5279220000000  0.5287440000000 1.0
C      1  0.4612830000000  0.5736260000000  0.4375120000000 1.0
C      1  0.5351990000000  0.5749620000000  0.4381960000000 1.0
C      1  0.5842590000000  0.5162210000000  0.4372020000000 1.0
C      1  0.5647930000000  0.4445810000000  0.4365380000000 1.0
C      1  0.4988640000000  0.4162830000000  0.4365370000000 1.0
C      1  0.4315020000000  0.4479660000000  0.4350130000000 1.0
C      1  0.4179810000000  0.5180450000000  0.4355000000000 1.0
C      1  0.5755750000000  0.5754800000000  0.5312950000000 1.0
C      1  0.6042920000000  0.4904780000000  0.5340470000000 1.0
C      1  0.5594720000000  0.4105980000000  0.5359530000000 1.0
C      1  0.4706490000000  0.4027280000000  0.5350620000000 1.0
C      1  0.4004020000000  0.4630270000000  0.5325080000000 1.0
C      1  0.4087130000000  0.5537430000000  0.5312110000000 1.0
C      1  0.4860110000000  0.6033340000000  0.5334950000000 1.0
C      1  0.4640530000000  0.5629470000000  0.5016690000000 1.0
C      1  0.5318140000000  0.5761460000000  0.4979820000000 1.0
C      1  0.5779780000000  0.5188880000000  0.4987080000000 1.0
C      1  0.5513860000000  0.4507840000000  0.4879840000000 1.0
C      1  0.5019670000000  0.4326660000000  0.4870850000000 1.0
C      1  0.4395140000000  0.4609630000000  0.4865870000000 1.0
C      1  0.4311660000000  0.5208780000000  0.4842000000000 1.0
C      1  0.5225450000000  0.4123740000000  0.4480810000000 1.0
C      1  0.4520390000000  0.4315120000000  0.4479570000000 1.0
C      1  0.4100460000000  0.4932310000000  0.4435330000000 1.0
C      1  0.4362090000000  0.5641190000000  0.4428180000000 1.0
C      1  0.5101600000000  0.5811390000000  0.4519480000000 1.0
C      1  0.5757550000000  0.5433850000000  0.4353550000000 1.0
C      1  0.5766120000000  0.4685750000000  0.4485730000000 1.0
C      1  0.3980850000000  0.4883440000000  0.4885840000000 1.0
C      1  0.4274600000000  0.5668250000000  0.4864040000000 1.0
C      1  0.5014120000000  0.6049260000000  0.4845940000000 1.0
C      1  0.5812860000000  0.5559180000000  0.4828010000000 1.0
C      1  0.5945810000000  0.4700860000000  0.4867120000000 1.0
C      1  0.5392740000000  0.4017080000000  0.4958430000000 1.0
C      1  0.4522260000000  0.4160760000000  0.4870800000000 1.0
C      1  0.5242930000000  0.4869650000000  0.5559540000000 1.0
C      1  0.5117040000000  0.4597990000000  0.5434700000000 1.0
C      1  0.4812850000000  0.4650320000000  0.5465460000000 1.0
C      1  0.4792080000000  0.4936240000000  0.5336570000000 1.0
C      1  0.4757550000000  0.5209130000000  0.5467360000000 1.0
C      1  0.5036090000000  0.5364720000000  0.5511500000000 1.0
C      1  0.5251250000000  0.5155120000000  0.5461670000000 1.0
C      1  0.4937530000000  0.4048330000000  0.4867360000000 1.0
C      1  0.4145590000000  0.4475810000000  0.4841150000000 1.0
C      1  0.4037080000000  0.5284590000000  0.4834220000000 1.0
C      1  0.4613630000000  0.5902410000000  0.4878260000000 1.0
C      1  0.5540090000000  0.5877820000000  0.4856770000000 1.0
C      1  0.6038550000000  0.5115670000000  0.4864620000000 1.0
C      1  0.5708820000000  0.4287100000000  0.4854330000000 1.0
C      1  0.4527850000000  0.5033930000000  0.5849200000000 1.0
C      1  0.4693400000000  0.5249540000000  0.5954430000000 1.0
C      1  0.5042390000000  0.5469260000000  0.5773520000000 1.0
C      1  0.5425680000000  0.5246600000000  0.5920380000000 1.0
C      1  0.5396630000000  0.4757770000000  0.5846720000000 1.0
C      1  0.5190070000000  0.4602600000000  0.5974880000000 1.0
C      1  0.4754840000000  0.4637950000000  0.5764530000000 1.0
C      1  0.4705180000000  0.5208940000000  0.4370900000000 1.0
C      1  0.5036250000000  0.5272060000000  0.4246770000000 1.0
C      1  0.5326320000000  0.5189400000000  0.4371370000000 1.0
C      1  0.5379550000000  0.4909550000000  0.4287730000000 1.0
C      1  0.5197040000000  0.4713880000000  0.4290000000000 1.0
C      1  0.4746750000000  0.4719620000000  0.4353720000000 1.0
C      1  0.4590900000000  0.4939640000000  0.4321430000000 1.0
C      1  0.5406030000000  0.5709360000000  0.5722560000000 1.0
C      1  0.5793190000000  0.5124580000000  0.5751590000000 1.0
C      1  0.5647480000000  0.4416180000000  0.5778740000000 1.0
C      1  0.4945780000000  0.4202720000000  0.5809140000000 1.0
C      1  0.4330600000000  0.4555230000000  0.5748440000000 1.0
C      1  0.4178650000000  0.5233200000000  0.5766910000000 1.0
C      1  0.4660120000000  0.5743380000000  0.5759640000000 1.0
C      1  0.3949460000000  0.4885710000000  0.5468690000000 1.0
C      1  0.4259090000000  0.5736580000000  0.5436390000000 1.0
C      1  0.5134700000000  0.6011690000000  0.5426270000000 1.0
C      1  0.5896320000000  0.5540390000000  0.5447210000000 1.0
C      1  0.5978750000000  0.4645370000000  0.5456230000000 1.0
C      1  0.5322780000000  0.4016620000000  0.5423090000000 1.0
C      1  0.4458310000000  0.4138660000000  0.5466680000000 1.0
C      1  0.5566630000000  0.4833490000000  0.4087170000000 1.0
C      1  0.5215460000000  0.4498860000000  0.4097720000000 1.0
C      1  0.4718680000000  0.4537010000000  0.4127420000000 1.0
C      1  0.4435440000000  0.4907930000000  0.4083510000000 1.0
C      1  0.4594030000000  0.5363720000000  0.4128380000000 1.0
C      1  0.5036700000000  0.5536240000000  0.4095630000000 1.0
C      1  0.5514750000000  0.5345150000000  0.4176060000000 1.0
C      1  0.4392910000000  0.5229690000000  0.5959950000000 1.0
C      1  0.4803440000000  0.5519240000000  0.5885440000000 1.0
C      1  0.5289320000000  0.5493930000000  0.5897620000000 1.0
C      1  0.5558390000000  0.5021310000000  0.5927840000000 1.0
C      1  0.5444090000000  0.4507150000000  0.5968540000000 1.0
C      1  0.4937780000000  0.4475710000000  0.5919540000000 1.0
C      1  0.4515640000000  0.4757210000000  0.5870050000000 1.0
C      1  0.5431140000000  0.4973740000000  0.5052230000000 1.0
C      1  0.5124010000000  0.4649160000000  0.5132220000000 1.0
C      1  0.4872410000000  0.4530090000000  0.5011670000000 1.0
C      1  0.4605440000000  0.5000180000000  0.5114540000000 1.0
C      1  0.4668890000000  0.5270390000000  0.5179730000000 1.0
C      1  0.4886520000000  0.5459620000000  0.5060710000000 1.0
C      1  0.5328450000000  0.5216520000000  0.5193610000000 1.0
C      1  0.4980220000000  0.4862070000000  0.4355950000000 1.0
C      1  0.4988900000000  0.5072850000000  0.4910410000000 1.0
C      1  0.4983690000000  0.5027080000000  0.4089860000000 1.0
C      1  0.5056560000000  0.4958410000000  0.5758690000000 1.0
C      1  0.4953120000000  0.5031310000000  0.5994420000000 1.0
C      1  0.5034340000000  0.4943950000000  0.5160730000000 1.0
END
