TITL C-2441166-8118-928 0.00194098314404999 125000 -3301.28272412641 0 0 26 (C1) n - 1
REM
REM in /home/bkarasulu/work/CARBON/AIRSS/Generating-Clusters/ReaxFF-fromJPCA2015/Units_Real/with-SteepDescent/Higher-Symm
REM
REM
REM
REM
REM
REM ./C.cell (1df0a924f5614ab8850e4351716899ee)
REM
REM compiler GCC version 9.2.1 20190827 (Red Hat 9.2.1-1)
REM options -cpp -mtune=generic -march=x86-64 -g -O0 -fpre-include=/usr/include/finclude/math-vector-fortran.h
REM seed -1603839388 -1489494317 1222357726 -1659519242 453203579 -1849226154 172579933 1127068535 1237926257 2000996888 -1312644420 207907951 -1470915454 -1636288525 45809796 1659638645 -1343182892 -1797962869 447088979 -1588006506 -769346387 -732915529 -1175542768 -1240533506 1145463945 -162132960 -371322956 1639034444 -2020604696 -530660759 1148465711 -1031859929 1567626719
REM
CELL 1.54180   50.00000   50.00000   50.00000   90.00000   90.00000   90.00000
LATT -1
SFAC C  
C      1  0.4395730000000  0.4868710000000  0.5181940000000 1.0
C      1  0.4512530000000  0.5361310000000  0.5360590000000 1.0
C      1  0.4992020000000  0.5672370000000  0.5384980000000 1.0
C      1  0.5505400000000  0.5358550000000  0.5227270000000 1.0
C      1  0.5599110000000  0.4842350000000  0.5255360000000 1.0
C      1  0.5103080000000  0.4355430000000  0.5387240000000 1.0
C      1  0.4798300000000  0.4387100000000  0.5362450000000 1.0
C      1  0.5193280000000  0.5299340000000  0.4831080000000 1.0
C      1  0.5311350000000  0.4808720000000  0.4836430000000 1.0
C      1  0.5143590000000  0.4588230000000  0.4740700000000 1.0
C      1  0.4850580000000  0.4675300000000  0.4705650000000 1.0
C      1  0.4727030000000  0.4929550000000  0.4807860000000 1.0
C      1  0.4720240000000  0.5211450000000  0.4703430000000 1.0
C      1  0.4942510000000  0.5420450000000  0.4737830000000 1.0
C      1  0.4649000000000  0.4897690000000  0.5126550000000 1.0
C      1  0.4735230000000  0.5239050000000  0.5303110000000 1.0
C      1  0.5006630000000  0.5439890000000  0.5300040000000 1.0
C      1  0.5270350000000  0.5354910000000  0.5126380000000 1.0
C      1  0.5374070000000  0.4791050000000  0.5140890000000 1.0
C      1  0.5125910000000  0.4643690000000  0.5287780000000 1.0
C      1  0.4850580000000  0.4668960000000  0.5258350000000 1.0
C      1  0.4975390000000  0.4984690000000  0.4247840000000 1.0
C      1  0.5060070000000  0.4994320000000  0.5690750000000 1.0
C      1  0.4923270000000  0.5100070000000  0.5526880000000 1.0
C      1  0.5206380000000  0.5042180000000  0.4705650000000 1.0
C      1  0.4997030000000  0.4992820000000  0.4492330000000 1.0
END
