TITL C-2441162-9305-590 0.0365639874823678 125000 -24350.3202744457 0 0 165 (C1) n - 1
REM
REM in /home/bkarasulu/work/CARBON/AIRSS/Generating-Clusters/ReaxFF-fromJPCA2015/Units_Real/with-SteepDescent/Higher-Symm
REM
REM
REM
REM
REM
REM ./C.cell (1df0a924f5614ab8850e4351716899ee)
REM
REM compiler GCC version 9.2.1 20190827 (Red Hat 9.2.1-1)
REM options -cpp -mtune=generic -march=x86-64 -g -O0 -fpre-include=/usr/include/finclude/math-vector-fortran.h
REM seed 1772414510 1796839995 799027458 113761849 -1050928177 434125067 553612797 -1740795975 1407715066 -2022512979 1593530570 -172224654 -1688302651 498500076 -2063491948 953327106 1882708243 1297325629 -1916914136 -1700417633 -1484514601 -72679186 -658618754 2139380496 2114182117 -873370576 -2116099284 1720158493 1636068235 1900288129 1060655502 -1723190662 -558940021
REM
CELL 1.54180   50.00000   50.00000   50.00000   90.00000   90.00000   90.00000
LATT -1
SFAC C  
C      1  0.5725660000000  0.5141790000000  0.5802010000000 1.0
C      1  0.4512030000000  0.5487250000000  0.5632220000000 1.0
C      1  0.4685860000000  0.4313190000000  0.5666030000000 1.0
C      1  0.5721810000000  0.4847610000000  0.5804680000000 1.0
C      1  0.4510900000000  0.4531070000000  0.5641880000000 1.0
C      1  0.4691160000000  0.5697560000000  0.5673840000000 1.0
C      1  0.5232830000000  0.5147450000000  0.4149290000000 1.0
C      1  0.4761470000000  0.5148500000000  0.4044230000000 1.0
C      1  0.5000570000000  0.4725980000000  0.4050240000000 1.0
C      1  0.5235520000000  0.4859700000000  0.4046070000000 1.0
C      1  0.4759100000000  0.4875400000000  0.4145750000000 1.0
C      1  0.4997190000000  0.5290180000000  0.4050080000000 1.0
C      1  0.5483420000000  0.4721630000000  0.4007630000000 1.0
C      1  0.5007810000000  0.5578210000000  0.4068760000000 1.0
C      1  0.4514550000000  0.4724060000000  0.4036170000000 1.0
C      1  0.5481820000000  0.5288880000000  0.4063050000000 1.0
C      1  0.4993940000000  0.4438500000000  0.4021390000000 1.0
C      1  0.4512620000000  0.5290630000000  0.4002580000000 1.0
C      1  0.5251560000000  0.5706550000000  0.4173610000000 1.0
C      1  0.4251880000000  0.4854660000000  0.3989600000000 1.0
C      1  0.5499700000000  0.4421150000000  0.3980110000000 1.0
C      1  0.5248850000000  0.4273180000000  0.4034400000000 1.0
C      1  0.4248740000000  0.5154490000000  0.3972160000000 1.0
C      1  0.5502300000000  0.5557490000000  0.4175730000000 1.0
C      1  0.5257430000000  0.5936990000000  0.4681010000000 1.0
C      1  0.4130090000000  0.4712090000000  0.4762640000000 1.0
C      1  0.5694270000000  0.4348710000000  0.4731000000000 1.0
C      1  0.5220310000000  0.4076640000000  0.4718040000000 1.0
C      1  0.4116720000000  0.5238880000000  0.4756930000000 1.0
C      1  0.5738640000000  0.5631850000000  0.4695520000000 1.0
C      1  0.6072350000000  0.5137110000000  0.5463030000000 1.0
C      1  0.4344890000000  0.5868080000000  0.5417060000000 1.0
C      1  0.4571280000000  0.3996910000000  0.5427490000000 1.0
C      1  0.6066570000000  0.4843600000000  0.5461940000000 1.0
C      1  0.4328180000000  0.4156250000000  0.5446820000000 1.0
C      1  0.4602510000000  0.6016410000000  0.5422530000000 1.0
C      1  0.5903200000000  0.5302530000000  0.5638540000000 1.0
C      1  0.4270230000000  0.5646420000000  0.5606150000000 1.0
C      1  0.4801450000000  0.4066250000000  0.5607120000000 1.0
C      1  0.5897670000000  0.4684340000000  0.5644000000000 1.0
C      1  0.4263160000000  0.4375540000000  0.5639700000000 1.0
C      1  0.4817210000000  0.5938510000000  0.5624170000000 1.0
C      1  0.5258050000000  0.5138170000000  0.5326680000000 1.0
C      1  0.4758060000000  0.5156970000000  0.5391020000000 1.0
C      1  0.5021300000000  0.4703550000000  0.5442770000000 1.0
C      1  0.5267590000000  0.4840300000000  0.5381000000000 1.0
C      1  0.4777260000000  0.4875810000000  0.5333750000000 1.0
C      1  0.4999910000000  0.5304280000000  0.5439800000000 1.0
C      1  0.5563030000000  0.4718430000000  0.4476530000000 1.0
C      1  0.4915970000000  0.5646490000000  0.4509810000000 1.0
C      1  0.4465390000000  0.4656270000000  0.4467790000000 1.0
C      1  0.5637600000000  0.5232000000000  0.4467320000000 1.0
C      1  0.4976560000000  0.4377380000000  0.4465430000000 1.0
C      1  0.4343650000000  0.5393490000000  0.4406290000000 1.0
C      1  0.4782600000000  0.5631480000000  0.4244830000000 1.0
C      1  0.4529460000000  0.4488580000000  0.4201070000000 1.0
C      1  0.5658670000000  0.4844010000000  0.4204710000000 1.0
C      1  0.4786880000000  0.4354910000000  0.4203880000000 1.0
C      1  0.4519370000000  0.5513360000000  0.4193780000000 1.0
C      1  0.5647460000000  0.5118030000000  0.4203390000000 1.0
C      1  0.5692330000000  0.4862420000000  0.5136010000000 1.0
C      1  0.4767400000000  0.5684410000000  0.5133160000000 1.0
C      1  0.4516440000000  0.4520410000000  0.5145000000000 1.0
C      1  0.5702190000000  0.5141260000000  0.5135870000000 1.0
C      1  0.4765700000000  0.4379790000000  0.5145180000000 1.0
C      1  0.4523520000000  0.5546890000000  0.5149700000000 1.0
C      1  0.4993530000000  0.5300340000000  0.5786760000000 1.0
C      1  0.4719560000000  0.4866720000000  0.5912990000000 1.0
C      1  0.5236670000000  0.4853410000000  0.5892580000000 1.0
C      1  0.4988710000000  0.4704290000000  0.5790090000000 1.0
C      1  0.4723730000000  0.5141290000000  0.5913640000000 1.0
C      1  0.5239960000000  0.5142830000000  0.5886490000000 1.0
C      1  0.4014580000000  0.4664500000000  0.5324910000000 1.0
C      1  0.5777480000000  0.4314570000000  0.5325650000000 1.0
C      1  0.5189490000000  0.5989100000000  0.5307730000000 1.0
C      1  0.4016250000000  0.5323520000000  0.5318230000000 1.0
C      1  0.5790670000000  0.5681510000000  0.5315150000000 1.0
C      1  0.5193380000000  0.3988480000000  0.5313560000000 1.0
C      1  0.4832180000000  0.5927270000000  0.4676770000000 1.0
C      1  0.4393650000000  0.4396120000000  0.4576810000000 1.0
C      1  0.5832360000000  0.4774390000000  0.4573620000000 1.0
C      1  0.4807540000000  0.4165810000000  0.4566700000000 1.0
C      1  0.4281140000000  0.5622440000000  0.4513890000000 1.0
C      1  0.5917210000000  0.5234380000000  0.4543550000000 1.0
C      1  0.5514170000000  0.4416210000000  0.5742860000000 1.0
C      1  0.5280960000000  0.5757830000000  0.5751970000000 1.0
C      1  0.4193130000000  0.4861110000000  0.5746420000000 1.0
C      1  0.5526180000000  0.5572800000000  0.5732070000000 1.0
C      1  0.5260520000000  0.4234920000000  0.5752030000000 1.0
C      1  0.4200370000000  0.5160060000000  0.5739470000000 1.0
C      1  0.4746810000000  0.5984640000000  0.5165980000000 1.0
C      1  0.4372260000000  0.4262720000000  0.5175870000000 1.0
C      1  0.5984530000000  0.4845520000000  0.5177910000000 1.0
C      1  0.4619390000000  0.4090870000000  0.5135160000000 1.0
C      1  0.4326220000000  0.5763710000000  0.5145270000000 1.0
C      1  0.5993920000000  0.5140160000000  0.5174440000000 1.0
C      1  0.3998640000000  0.5519730000000  0.4814550000000 1.0
C      1  0.5010020000000  0.3879290000000  0.4808460000000 1.0
C      1  0.5993220000000  0.5551450000000  0.4825040000000 1.0
C      1  0.4065830000000  0.4428440000000  0.4840280000000 1.0
C      1  0.5042510000000  0.6078320000000  0.4817850000000 1.0
C      1  0.5962590000000  0.4437540000000  0.4830550000000 1.0
C      1  0.4418790000000  0.4858380000000  0.5943340000000 1.0
C      1  0.5479830000000  0.4687110000000  0.5858270000000 1.0
C      1  0.5130260000000  0.5545500000000  0.5857400000000 1.0
C      1  0.4423550000000  0.5159400000000  0.5940330000000 1.0
C      1  0.5485240000000  0.5303720000000  0.5852410000000 1.0
C      1  0.5117280000000  0.4453050000000  0.5856970000000 1.0
C      1  0.4267390000000  0.4842750000000  0.5266520000000 1.0
C      1  0.5502170000000  0.4433350000000  0.5227910000000 1.0
C      1  0.5249930000000  0.5717170000000  0.5184070000000 1.0
C      1  0.4270440000000  0.5153630000000  0.5251820000000 1.0
C      1  0.5523030000000  0.5562560000000  0.5199960000000 1.0
C      1  0.5222690000000  0.4292710000000  0.5219090000000 1.0
C      1  0.4756160000000  0.4860770000000  0.4490960000000 1.0
C      1  0.5276950000000  0.4892410000000  0.4589460000000 1.0
C      1  0.5009520000000  0.5319720000000  0.4608000000000 1.0
C      1  0.4780540000000  0.5122270000000  0.4627240000000 1.0
C      1  0.5231530000000  0.5163550000000  0.4487000000000 1.0
C      1  0.4980050000000  0.4697000000000  0.4599410000000 1.0
C      1  0.4285740000000  0.4210190000000  0.4748850000000 1.0
C      1  0.6071850000000  0.4713400000000  0.4703480000000 1.0
C      1  0.4579300000000  0.5944010000000  0.4781370000000 1.0
C      1  0.4146650000000  0.5764640000000  0.4705730000000 1.0
C      1  0.6126040000000  0.5267060000000  0.4722930000000 1.0
C      1  0.4716460000000  0.3948620000000  0.4712930000000 1.0
C      1  0.5273110000000  0.4254380000000  0.4487590000000 1.0
C      1  0.5641430000000  0.5530210000000  0.4430680000000 1.0
C      1  0.4201890000000  0.5127180000000  0.4503000000000 1.0
C      1  0.5162950000000  0.5792750000000  0.4436890000000 1.0
C      1  0.5516280000000  0.4401640000000  0.4500540000000 1.0
C      1  0.4220180000000  0.4841940000000  0.4514120000000 1.0
C      1  0.5116460000000  0.5944710000000  0.5580460000000 1.0
C      1  0.4093170000000  0.4617050000000  0.5605560000000 1.0
C      1  0.5769630000000  0.4421980000000  0.5598720000000 1.0
C      1  0.5102460000000  0.4043440000000  0.5582720000000 1.0
C      1  0.4100940000000  0.5399950000000  0.5592460000000 1.0
C      1  0.5780260000000  0.5566080000000  0.5586080000000 1.0
C      1  0.4995290000000  0.4460800000000  0.5288440000000 1.0
C      1  0.5505140000000  0.5286650000000  0.5277980000000 1.0
C      1  0.4524570000000  0.5314160000000  0.5351550000000 1.0
C      1  0.5002910000000  0.5513740000000  0.5198990000000 1.0
C      1  0.5482330000000  0.4718930000000  0.5266660000000 1.0
C      1  0.4513580000000  0.4711090000000  0.5374140000000 1.0
C      1  0.5016080000000  0.5307010000000  0.4953480000000 1.0
C      1  0.4798710000000  0.4882220000000  0.5041930000000 1.0
C      1  0.5236200000000  0.4881800000000  0.4885140000000 1.0
C      1  0.4989440000000  0.4725380000000  0.4894440000000 1.0
C      1  0.4784050000000  0.5135490000000  0.4913060000000 1.0
C      1  0.5220500000000  0.5134550000000  0.5030910000000 1.0
C      1  0.4307660000000  0.4827540000000  0.4970480000000 1.0
C      1  0.5499000000000  0.4386480000000  0.4940220000000 1.0
C      1  0.5316130000000  0.5744810000000  0.4894030000000 1.0
C      1  0.4275400000000  0.5107350000000  0.4961430000000 1.0
C      1  0.5535570000000  0.5594680000000  0.4899060000000 1.0
C      1  0.5257280000000  0.4274600000000  0.4926950000000 1.0
C      1  0.4000890000000  0.4506760000000  0.5098230000000 1.0
C      1  0.5917250000000  0.4372100000000  0.5093040000000 1.0
C      1  0.5009020000000  0.6106300000000  0.5108850000000 1.0
C      1  0.3974520000000  0.5457480000000  0.5082390000000 1.0
C      1  0.5924850000000  0.5623590000000  0.5080050000000 1.0
C      1  0.5091110000000  0.3895010000000  0.5072640000000 1.0
C      1  0.6148800000000  0.4981890000000  0.4760010000000 1.0
C      1  0.4474970000000  0.4014340000000  0.4868820000000 1.0
C      1  0.4325370000000  0.5923820000000  0.4888120000000 1.0
END
