TITL C-2441164-471-688 0.0763456941484138 125000 -21839.8394507956 0 0 160 (C1) n - 1
REM
REM in /home/bkarasulu/work/CARBON/AIRSS/Generating-Clusters/ReaxFF-fromJPCA2015/Units_Real/with-SteepDescent/Higher-Symm
REM
REM
REM
REM
REM
REM ./C.cell (1df0a924f5614ab8850e4351716899ee)
REM
REM compiler GCC version 9.2.1 20190827 (Red Hat 9.2.1-1)
REM options -cpp -mtune=generic -march=x86-64 -g -O0 -fpre-include=/usr/include/finclude/math-vector-fortran.h
REM seed -2066159357 1008062931 1175395595 869549297 -412752399 2133123740 1669703944 -1604641334 788882081 1211949497 -1309877619 1843584839 1053231986 -325002232 1245268073 -1260118873 609531178 839450989 1185358378 -707002035 -1305742677 -1845918978 1469117342 -253536930 2098915779 -1332278242 1173858423 -522346456 754314416 -1197445472 -1517796397 2072819779 2135044692
REM
CELL 1.54180   50.00000   50.00000   50.00000   90.00000   90.00000   90.00000
LATT -1
SFAC C  
C      1  0.4116780000000  0.4853370000000  0.5435050000000 1.0
C      1  0.4043980000000  0.5286330000000  0.4820690000000 1.0
C      1  0.4325310000000  0.4776630000000  0.4324360000000 1.0
C      1  0.4786300000000  0.5182000000000  0.4051330000000 1.0
C      1  0.5412060000000  0.4841720000000  0.4131650000000 1.0
C      1  0.5893030000000  0.5153320000000  0.4556600000000 1.0
C      1  0.5925080000000  0.4696530000000  0.5205420000000 1.0
C      1  0.5692630000000  0.5202970000000  0.5703450000000 1.0
C      1  0.5217250000000  0.4798180000000  0.5959470000000 1.0
C      1  0.4593780000000  0.5150900000000  0.5851600000000 1.0
C      1  0.5945910000000  0.4663130000000  0.4635310000000 1.0
C      1  0.5992450000000  0.5346110000000  0.5283590000000 1.0
C      1  0.5682920000000  0.4700520000000  0.5680720000000 1.0
C      1  0.5078340000000  0.5295780000000  0.6035160000000 1.0
C      1  0.4434200000000  0.4684660000000  0.5846000000000 1.0
C      1  0.4066780000000  0.5356070000000  0.5381860000000 1.0
C      1  0.4010460000000  0.4682570000000  0.4744570000000 1.0
C      1  0.4307380000000  0.5286970000000  0.4328800000000 1.0
C      1  0.4915770000000  0.4674190000000  0.3976890000000 1.0
C      1  0.5526550000000  0.5329600000000  0.4168060000000 1.0
C      1  0.5216310000000  0.4333930000000  0.5053470000000 1.0
C      1  0.5173230000000  0.5667340000000  0.5181910000000 1.0
C      1  0.4992460000000  0.4284910000000  0.5212670000000 1.0
C      1  0.4884210000000  0.5652530000000  0.5205000000000 1.0
C      1  0.4748310000000  0.4319120000000  0.5087340000000 1.0
C      1  0.4764230000000  0.5649200000000  0.4933710000000 1.0
C      1  0.4816520000000  0.4367520000000  0.4803840000000 1.0
C      1  0.4976420000000  0.5657770000000  0.4731670000000 1.0
C      1  0.5109800000000  0.4354120000000  0.4783540000000 1.0
C      1  0.5217390000000  0.5680940000000  0.4893360000000 1.0
C      1  0.4415320000000  0.5861580000000  0.4751620000000 1.0
C      1  0.4746670000000  0.4192360000000  0.4380530000000 1.0
C      1  0.4964960000000  0.5838890000000  0.4290030000000 1.0
C      1  0.5435210000000  0.4149300000000  0.4543730000000 1.0
C      1  0.5621660000000  0.5885670000000  0.4894820000000 1.0
C      1  0.5603960000000  0.4152690000000  0.5225350000000 1.0
C      1  0.5411990000000  0.5860090000000  0.5539980000000 1.0
C      1  0.4975250000000  0.4159570000000  0.5724080000000 1.0
C      1  0.4486470000000  0.5805350000000  0.5472880000000 1.0
C      1  0.4360430000000  0.4153920000000  0.5243410000000 1.0
C      1  0.5509410000000  0.4972310000000  0.5128330000000 1.0
C      1  0.5230420000000  0.5068490000000  0.5515430000000 1.0
C      1  0.5000500000000  0.4914340000000  0.5610690000000 1.0
C      1  0.4600590000000  0.5052860000000  0.5347850000000 1.0
C      1  0.4424280000000  0.4973930000000  0.5124550000000 1.0
C      1  0.4417520000000  0.4983490000000  0.4842790000000 1.0
C      1  0.4801720000000  0.5029120000000  0.4435340000000 1.0
C      1  0.5085480000000  0.5034720000000  0.4413550000000 1.0
C      1  0.5327050000000  0.4969390000000  0.4584150000000 1.0
C      1  0.5585890000000  0.5067690000000  0.4871820000000 1.0
C      1  0.4570270000000  0.5334240000000  0.4201710000000 1.0
C      1  0.5183740000000  0.4661400000000  0.4107800000000 1.0
C      1  0.5709050000000  0.5328280000000  0.4403140000000 1.0
C      1  0.5895340000000  0.4610250000000  0.4929810000000 1.0
C      1  0.5784330000000  0.5372750000000  0.5495070000000 1.0
C      1  0.5414510000000  0.4639750000000  0.5799210000000 1.0
C      1  0.4816310000000  0.5337910000000  0.5895730000000 1.0
C      1  0.4294730000000  0.4665030000000  0.5581260000000 1.0
C      1  0.4095080000000  0.5395140000000  0.5081730000000 1.0
C      1  0.4204290000000  0.4616380000000  0.4527390000000 1.0
C      1  0.5256650000000  0.5940310000000  0.5294970000000 1.0
C      1  0.4993240000000  0.4023330000000  0.5328380000000 1.0
C      1  0.4809580000000  0.5931410000000  0.5294160000000 1.0
C      1  0.4583090000000  0.4053570000000  0.5091940000000 1.0
C      1  0.4655450000000  0.5910150000000  0.4892340000000 1.0
C      1  0.4738910000000  0.4118990000000  0.4657960000000 1.0
C      1  0.4984420000000  0.5913040000000  0.4576170000000 1.0
C      1  0.5188540000000  0.4086570000000  0.4685600000000 1.0
C      1  0.5359090000000  0.5916470000000  0.4809060000000 1.0
C      1  0.5366540000000  0.4078200000000  0.5101020000000 1.0
C      1  0.4835600000000  0.5185350000000  0.5234020000000 1.0
C      1  0.4791010000000  0.4753490000000  0.5097380000000 1.0
C      1  0.4785900000000  0.5174460000000  0.4927100000000 1.0
C      1  0.4844460000000  0.4846390000000  0.4829380000000 1.0
C      1  0.5011060000000  0.5258700000000  0.4768970000000 1.0
C      1  0.5162370000000  0.4814770000000  0.4779110000000 1.0
C      1  0.5228340000000  0.5280150000000  0.4948750000000 1.0
C      1  0.5283190000000  0.4798090000000  0.5083180000000 1.0
C      1  0.5167100000000  0.5205460000000  0.5260330000000 1.0
C      1  0.5032440000000  0.4736750000000  0.5234400000000 1.0
C      1  0.4361750000000  0.5525430000000  0.5089410000000 1.0
C      1  0.4418240000000  0.4481680000000  0.4658210000000 1.0
C      1  0.4642410000000  0.5528090000000  0.4410060000000 1.0
C      1  0.5127960000000  0.4494480000000  0.4342580000000 1.0
C      1  0.5544590000000  0.5494670000000  0.4569760000000 1.0
C      1  0.5638010000000  0.4467970000000  0.4884210000000 1.0
C      1  0.5577720000000  0.5507080000000  0.5356160000000 1.0
C      1  0.5325040000000  0.4450740000000  0.5590810000000 1.0
C      1  0.4844990000000  0.5530710000000  0.5673340000000 1.0
C      1  0.4496290000000  0.4495610000000  0.5456160000000 1.0
C      1  0.4897020000000  0.5824240000000  0.5694970000000 1.0
C      1  0.4522760000000  0.4196120000000  0.5484070000000 1.0
C      1  0.4299660000000  0.5848400000000  0.5057770000000 1.0
C      1  0.4341710000000  0.4195690000000  0.4689540000000 1.0
C      1  0.4651880000000  0.5857030000000  0.4344000000000 1.0
C      1  0.5202170000000  0.4174940000000  0.4290700000000 1.0
C      1  0.5441110000000  0.5727350000000  0.4429510000000 1.0
C      1  0.5721580000000  0.4144840000000  0.4930280000000 1.0
C      1  0.5645210000000  0.5794140000000  0.5360010000000 1.0
C      1  0.5251700000000  0.4156960000000  0.5623200000000 1.0
C      1  0.5982140000000  0.5099840000000  0.5120810000000 1.0
C      1  0.5778870000000  0.4955210000000  0.5597750000000 1.0
C      1  0.5284430000000  0.5083010000000  0.5990290000000 1.0
C      1  0.4642750000000  0.4881840000000  0.5950000000000 1.0
C      1  0.4162170000000  0.5123110000000  0.5542080000000 1.0
C      1  0.4003230000000  0.4967140000000  0.4878430000000 1.0
C      1  0.4206920000000  0.5025440000000  0.4368380000000 1.0
C      1  0.4719410000000  0.4898290000000  0.4007210000000 1.0
C      1  0.5355960000000  0.5120700000000  0.4056490000000 1.0
C      1  0.5824990000000  0.4889900000000  0.4461100000000 1.0
C      1  0.5217880000000  0.5487090000000  0.5883960000000 1.0
C      1  0.4635120000000  0.4487870000000  0.5842470000000 1.0
C      1  0.4245120000000  0.5521900000000  0.5519160000000 1.0
C      1  0.4101020000000  0.4508260000000  0.4939750000000 1.0
C      1  0.4198920000000  0.5383030000000  0.4590080000000 1.0
C      1  0.4735300000000  0.4503500000000  0.4116060000000 1.0
C      1  0.5360400000000  0.5570520000000  0.4198700000000 1.0
C      1  0.5813170000000  0.4473390000000  0.4458700000000 1.0
C      1  0.5906110000000  0.5570390000000  0.5130150000000 1.0
C      1  0.5789370000000  0.4575460000000  0.5434240000000 1.0
C      1  0.5076710000000  0.5572240000000  0.4273780000000 1.0
C      1  0.5525820000000  0.4429000000000  0.4606210000000 1.0
C      1  0.5714470000000  0.5610130000000  0.4928790000000 1.0
C      1  0.5555430000000  0.4417240000000  0.5347040000000 1.0
C      1  0.5296120000000  0.5606360000000  0.5644200000000 1.0
C      1  0.4873810000000  0.4433270000000  0.5704500000000 1.0
C      1  0.4482740000000  0.5553220000000  0.5386740000000 1.0
C      1  0.4284550000000  0.4406640000000  0.5104710000000 1.0
C      1  0.4440230000000  0.5542180000000  0.4646930000000 1.0
C      1  0.4803540000000  0.4471310000000  0.4394200000000 1.0
C      1  0.4933460000000  0.4837090000000  0.5881410000000 1.0
C      1  0.4463060000000  0.5121940000000  0.5586100000000 1.0
C      1  0.4144150000000  0.4904340000000  0.5147820000000 1.0
C      1  0.4245180000000  0.4988130000000  0.4657050000000 1.0
C      1  0.4615430000000  0.4856870000000  0.4290080000000 1.0
C      1  0.5074020000000  0.5154970000000  0.4145360000000 1.0
C      1  0.5533120000000  0.4867150000000  0.4401280000000 1.0
C      1  0.5876720000000  0.5103700000000  0.4849460000000 1.0
C      1  0.5763660000000  0.4957070000000  0.5283940000000 1.0
C      1  0.5409620000000  0.5142070000000  0.5729340000000 1.0
C      1  0.5500130000000  0.5362580000000  0.4839930000000 1.0
C      1  0.5425150000000  0.4534200000000  0.5097310000000 1.0
C      1  0.5292910000000  0.5460700000000  0.5358020000000 1.0
C      1  0.5042630000000  0.4634650000000  0.5509890000000 1.0
C      1  0.4779500000000  0.5443880000000  0.5384090000000 1.0
C      1  0.4568500000000  0.4559500000000  0.5175850000000 1.0
C      1  0.4569250000000  0.5428650000000  0.4892640000000 1.0
C      1  0.4686430000000  0.4598530000000  0.4679130000000 1.0
C      1  0.4935920000000  0.5420910000000  0.4500660000000 1.0
C      1  0.5242210000000  0.4558880000000  0.4616780000000 1.0
C      1  0.5549550000000  0.5981190000000  0.5159110000000 1.0
C      1  0.5280320000000  0.3985310000000  0.5386860000000 1.0
C      1  0.5017810000000  0.6002080000000  0.5491290000000 1.0
C      1  0.4778410000000  0.4049430000000  0.5536940000000 1.0
C      1  0.4517660000000  0.5985640000000  0.5253780000000 1.0
C      1  0.4513950000000  0.3989500000000  0.4817270000000 1.0
C      1  0.4652870000000  0.6016830000000  0.4633280000000 1.0
C      1  0.4974200000000  0.4011110000000  0.4433150000000 1.0
C      1  0.5280220000000  0.5948180000000  0.4536780000000 1.0
C      1  0.5450220000000  0.3989810000000  0.4802630000000 1.0
END
