TITL C-2441165-58-1393 0.0296194443908255 125000 -3091.2797170883 0 0 31 (C1) n - 1
REM
REM in /home/bkarasulu/work/CARBON/AIRSS/Generating-Clusters/ReaxFF-fromJPCA2015/Units_Real/with-SteepDescent/Higher-Symm
REM
REM
REM
REM
REM
REM ./C.cell (1df0a924f5614ab8850e4351716899ee)
REM
REM compiler GCC version 9.2.1 20190827 (Red Hat 9.2.1-1)
REM options -cpp -mtune=generic -march=x86-64 -g -O0 -fpre-include=/usr/include/finclude/math-vector-fortran.h
REM seed -104838836 672495875 -118439024 105156523 -100173151 530405369 -203428418 -42029187 1469195597 557589343 -43954261 1018701206 -1622367157 1836189859 -258259268 -1146508928 -2114566272 -1087405672 1863878759 -390096304 -934250801 -403281771 -565879978 -503665224 1768593519 1511927801 278139665 -2101631298 -1411866832 1030710820 146618876 1907224935 333230164
REM
CELL 1.54180   50.00000   50.00000   50.00000   90.00000   90.00000   90.00000
LATT -1
SFAC C  
C      1  0.4492680000000  0.5229910000000  0.5330870000000 1.0
C      1  0.4921870000000  0.4964060000000  0.4947610000000 1.0
C      1  0.5063100000000  0.5497290000000  0.4784230000000 1.0
C      1  0.4869090000000  0.5438320000000  0.5357960000000 1.0
C      1  0.4718690000000  0.5334740000000  0.4523290000000 1.0
C      1  0.5122630000000  0.5383310000000  0.5255920000000 1.0
C      1  0.4716530000000  0.5267910000000  0.5541990000000 1.0
C      1  0.5269770000000  0.5044130000000  0.5095510000000 1.0
C      1  0.5044580000000  0.5009480000000  0.4470470000000 1.0
C      1  0.4849970000000  0.4597220000000  0.4602540000000 1.0
C      1  0.4938930000000  0.4575990000000  0.5384400000000 1.0
C      1  0.4607650000000  0.4742050000000  0.4649440000000 1.0
C      1  0.5268930000000  0.4955950000000  0.4619050000000 1.0
C      1  0.5597600000000  0.4947320000000  0.4937420000000 1.0
C      1  0.5158590000000  0.4601060000000  0.5490880000000 1.0
C      1  0.4632960000000  0.4659750000000  0.4935780000000 1.0
C      1  0.4564870000000  0.4931340000000  0.5354930000000 1.0
C      1  0.5481800000000  0.5230140000000  0.5028590000000 1.0
C      1  0.5271730000000  0.5145210000000  0.5383370000000 1.0
C      1  0.5120820000000  0.4726090000000  0.5289090000000 1.0
C      1  0.4919310000000  0.5182970000000  0.5208560000000 1.0
C      1  0.4667010000000  0.4894760000000  0.5081200000000 1.0
C      1  0.4825030000000  0.5013040000000  0.5456820000000 1.0
C      1  0.4639250000000  0.5035820000000  0.4562330000000 1.0
C      1  0.5355790000000  0.4688360000000  0.5143210000000 1.0
C      1  0.5278460000000  0.4681020000000  0.4895460000000 1.0
C      1  0.4954510000000  0.4649680000000  0.4865530000000 1.0
C      1  0.5328220000000  0.5449930000000  0.4887720000000 1.0
C      1  0.4865600000000  0.5022740000000  0.4689990000000 1.0
C      1  0.5444350000000  0.4768410000000  0.4706720000000 1.0
C      1  0.5009640000000  0.5332010000000  0.4519120000000 1.0
END
