TITL C-2441164-471-1220 0.0450962991876322 125000 -26167.9313570181 0 0 184 (C1) n - 1
REM
REM in /home/bkarasulu/work/CARBON/AIRSS/Generating-Clusters/ReaxFF-fromJPCA2015/Units_Real/with-SteepDescent/Higher-Symm
REM
REM
REM
REM
REM
REM ./C.cell (1df0a924f5614ab8850e4351716899ee)
REM
REM compiler GCC version 9.2.1 20190827 (Red Hat 9.2.1-1)
REM options -cpp -mtune=generic -march=x86-64 -g -O0 -fpre-include=/usr/include/finclude/math-vector-fortran.h
REM seed 192020300 -818674616 -338308610 -386129767 -7470906 -1053161086 -569455801 1341602352 553504124 167128891 -550439416 382006839 -716882578 1764008167 -1763523191 -1292996891 -2067773973 1338838677 1253628485 1222150203 -101541380 1831298961 -1409973064 -1388306010 -114105019 -237830715 -1801902551 1300528362 -1353118463 -959298599 -1549070779 -914994733 -1359576600
REM
CELL 1.54180   50.00000   50.00000   50.00000   90.00000   90.00000   90.00000
LATT -1
SFAC C  
C      1  0.5120810000000  0.5966350000000  0.4949800000000 1.0
C      1  0.4809400000000  0.6000320000000  0.4962330000000 1.0
C      1  0.5133960000000  0.5111290000000  0.4945790000000 1.0
C      1  0.4875190000000  0.5116380000000  0.5065460000000 1.0
C      1  0.3898460000000  0.4826770000000  0.5276880000000 1.0
C      1  0.6068380000000  0.4879360000000  0.4803370000000 1.0
C      1  0.6005770000000  0.5354780000000  0.4872750000000 1.0
C      1  0.3957630000000  0.5328160000000  0.5124310000000 1.0
C      1  0.4584870000000  0.4944680000000  0.6014110000000 1.0
C      1  0.5516880000000  0.4910970000000  0.3975230000000 1.0
C      1  0.5270750000000  0.5688410000000  0.4449830000000 1.0
C      1  0.4700700000000  0.5777740000000  0.5611430000000 1.0
C      1  0.4669730000000  0.5365920000000  0.5840150000000 1.0
C      1  0.5229760000000  0.5261660000000  0.4146110000000 1.0
C      1  0.5456110000000  0.4708570000000  0.5055780000000 1.0
C      1  0.4627770000000  0.4696520000000  0.4909720000000 1.0
C      1  0.5175400000000  0.4893270000000  0.6109030000000 1.0
C      1  0.4861310000000  0.5050510000000  0.3871380000000 1.0
C      1  0.5239800000000  0.4212120000000  0.4261550000000 1.0
C      1  0.4708100000000  0.4215050000000  0.5729730000000 1.0
C      1  0.4505790000000  0.4911120000000  0.4275430000000 1.0
C      1  0.5500700000000  0.4906850000000  0.5738810000000 1.0
C      1  0.4591260000000  0.5183730000000  0.4404860000000 1.0
C      1  0.5393370000000  0.5197640000000  0.5674050000000 1.0
C      1  0.4110420000000  0.5267440000000  0.4402640000000 1.0
C      1  0.5886240000000  0.5271900000000  0.5592580000000 1.0
C      1  0.5224860000000  0.5502980000000  0.4737190000000 1.0
C      1  0.4932840000000  0.5566320000000  0.5140410000000 1.0
C      1  0.5547130000000  0.5702020000000  0.4501640000000 1.0
C      1  0.4447030000000  0.5708690000000  0.5501650000000 1.0
C      1  0.4837030000000  0.5981270000000  0.5446950000000 1.0
C      1  0.5145530000000  0.5968230000000  0.4520180000000 1.0
C      1  0.4916080000000  0.4083240000000  0.4622280000000 1.0
C      1  0.5052000000000  0.3995130000000  0.5341070000000 1.0
C      1  0.4254430000000  0.4186080000000  0.5118710000000 1.0
C      1  0.5633650000000  0.4037730000000  0.4923220000000 1.0
C      1  0.4150050000000  0.4471550000000  0.5221440000000 1.0
C      1  0.5885770000000  0.4460480000000  0.4848460000000 1.0
C      1  0.5316750000000  0.4671370000000  0.4034440000000 1.0
C      1  0.4716510000000  0.4683280000000  0.5972280000000 1.0
C      1  0.5912060000000  0.4719930000000  0.4408820000000 1.0
C      1  0.4265240000000  0.4851390000000  0.5575250000000 1.0
C      1  0.5087500000000  0.3942990000000  0.4803850000000 1.0
C      1  0.4959690000000  0.3907740000000  0.5069280000000 1.0
C      1  0.4917440000000  0.5308920000000  0.5322950000000 1.0
C      1  0.5059660000000  0.5261250000000  0.4655590000000 1.0
C      1  0.4613280000000  0.4865890000000  0.3987500000000 1.0
C      1  0.5469260000000  0.4895920000000  0.6031860000000 1.0
C      1  0.5445270000000  0.5374960000000  0.4902410000000 1.0
C      1  0.4497070000000  0.5305540000000  0.5028170000000 1.0
C      1  0.4339170000000  0.4992590000000  0.4024210000000 1.0
C      1  0.5692720000000  0.5064580000000  0.6052220000000 1.0
C      1  0.4709200000000  0.5206550000000  0.5538100000000 1.0
C      1  0.5142620000000  0.5071960000000  0.4429180000000 1.0
C      1  0.4106470000000  0.4984830000000  0.5773850000000 1.0
C      1  0.5957100000000  0.4961900000000  0.4291490000000 1.0
C      1  0.3930130000000  0.4626980000000  0.5080420000000 1.0
C      1  0.6097060000000  0.4637440000000  0.4960120000000 1.0
C      1  0.5996580000000  0.5715390000000  0.5234370000000 1.0
C      1  0.4096400000000  0.5889190000000  0.4847830000000 1.0
C      1  0.4771210000000  0.5299840000000  0.4601050000000 1.0
C      1  0.5183160000000  0.5173730000000  0.5448150000000 1.0
C      1  0.5385880000000  0.4467150000000  0.5196210000000 1.0
C      1  0.4631550000000  0.4425810000000  0.4781530000000 1.0
C      1  0.5007810000000  0.4668150000000  0.6034970000000 1.0
C      1  0.5036740000000  0.4654620000000  0.3954850000000 1.0
C      1  0.4699170000000  0.4152800000000  0.4815210000000 1.0
C      1  0.5337580000000  0.4197130000000  0.5135210000000 1.0
C      1  0.3809300000000  0.5086470000000  0.5309760000000 1.0
C      1  0.6189980000000  0.5132960000000  0.4741980000000 1.0
C      1  0.5112110000000  0.4516480000000  0.5592850000000 1.0
C      1  0.4863490000000  0.4535030000000  0.4357040000000 1.0
C      1  0.4250100000000  0.4268490000000  0.4584690000000 1.0
C      1  0.5749650000000  0.4302170000000  0.5365040000000 1.0
C      1  0.6029890000000  0.4833080000000  0.5709370000000 1.0
C      1  0.3984360000000  0.4822660000000  0.4354460000000 1.0
C      1  0.4662640000000  0.6019350000000  0.5227720000000 1.0
C      1  0.5308490000000  0.6027780000000  0.4743730000000 1.0
C      1  0.5781380000000  0.4967430000000  0.4867070000000 1.0
C      1  0.4253850000000  0.4953180000000  0.5084570000000 1.0
C      1  0.5087110000000  0.4711610000000  0.4715250000000 1.0
C      1  0.4999160000000  0.4735490000000  0.5270070000000 1.0
C      1  0.4772140000000  0.5157390000000  0.6045380000000 1.0
C      1  0.5135530000000  0.5051620000000  0.3963250000000 1.0
C      1  0.5042360000000  0.4462750000000  0.4855230000000 1.0
C      1  0.4982100000000  0.4478610000000  0.5141750000000 1.0
C      1  0.4787320000000  0.5582130000000  0.4324450000000 1.0
C      1  0.5214960000000  0.5588830000000  0.5735040000000 1.0
C      1  0.4099120000000  0.5135740000000  0.4922810000000 1.0
C      1  0.5868030000000  0.5175740000000  0.5069300000000 1.0
C      1  0.4678520000000  0.3981970000000  0.5049120000000 1.0
C      1  0.5323950000000  0.3961220000000  0.5284640000000 1.0
C      1  0.4065150000000  0.5372870000000  0.5464410000000 1.0
C      1  0.5921220000000  0.5391220000000  0.4562310000000 1.0
C      1  0.5868720000000  0.4485890000000  0.4523330000000 1.0
C      1  0.4151680000000  0.4589070000000  0.5505430000000 1.0
C      1  0.5371860000000  0.4469130000000  0.5478290000000 1.0
C      1  0.4623060000000  0.4447510000000  0.4500570000000 1.0
C      1  0.4844880000000  0.6002550000000  0.4527650000000 1.0
C      1  0.5152760000000  0.5986460000000  0.5444780000000 1.0
C      1  0.5180150000000  0.6216790000000  0.5351360000000 1.0
C      1  0.4717250000000  0.6184120000000  0.4710640000000 1.0
C      1  0.6072840000000  0.4654920000000  0.5250330000000 1.0
C      1  0.3953000000000  0.4644850000000  0.4782240000000 1.0
C      1  0.4749270000000  0.4574540000000  0.4044210000000 1.0
C      1  0.5178100000000  0.4480770000000  0.5874150000000 1.0
C      1  0.5650920000000  0.4643310000000  0.4844870000000 1.0
C      1  0.4377240000000  0.4682690000000  0.5131190000000 1.0
C      1  0.6025110000000  0.5682060000000  0.4935310000000 1.0
C      1  0.3992210000000  0.5613360000000  0.5134740000000 1.0
C      1  0.5695830000000  0.5711660000000  0.5232260000000 1.0
C      1  0.4277650000000  0.5703110000000  0.4764430000000 1.0
C      1  0.4472190000000  0.4032810000000  0.5258230000000 1.0
C      1  0.5362900000000  0.4052930000000  0.4720270000000 1.0
C      1  0.3932880000000  0.5138860000000  0.5571090000000 1.0
C      1  0.6078570000000  0.5169150000000  0.4472640000000 1.0
C      1  0.4470350000000  0.4244310000000  0.4354510000000 1.0
C      1  0.5546420000000  0.4259370000000  0.5588720000000 1.0
C      1  0.5446890000000  0.4338850000000  0.5856820000000 1.0
C      1  0.4556070000000  0.4332740000000  0.4098190000000 1.0
C      1  0.4795650000000  0.5302470000000  0.3938840000000 1.0
C      1  0.5054570000000  0.5148750000000  0.6065450000000 1.0
C      1  0.4559110000000  0.4084980000000  0.5526270000000 1.0
C      1  0.5447560000000  0.4112070000000  0.4435170000000 1.0
C      1  0.4580620000000  0.4461860000000  0.5833590000000 1.0
C      1  0.5414230000000  0.4418500000000  0.4154390000000 1.0
C      1  0.4672900000000  0.4896750000000  0.4693230000000 1.0
C      1  0.5445160000000  0.4935310000000  0.5239650000000 1.0
C      1  0.5776290000000  0.4236840000000  0.5067430000000 1.0
C      1  0.4259720000000  0.4199510000000  0.4849310000000 1.0
C      1  0.4764860000000  0.4405960000000  0.5309690000000 1.0
C      1  0.5281190000000  0.4348620000000  0.4750640000000 1.0
C      1  0.5854050000000  0.5183350000000  0.5862740000000 1.0
C      1  0.4168140000000  0.5174560000000  0.4143780000000 1.0
C      1  0.4476120000000  0.5597760000000  0.5009000000000 1.0
C      1  0.5534960000000  0.5648750000000  0.4990100000000 1.0
C      1  0.5746700000000  0.4760940000000  0.5644410000000 1.0
C      1  0.4248160000000  0.4730370000000  0.4368900000000 1.0
C      1  0.4908200000000  0.4830110000000  0.4518840000000 1.0
C      1  0.5214700000000  0.4873710000000  0.5413940000000 1.0
C      1  0.5052930000000  0.5601440000000  0.5922500000000 1.0
C      1  0.4955620000000  0.5691030000000  0.4137490000000 1.0
C      1  0.4656980000000  0.5167440000000  0.4824630000000 1.0
C      1  0.5348000000000  0.5195500000000  0.5131670000000 1.0
C      1  0.4933570000000  0.4265860000000  0.5512680000000 1.0
C      1  0.4991210000000  0.4267920000000  0.4403620000000 1.0
C      1  0.6120760000000  0.4891180000000  0.5413960000000 1.0
C      1  0.3854340000000  0.4855770000000  0.4606300000000 1.0
C      1  0.5198740000000  0.5554400000000  0.4187520000000 1.0
C      1  0.4794450000000  0.5625800000000  0.5834820000000 1.0
C      1  0.5893800000000  0.5889040000000  0.4788430000000 1.0
C      1  0.4118710000000  0.5869240000000  0.5129460000000 1.0
C      1  0.5553730000000  0.5244160000000  0.4264070000000 1.0
C      1  0.4384930000000  0.5350250000000  0.5827970000000 1.0
C      1  0.5615120000000  0.5378030000000  0.5586520000000 1.0
C      1  0.4385650000000  0.5394540000000  0.4401940000000 1.0
C      1  0.4170950000000  0.4551780000000  0.4602150000000 1.0
C      1  0.5844270000000  0.4561730000000  0.5411620000000 1.0
C      1  0.5275050000000  0.4881760000000  0.4852560000000 1.0
C      1  0.4811260000000  0.4843800000000  0.5111490000000 1.0
C      1  0.5235830000000  0.5362430000000  0.5935790000000 1.0
C      1  0.4719980000000  0.5547800000000  0.4028050000000 1.0
C      1  0.4283530000000  0.5493330000000  0.5599790000000 1.0
C      1  0.5686250000000  0.5473890000000  0.4422740000000 1.0
C      1  0.4698720000000  0.5734510000000  0.4540810000000 1.0
C      1  0.5342080000000  0.5762670000000  0.5571110000000 1.0
C      1  0.4518260000000  0.4973060000000  0.5459810000000 1.0
C      1  0.5428050000000  0.5050220000000  0.4463830000000 1.0
C      1  0.4333820000000  0.5086070000000  0.5919470000000 1.0
C      1  0.5731670000000  0.5052890000000  0.4104720000000 1.0
C      1  0.5594140000000  0.4370280000000  0.4399760000000 1.0
C      1  0.4401060000000  0.4457880000000  0.5594990000000 1.0
C      1  0.4418220000000  0.5666700000000  0.4512170000000 1.0
C      1  0.5571410000000  0.5641890000000  0.5490730000000 1.0
C      1  0.4407820000000  0.5134960000000  0.5239540000000 1.0
C      1  0.5516550000000  0.5072620000000  0.4736590000000 1.0
C      1  0.4421100000000  0.5844200000000  0.5251060000000 1.0
C      1  0.5579960000000  0.5847280000000  0.4750530000000 1.0
C      1  0.4754510000000  0.5680970000000  0.4945930000000 1.0
C      1  0.5171850000000  0.5680250000000  0.5006900000000 1.0
C      1  0.5971610000000  0.5131060000000  0.5337970000000 1.0
C      1  0.4006430000000  0.5112010000000  0.4646890000000 1.0
C      1  0.4544820000000  0.4580970000000  0.5363850000000 1.0
C      1  0.5473430000000  0.4525060000000  0.4635000000000 1.0
END
