TITL C-2441169-1362-94 0.00232730031555272 125000 -3455.93654795331 0 0 26 (C1) n - 1
REM
REM in /home/bkarasulu/work/CARBON/AIRSS/Generating-Clusters/ReaxFF-fromJPCA2015/Units_Real/with-SteepDescent/Higher-Symm
REM
REM
REM
REM
REM
REM ./C.cell (1df0a924f5614ab8850e4351716899ee)
REM
REM compiler GCC version 9.2.1 20190827 (Red Hat 9.2.1-1)
REM options -cpp -mtune=generic -march=x86-64 -g -O0 -fpre-include=/usr/include/finclude/math-vector-fortran.h
REM seed 972033888 583482685 1705494085 -88880327 499209321 -1644589981 -392776264 -109452375 -386745533 -93019146 -1261058565 -349547163 -196527672 883030531 -935250140 -2068683208 598175090 -1979678286 -783913504 1376804239 -1947265490 -1965154490 -262073392 598880997 1589589253 670553839 1417154449 331684300 1597588708 710577981 -2107026335 570110105 -1835373929
REM
CELL 1.54180   50.00000   50.00000   50.00000   90.00000   90.00000   90.00000
LATT -1
SFAC C  
C      1  0.4518390000000  0.5501460000000  0.5044780000000 1.0
C      1  0.5252240000000  0.4271290000000  0.4912340000000 1.0
C      1  0.4629280000000  0.4650250000000  0.4724660000000 1.0
C      1  0.5202690000000  0.4690410000000  0.5191280000000 1.0
C      1  0.5047300000000  0.5470830000000  0.5163610000000 1.0
C      1  0.4379980000000  0.4987620000000  0.5059900000000 1.0
C      1  0.4826980000000  0.4823030000000  0.4851900000000 1.0
C      1  0.5654060000000  0.4724150000000  0.5439160000000 1.0
C      1  0.4806950000000  0.5405320000000  0.5506430000000 1.0
C      1  0.4571250000000  0.4776800000000  0.5008050000000 1.0
C      1  0.5264310000000  0.5116900000000  0.5466080000000 1.0
C      1  0.5393640000000  0.4630140000000  0.4531270000000 1.0
C      1  0.5205020000000  0.5474770000000  0.4900240000000 1.0
C      1  0.5562790000000  0.4512830000000  0.5289750000000 1.0
C      1  0.5124580000000  0.4755580000000  0.4897830000000 1.0
C      1  0.4341600000000  0.5273540000000  0.4969890000000 1.0
C      1  0.4763520000000  0.5503980000000  0.5220630000000 1.0
C      1  0.5067030000000  0.5412790000000  0.4651770000000 1.0
C      1  0.4502870000000  0.5414760000000  0.4775970000000 1.0
C      1  0.5321880000000  0.4427990000000  0.5176310000000 1.0
C      1  0.5345590000000  0.4875760000000  0.4672800000000 1.0
C      1  0.4814540000000  0.5233660000000  0.4382210000000 1.0
C      1  0.4761580000000  0.5345120000000  0.4602410000000 1.0
C      1  0.5188350000000  0.4495120000000  0.4739010000000 1.0
C      1  0.5348870000000  0.4856110000000  0.5385360000000 1.0
C      1  0.5104700000000  0.5369770000000  0.5436350000000 1.0
END
