TITL C-2441154-10-890 0.0403880120721676 125000 -15351.5149857377 0 0 106 (C1) n - 1
REM
REM in /home/bkarasulu/work/CARBON/AIRSS/Generating-Clusters/ReaxFF-fromJPCA2015/Units_Real/with-SteepDescent/Higher-Symm
REM
REM
REM
REM
REM
REM ./C.cell (1df0a924f5614ab8850e4351716899ee)
REM
REM compiler GCC version 9.2.1 20190827 (Red Hat 9.2.1-1)
REM options -cpp -mtune=generic -march=x86-64 -g -O0 -fpre-include=/usr/include/finclude/math-vector-fortran.h
REM seed -55436801 1651711040 1520716371 -163362171 1290956221 520598171 -251559410 1794113657 -697222040 547764264 -729480720 -1726574961 -1247306955 1494952108 1034794540 1982508527 1735581193 -2077451562 -842125957 -698102512 -545742870 -900249405 -525450864 915552948 -1708343786 -1117111003 1947413249 -447265042 -2061905939 -894818933 -1592324824 82826649 -149353077
REM
CELL 1.54180   50.00000   50.00000   50.00000   90.00000   90.00000   90.00000
LATT -1
SFAC C  
C      1  0.5286020000000  0.5001830000000  0.4776660000000 1.0
C      1  0.4675670000000  0.5226410000000  0.5069890000000 1.0
C      1  0.4867900000000  0.4801550000000  0.5186010000000 1.0
C      1  0.5254050000000  0.4982490000000  0.5330430000000 1.0
C      1  0.4782780000000  0.5072080000000  0.4842430000000 1.0
C      1  0.4846810000000  0.5089570000000  0.5260610000000 1.0
C      1  0.4834010000000  0.4777060000000  0.4888300000000 1.0
C      1  0.5156860000000  0.4755160000000  0.5170510000000 1.0
C      1  0.5134940000000  0.5368620000000  0.4963600000000 1.0
C      1  0.5046130000000  0.5177180000000  0.4764260000000 1.0
C      1  0.5111550000000  0.5218330000000  0.5220320000000 1.0
C      1  0.5144760000000  0.4764030000000  0.4880150000000 1.0
C      1  0.4440530000000  0.4702840000000  0.4344140000000 1.0
C      1  0.4403920000000  0.4497070000000  0.4763780000000 1.0
C      1  0.4704520000000  0.4255500000000  0.4380170000000 1.0
C      1  0.4454880000000  0.5250030000000  0.5721550000000 1.0
C      1  0.5557380000000  0.5208290000000  0.4281990000000 1.0
C      1  0.5630300000000  0.4701000000000  0.5752170000000 1.0
C      1  0.4325280000000  0.5596420000000  0.5166120000000 1.0
C      1  0.5698530000000  0.5546320000000  0.4715530000000 1.0
C      1  0.5698840000000  0.4445190000000  0.5277310000000 1.0
C      1  0.4739760000000  0.5688570000000  0.5599440000000 1.0
C      1  0.5277710000000  0.5691940000000  0.4442350000000 1.0
C      1  0.5235900000000  0.4306780000000  0.5541730000000 1.0
C      1  0.5677090000000  0.4444710000000  0.4732960000000 1.0
C      1  0.4805470000000  0.5641350000000  0.4621400000000 1.0
C      1  0.4467290000000  0.4718250000000  0.5655060000000 1.0
C      1  0.5655380000000  0.5520130000000  0.5268550000000 1.0
C      1  0.4338610000000  0.5466570000000  0.4680880000000 1.0
C      1  0.4356950000000  0.4473780000000  0.5277560000000 1.0
C      1  0.4726850000000  0.4350120000000  0.5527510000000 1.0
C      1  0.5250650000000  0.4317910000000  0.4513400000000 1.0
C      1  0.5225280000000  0.5671580000000  0.5487520000000 1.0
C      1  0.4575540000000  0.5201630000000  0.4381760000000 1.0
C      1  0.5510220000000  0.5305890000000  0.5656140000000 1.0
C      1  0.5527350000000  0.4696380000000  0.4371990000000 1.0
C      1  0.5084240000000  0.5647120000000  0.4840460000000 1.0
C      1  0.4841660000000  0.5023170000000  0.5837920000000 1.0
C      1  0.5819780000000  0.4810960000000  0.5030230000000 1.0
C      1  0.5037450000000  0.4163940000000  0.5161850000000 1.0
C      1  0.5012430000000  0.4321410000000  0.4710770000000 1.0
C      1  0.5006750000000  0.5682470000000  0.5281190000000 1.0
C      1  0.4749830000000  0.4968820000000  0.4312230000000 1.0
C      1  0.5242430000000  0.4916150000000  0.5611350000000 1.0
C      1  0.5178980000000  0.5014790000000  0.4165400000000 1.0
C      1  0.5541180000000  0.5135830000000  0.4845590000000 1.0
C      1  0.4209260000000  0.5214290000000  0.5078870000000 1.0
C      1  0.4158050000000  0.4818190000000  0.4970620000000 1.0
C      1  0.5358130000000  0.4697890000000  0.5774620000000 1.0
C      1  0.5740820000000  0.5286630000000  0.4674800000000 1.0
C      1  0.4717460000000  0.5722220000000  0.5322320000000 1.0
C      1  0.5330060000000  0.5270480000000  0.4164740000000 1.0
C      1  0.4680900000000  0.5268980000000  0.5869060000000 1.0
C      1  0.4660820000000  0.4705170000000  0.4258580000000 1.0
C      1  0.5819770000000  0.4682050000000  0.5299840000000 1.0
C      1  0.4209740000000  0.4680530000000  0.4725960000000 1.0
C      1  0.4194350000000  0.5365840000000  0.5304960000000 1.0
C      1  0.4726210000000  0.4260620000000  0.4660830000000 1.0
C      1  0.5285860000000  0.4167320000000  0.5323580000000 1.0
C      1  0.5313920000000  0.5793290000000  0.4686760000000 1.0
C      1  0.5109900000000  0.5552810000000  0.5738280000000 1.0
C      1  0.5714680000000  0.5133630000000  0.5537670000000 1.0
C      1  0.5600900000000  0.5760190000000  0.5107600000000 1.0
C      1  0.5119980000000  0.4497230000000  0.4296380000000 1.0
C      1  0.4879560000000  0.4520310000000  0.5706620000000 1.0
C      1  0.4904560000000  0.5573030000000  0.4307100000000 1.0
C      1  0.5737410000000  0.4843710000000  0.4504840000000 1.0
C      1  0.4297180000000  0.4883130000000  0.5485990000000 1.0
C      1  0.4285260000000  0.5078650000000  0.4429850000000 1.0
C      1  0.5579740000000  0.4226860000000  0.4899010000000 1.0
C      1  0.4554390000000  0.4346100000000  0.5109720000000 1.0
C      1  0.4339200000000  0.5695500000000  0.4874000000000 1.0
C      1  0.4241980000000  0.4808020000000  0.4470990000000 1.0
C      1  0.4614960000000  0.4483700000000  0.4864930000000 1.0
C      1  0.4841580000000  0.4449160000000  0.4227750000000 1.0
C      1  0.4263010000000  0.5172760000000  0.5544390000000 1.0
C      1  0.5777710000000  0.5122060000000  0.4415960000000 1.0
C      1  0.5776430000000  0.4847860000000  0.5564570000000 1.0
C      1  0.4600470000000  0.5505380000000  0.5143070000000 1.0
C      1  0.5599450000000  0.5781250000000  0.4807350000000 1.0
C      1  0.5570840000000  0.4224400000000  0.5193430000000 1.0
C      1  0.4828350000000  0.5541490000000  0.5817150000000 1.0
C      1  0.5183410000000  0.5551580000000  0.4230960000000 1.0
C      1  0.5164370000000  0.4452590000000  0.5753980000000 1.0
C      1  0.4588970000000  0.5808810000000  0.4756940000000 1.0
C      1  0.4734330000000  0.4763680000000  0.5764410000000 1.0
C      1  0.5792320000000  0.4708630000000  0.4759160000000 1.0
C      1  0.4784620000000  0.4256390000000  0.5259050000000 1.0
C      1  0.5355260000000  0.4117720000000  0.4759810000000 1.0
C      1  0.5364480000000  0.5871110000000  0.5221670000000 1.0
C      1  0.4767510000000  0.5356760000000  0.4177680000000 1.0
C      1  0.5258690000000  0.5312420000000  0.5801520000000 1.0
C      1  0.5264660000000  0.4740090000000  0.4246550000000 1.0
C      1  0.5782010000000  0.5260010000000  0.5286380000000 1.0
C      1  0.4162930000000  0.5238780000000  0.4631020000000 1.0
C      1  0.4238310000000  0.4736530000000  0.5242880000000 1.0
C      1  0.4075730000000  0.5087750000000  0.4871560000000 1.0
C      1  0.5111180000000  0.4137640000000  0.4890660000000 1.0
C      1  0.4908820000000  0.5108510000000  0.4109250000000 1.0
C      1  0.5745020000000  0.5087000000000  0.5051660000000 1.0
C      1  0.5124670000000  0.5847250000000  0.5064070000000 1.0
C      1  0.5114340000000  0.5074470000000  0.5796940000000 1.0
C      1  0.5465200000000  0.5509680000000  0.5469520000000 1.0
C      1  0.5498330000000  0.4465450000000  0.4522520000000 1.0
C      1  0.4471150000000  0.4463830000000  0.5532540000000 1.0
C      1  0.4600480000000  0.5423630000000  0.4588030000000 1.0
END
