TITL C-2441161-5029-803 0.087790321162545 125000 -23366.8788441956 0 0 171 (C1) n - 1
REM
REM in /home/bkarasulu/work/CARBON/AIRSS/Generating-Clusters/ReaxFF-fromJPCA2015/Units_Real/with-SteepDescent/Higher-Symm
REM
REM
REM
REM
REM
REM ./C.cell (1df0a924f5614ab8850e4351716899ee)
REM
REM compiler GCC version 9.2.1 20190827 (Red Hat 9.2.1-1)
REM options -cpp -mtune=generic -march=x86-64 -g -O0 -fpre-include=/usr/include/finclude/math-vector-fortran.h
REM seed 2001406743 -772758154 -2138214394 711447111 891884030 -555294913 -427103369 2054162709 -675357800 1091955683 -729878186 1807109026 -530024366 -1718866564 -584237172 -1735417951 -880796889 1917584177 702322627 -1122188851 1497555205 -1457981289 -2119414867 205199327 -136162288 597810819 1088143250 1936706043 691715502 109732803 -1975461529 667403686 -968637412
REM
CELL 1.54180   50.00000   50.00000   50.00000   90.00000   90.00000   90.00000
LATT -1
SFAC C  
C      1  0.5093880000000  0.4320690000000  0.5228380000000 1.0
C      1  0.5220620000000  0.4470650000000  0.5700040000000 1.0
C      1  0.5124050000000  0.5108670000000  0.5715690000000 1.0
C      1  0.5175720000000  0.5589060000000  0.5638430000000 1.0
C      1  0.5149670000000  0.5906240000000  0.5099500000000 1.0
C      1  0.5159900000000  0.5563220000000  0.4544980000000 1.0
C      1  0.5270030000000  0.5239130000000  0.4127630000000 1.0
C      1  0.5080820000000  0.4662390000000  0.4382180000000 1.0
C      1  0.5185390000000  0.4238070000000  0.4602000000000 1.0
C      1  0.5604110000000  0.5899590000000  0.5174700000000 1.0
C      1  0.5571320000000  0.5855110000000  0.4634810000000 1.0
C      1  0.5566880000000  0.5513770000000  0.4193480000000 1.0
C      1  0.5511450000000  0.4747840000000  0.4149960000000 1.0
C      1  0.5546320000000  0.4279110000000  0.4419530000000 1.0
C      1  0.5562010000000  0.4147940000000  0.5070160000000 1.0
C      1  0.5616190000000  0.4322650000000  0.5561550000000 1.0
C      1  0.5542410000000  0.4975310000000  0.5914210000000 1.0
C      1  0.5575200000000  0.5472880000000  0.5771260000000 1.0
C      1  0.3928810000000  0.4624000000000  0.4793010000000 1.0
C      1  0.3994050000000  0.4591850000000  0.5066650000000 1.0
C      1  0.3928690000000  0.4676100000000  0.5315260000000 1.0
C      1  0.3907350000000  0.4937970000000  0.5423260000000 1.0
C      1  0.4008670000000  0.5183030000000  0.5346150000000 1.0
C      1  0.3976810000000  0.5322550000000  0.5097470000000 1.0
C      1  0.3910300000000  0.5298250000000  0.4825020000000 1.0
C      1  0.3971390000000  0.5108860000000  0.4620780000000 1.0
C      1  0.3948750000000  0.4834100000000  0.4613810000000 1.0
C      1  0.4723310000000  0.5742530000000  0.5727700000000 1.0
C      1  0.4770860000000  0.6057010000000  0.5111750000000 1.0
C      1  0.4717630000000  0.5866320000000  0.4429520000000 1.0
C      1  0.4895140000000  0.5209260000000  0.3972450000000 1.0
C      1  0.4998300000000  0.4562220000000  0.3993340000000 1.0
C      1  0.4716210000000  0.4048660000000  0.4577130000000 1.0
C      1  0.4904490000000  0.3942960000000  0.5249880000000 1.0
C      1  0.4740650000000  0.4396570000000  0.5837990000000 1.0
C      1  0.4899190000000  0.5073440000000  0.6080180000000 1.0
C      1  0.5308790000000  0.5538550000000  0.5915450000000 1.0
C      1  0.5328050000000  0.6012460000000  0.5312070000000 1.0
C      1  0.5336380000000  0.6067850000000  0.4622510000000 1.0
C      1  0.5311410000000  0.5518550000000  0.4060260000000 1.0
C      1  0.5216620000000  0.4759730000000  0.3972940000000 1.0
C      1  0.5281450000000  0.4184000000000  0.4320680000000 1.0
C      1  0.5147670000000  0.3921930000000  0.5073040000000 1.0
C      1  0.5344230000000  0.4188570000000  0.5667960000000 1.0
C      1  0.5134730000000  0.4893170000000  0.6070810000000 1.0
C      1  0.4557830000000  0.5280120000000  0.5239950000000 1.0
C      1  0.4668320000000  0.5415540000000  0.4999220000000 1.0
C      1  0.4574710000000  0.5316810000000  0.4747290000000 1.0
C      1  0.4689740000000  0.5133220000000  0.4559960000000 1.0
C      1  0.4664700000000  0.4790220000000  0.4627860000000 1.0
C      1  0.4576650000000  0.4665150000000  0.4874730000000 1.0
C      1  0.4697630000000  0.4691400000000  0.5122280000000 1.0
C      1  0.4581420000000  0.4783460000000  0.5354420000000 1.0
C      1  0.4673180000000  0.5061270000000  0.5378650000000 1.0
C      1  0.4549380000000  0.4732240000000  0.4306210000000 1.0
C      1  0.4454540000000  0.4129820000000  0.4487970000000 1.0
C      1  0.4510460000000  0.4097280000000  0.5146940000000 1.0
C      1  0.4509270000000  0.4576500000000  0.5551300000000 1.0
C      1  0.4494030000000  0.4955950000000  0.5826610000000 1.0
C      1  0.4458930000000  0.5646040000000  0.5784830000000 1.0
C      1  0.4506160000000  0.5710730000000  0.5086440000000 1.0
C      1  0.4447400000000  0.5867210000000  0.4515680000000 1.0
C      1  0.4553500000000  0.5244490000000  0.4287820000000 1.0
C      1  0.5822020000000  0.5352930000000  0.4826210000000 1.0
C      1  0.5936730000000  0.5281100000000  0.4562930000000 1.0
C      1  0.5951080000000  0.4781390000000  0.4542860000000 1.0
C      1  0.5827980000000  0.4733260000000  0.4800910000000 1.0
C      1  0.5939160000000  0.4494330000000  0.4919560000000 1.0
C      1  0.5826120000000  0.4708900000000  0.5301290000000 1.0
C      1  0.5922670000000  0.4798360000000  0.5559260000000 1.0
C      1  0.5840370000000  0.5252820000000  0.5367490000000 1.0
C      1  0.5989420000000  0.5484620000000  0.5192280000000 1.0
C      1  0.4199210000000  0.5177880000000  0.4481960000000 1.0
C      1  0.4161000000000  0.4605430000000  0.4599380000000 1.0
C      1  0.4348460000000  0.4475330000000  0.4857160000000 1.0
C      1  0.4226540000000  0.4475870000000  0.5126060000000 1.0
C      1  0.4072840000000  0.4755880000000  0.5555430000000 1.0
C      1  0.4213750000000  0.5257180000000  0.5518760000000 1.0
C      1  0.4353820000000  0.5440530000000  0.5355460000000 1.0
C      1  0.4125110000000  0.5495350000000  0.4888030000000 1.0
C      1  0.4322880000000  0.5395040000000  0.4641190000000 1.0
C      1  0.4794410000000  0.4146790000000  0.5499680000000 1.0
C      1  0.4678970000000  0.4625620000000  0.5993160000000 1.0
C      1  0.4783040000000  0.5337790000000  0.5953710000000 1.0
C      1  0.4744430000000  0.5909650000000  0.5492070000000 1.0
C      1  0.4664670000000  0.6073140000000  0.4851380000000 1.0
C      1  0.4718030000000  0.5675300000000  0.4202660000000 1.0
C      1  0.4715240000000  0.4982480000000  0.3996560000000 1.0
C      1  0.4767890000000  0.4349710000000  0.4235340000000 1.0
C      1  0.4755080000000  0.3959500000000  0.4856300000000 1.0
C      1  0.5091180000000  0.4883860000000  0.5319200000000 1.0
C      1  0.4968580000000  0.5131330000000  0.5408830000000 1.0
C      1  0.5095830000000  0.5327910000000  0.5191970000000 1.0
C      1  0.4955880000000  0.5366000000000  0.4962010000000 1.0
C      1  0.5093310000000  0.5294830000000  0.4706510000000 1.0
C      1  0.4974210000000  0.5060090000000  0.4588280000000 1.0
C      1  0.4967570000000  0.4765190000000  0.4653270000000 1.0
C      1  0.5090610000000  0.4688830000000  0.4912270000000 1.0
C      1  0.4971830000000  0.4670110000000  0.5163490000000 1.0
C      1  0.5515830000000  0.4710790000000  0.5281010000000 1.0
C      1  0.5365280000000  0.4930050000000  0.5387630000000 1.0
C      1  0.5507310000000  0.5221840000000  0.5349480000000 1.0
C      1  0.5381110000000  0.5388710000000  0.5140510000000 1.0
C      1  0.5514510000000  0.5371970000000  0.4844770000000 1.0
C      1  0.5382040000000  0.5204040000000  0.4652260000000 1.0
C      1  0.5358570000000  0.4920510000000  0.4632370000000 1.0
C      1  0.5511290000000  0.4680770000000  0.4751060000000 1.0
C      1  0.5359760000000  0.4620440000000  0.4992520000000 1.0
C      1  0.4273060000000  0.4629000000000  0.5713100000000 1.0
C      1  0.4343480000000  0.5191430000000  0.5767260000000 1.0
C      1  0.4352780000000  0.5676450000000  0.5520100000000 1.0
C      1  0.4263520000000  0.5766900000000  0.4953450000000 1.0
C      1  0.4329140000000  0.5627900000000  0.4443840000000 1.0
C      1  0.4302570000000  0.5121390000000  0.4220490000000 1.0
C      1  0.4319340000000  0.4555290000000  0.4345310000000 1.0
C      1  0.4348440000000  0.4194530000000  0.4741960000000 1.0
C      1  0.4336910000000  0.4265730000000  0.5294760000000 1.0
C      1  0.4885610000000  0.4242280000000  0.4459090000000 1.0
C      1  0.4799840000000  0.4160730000000  0.5081170000000 1.0
C      1  0.4917790000000  0.4366530000000  0.5625720000000 1.0
C      1  0.4765280000000  0.4893850000000  0.5888350000000 1.0
C      1  0.4893270000000  0.5526280000000  0.5775380000000 1.0
C      1  0.4902410000000  0.5851400000000  0.5252590000000 1.0
C      1  0.4855870000000  0.5944550000000  0.4667490000000 1.0
C      1  0.4905810000000  0.5476820000000  0.4116100000000 1.0
C      1  0.4810470000000  0.4745900000000  0.4136490000000 1.0
C      1  0.4482860000000  0.5518680000000  0.4231530000000 1.0
C      1  0.4443200000000  0.4911910000000  0.4080630000000 1.0
C      1  0.4480150000000  0.4325540000000  0.4270720000000 1.0
C      1  0.4460950000000  0.3984740000000  0.4896650000000 1.0
C      1  0.4528850000000  0.4282830000000  0.5509270000000 1.0
C      1  0.4399290000000  0.4717490000000  0.5955450000000 1.0
C      1  0.4496810000000  0.5387380000000  0.5902900000000 1.0
C      1  0.4504040000000  0.5842310000000  0.5347760000000 1.0
C      1  0.4392290000000  0.5959890000000  0.4776210000000 1.0
C      1  0.5639390000000  0.4147820000000  0.4784620000000 1.0
C      1  0.5732730000000  0.4231700000000  0.5298490000000 1.0
C      1  0.5644500000000  0.4716790000000  0.5863590000000 1.0
C      1  0.5715130000000  0.5193680000000  0.5822190000000 1.0
C      1  0.5668550000000  0.5675900000000  0.5528870000000 1.0
C      1  0.5717660000000  0.5845260000000  0.4916550000000 1.0
C      1  0.5692410000000  0.5713850000000  0.4359550000000 1.0
C      1  0.5665280000000  0.5001920000000  0.4222330000000 1.0
C      1  0.5666120000000  0.4496700000000  0.4257070000000 1.0
C      1  0.5498070000000  0.5231240000000  0.4316350000000 1.0
C      1  0.5310060000000  0.4813650000000  0.4371280000000 1.0
C      1  0.5404960000000  0.4440770000000  0.4612150000000 1.0
C      1  0.5327670000000  0.4335580000000  0.5070890000000 1.0
C      1  0.5433840000000  0.4546950000000  0.5500470000000 1.0
C      1  0.5340040000000  0.4931530000000  0.5693700000000 1.0
C      1  0.5394700000000  0.5374050000000  0.5560710000000 1.0
C      1  0.5521630000000  0.5645470000000  0.5283480000000 1.0
C      1  0.5391870000000  0.5616320000000  0.4688700000000 1.0
C      1  0.5805330000000  0.4563920000000  0.5699180000000 1.0
C      1  0.5883460000000  0.5094190000000  0.5617830000000 1.0
C      1  0.5915080000000  0.5542880000000  0.5460320000000 1.0
C      1  0.5893920000000  0.5613210000000  0.4948480000000 1.0
C      1  0.5882740000000  0.5536550000000  0.4457170000000 1.0
C      1  0.5885150000000  0.5028250000000  0.4398970000000 1.0
C      1  0.5877150000000  0.4511400000000  0.4446660000000 1.0
C      1  0.5851660000000  0.4315710000000  0.4697660000000 1.0
C      1  0.5906400000000  0.4441900000000  0.5209700000000 1.0
C      1  0.5120730000000  0.5609870000000  0.4256570000000 1.0
C      1  0.5145310000000  0.5040090000000  0.3951580000000 1.0
C      1  0.5157970000000  0.4428910000000  0.4206460000000 1.0
C      1  0.5273120000000  0.3996080000000  0.4814220000000 1.0
C      1  0.5206930000000  0.4131780000000  0.5424660000000 1.0
C      1  0.5193770000000  0.4648690000000  0.5964300000000 1.0
C      1  0.5198410000000  0.5277870000000  0.5942900000000 1.0
C      1  0.5239240000000  0.5883030000000  0.5545130000000 1.0
C      1  0.5125630000000  0.5975050000000  0.4795180000000 1.0
END
