TITL C-2441168-9922-9 0.13698511753678 125000 -27256.3883121452 0 0 200 (C1) n - 1
REM
REM in /home/bkarasulu/work/CARBON/AIRSS/Generating-Clusters/ReaxFF-fromJPCA2015/Units_Real/with-SteepDescent/Higher-Symm
REM
REM
REM
REM
REM
REM ./C.cell (1df0a924f5614ab8850e4351716899ee)
REM
REM compiler GCC version 9.2.1 20190827 (Red Hat 9.2.1-1)
REM options -cpp -mtune=generic -march=x86-64 -g -O0 -fpre-include=/usr/include/finclude/math-vector-fortran.h
REM seed 302641179 -26959172 1245915098 2083119520 -2081187544 1434460622 1116821714 274323255 1386401034 221130939 1215753847 -1851302828 1611491134 -1627648598 -1145403768 -670110492 1394933601 -15788618 175376460 -1306195483 -724310844 771557424 1464920166 -2034011868 -1233058963 -692211961 1214612539 943309383 1124857344 -1993819152 -351125466 677680138 -1539749318
REM
CELL 1.54180   50.00000   50.00000   50.00000   90.00000   90.00000   90.00000
LATT -1
SFAC C  
C      1  0.4798500000000  0.4597470000000  0.6144710000000 1.0
C      1  0.5041230000000  0.4492540000000  0.6107950000000 1.0
C      1  0.5310030000000  0.4616740000000  0.6107820000000 1.0
C      1  0.5464750000000  0.4852410000000  0.6110570000000 1.0
C      1  0.5451130000000  0.5133720000000  0.6174200000000 1.0
C      1  0.5266500000000  0.5310090000000  0.6166930000000 1.0
C      1  0.5082180000000  0.5498260000000  0.6119370000000 1.0
C      1  0.4787400000000  0.5477740000000  0.6085360000000 1.0
C      1  0.4671300000000  0.5221090000000  0.6021060000000 1.0
C      1  0.4507060000000  0.5006900000000  0.6097410000000 1.0
C      1  0.4555660000000  0.4718990000000  0.6132270000000 1.0
C      1  0.4449100000000  0.4413410000000  0.4204870000000 1.0
C      1  0.4850750000000  0.4225600000000  0.4319580000000 1.0
C      1  0.5296050000000  0.4263500000000  0.4201270000000 1.0
C      1  0.5653610000000  0.4552170000000  0.4327870000000 1.0
C      1  0.5806390000000  0.4967220000000  0.4313400000000 1.0
C      1  0.5645100000000  0.5378660000000  0.4285110000000 1.0
C      1  0.5345850000000  0.5709550000000  0.4329320000000 1.0
C      1  0.4908960000000  0.5751150000000  0.4305540000000 1.0
C      1  0.4487250000000  0.5612190000000  0.4210070000000 1.0
C      1  0.4222980000000  0.5235610000000  0.4310170000000 1.0
C      1  0.4219390000000  0.4789890000000  0.4300780000000 1.0
C      1  0.5690870000000  0.5654110000000  0.5410290000000 1.0
C      1  0.5245480000000  0.5968620000000  0.5425040000000 1.0
C      1  0.4680620000000  0.5982550000000  0.5435310000000 1.0
C      1  0.4192500000000  0.5636190000000  0.5457210000000 1.0
C      1  0.4032030000000  0.5099690000000  0.5428540000000 1.0
C      1  0.4048160000000  0.4543870000000  0.5405510000000 1.0
C      1  0.4461680000000  0.4137400000000  0.5413870000000 1.0
C      1  0.5027380000000  0.3955170000000  0.5456300000000 1.0
C      1  0.5577450000000  0.4175500000000  0.5428710000000 1.0
C      1  0.5953160000000  0.4578420000000  0.5409520000000 1.0
C      1  0.6008840000000  0.5211480000000  0.5472050000000 1.0
C      1  0.4088100000000  0.4812410000000  0.4777190000000 1.0
C      1  0.4170850000000  0.4227800000000  0.4762130000000 1.0
C      1  0.4742170000000  0.4005310000000  0.4780230000000 1.0
C      1  0.5344890000000  0.4100340000000  0.4737520000000 1.0
C      1  0.5777830000000  0.4391600000000  0.4745950000000 1.0
C      1  0.6141000000000  0.4883620000000  0.4774140000000 1.0
C      1  0.5847100000000  0.5451830000000  0.4769070000000 1.0
C      1  0.5547700000000  0.5919040000000  0.4773070000000 1.0
C      1  0.4969110000000  0.6065850000000  0.4781540000000 1.0
C      1  0.4358560000000  0.5898130000000  0.4775890000000 1.0
C      1  0.4083630000000  0.5323630000000  0.4719720000000 1.0
C      1  0.5289730000000  0.5337800000000  0.5696200000000 1.0
C      1  0.5129630000000  0.5558060000000  0.5819460000000 1.0
C      1  0.4765490000000  0.5527310000000  0.5795480000000 1.0
C      1  0.4642440000000  0.5272210000000  0.5739490000000 1.0
C      1  0.4417300000000  0.4948130000000  0.5825300000000 1.0
C      1  0.4514390000000  0.4673320000000  0.5830400000000 1.0
C      1  0.4804720000000  0.4539190000000  0.5698000000000 1.0
C      1  0.5118250000000  0.4461100000000  0.5793360000000 1.0
C      1  0.5372950000000  0.4591320000000  0.5812280000000 1.0
C      1  0.5539150000000  0.4893890000000  0.5819870000000 1.0
C      1  0.5502370000000  0.5194210000000  0.5838010000000 1.0
C      1  0.4674960000000  0.4749750000000  0.4458850000000 1.0
C      1  0.4886310000000  0.4572120000000  0.4349830000000 1.0
C      1  0.5134830000000  0.4606140000000  0.4479930000000 1.0
C      1  0.5394030000000  0.4697640000000  0.4338280000000 1.0
C      1  0.5518650000000  0.4968830000000  0.4283890000000 1.0
C      1  0.5420780000000  0.5213950000000  0.4413640000000 1.0
C      1  0.5221090000000  0.5435330000000  0.4336460000000 1.0
C      1  0.4953760000000  0.5497660000000  0.4458620000000 1.0
C      1  0.4732680000000  0.5312240000000  0.4463980000000 1.0
C      1  0.4515480000000  0.5171510000000  0.4302440000000 1.0
C      1  0.4495040000000  0.4871030000000  0.4282120000000 1.0
C      1  0.4231770000000  0.5519860000000  0.4313630000000 1.0
C      1  0.4048200000000  0.5010130000000  0.4347190000000 1.0
C      1  0.4212290000000  0.4510250000000  0.4332930000000 1.0
C      1  0.4571130000000  0.4170560000000  0.4322200000000 1.0
C      1  0.5100050000000  0.4083430000000  0.4323220000000 1.0
C      1  0.5570350000000  0.4282800000000  0.4308170000000 1.0
C      1  0.5893490000000  0.4707700000000  0.4368620000000 1.0
C      1  0.5890620000000  0.5233750000000  0.4350400000000 1.0
C      1  0.5627610000000  0.5670330000000  0.4342260000000 1.0
C      1  0.5149780000000  0.5918180000000  0.4345060000000 1.0
C      1  0.4626020000000  0.5833120000000  0.4329360000000 1.0
C      1  0.5143350000000  0.5435180000000  0.5271170000000 1.0
C      1  0.4883430000000  0.5428470000000  0.5322970000000 1.0
C      1  0.4750670000000  0.5227060000000  0.5477810000000 1.0
C      1  0.4570880000000  0.5087240000000  0.5306170000000 1.0
C      1  0.4571140000000  0.4818650000000  0.5326620000000 1.0
C      1  0.4774830000000  0.4653740000000  0.5431990000000 1.0
C      1  0.4962460000000  0.4570690000000  0.5269190000000 1.0
C      1  0.5239400000000  0.4592070000000  0.5318150000000 1.0
C      1  0.5422490000000  0.4801290000000  0.5277660000000 1.0
C      1  0.5470160000000  0.5067300000000  0.5321730000000 1.0
C      1  0.5298870000000  0.5277840000000  0.5432450000000 1.0
C      1  0.6024780000000  0.5310710000000  0.4594170000000 1.0
C      1  0.5737650000000  0.5827570000000  0.4564290000000 1.0
C      1  0.5155970000000  0.6103500000000  0.4570780000000 1.0
C      1  0.4548450000000  0.5980800000000  0.4573610000000 1.0
C      1  0.4085090000000  0.5577920000000  0.4571020000000 1.0
C      1  0.3888240000000  0.4938480000000  0.4587260000000 1.0
C      1  0.4069920000000  0.4392910000000  0.4557630000000 1.0
C      1  0.4536780000000  0.4020050000000  0.4576540000000 1.0
C      1  0.5166860000000  0.3927490000000  0.4573680000000 1.0
C      1  0.5720290000000  0.4175080000000  0.4546420000000 1.0
C      1  0.6090800000000  0.4684780000000  0.4580670000000 1.0
C      1  0.4403390000000  0.4304710000000  0.5187100000000 1.0
C      1  0.4879510000000  0.4048020000000  0.5223250000000 1.0
C      1  0.5422630000000  0.4076050000000  0.5205240000000 1.0
C      1  0.5792430000000  0.4523330000000  0.5178990000000 1.0
C      1  0.5994740000000  0.5029150000000  0.5239610000000 1.0
C      1  0.5786220000000  0.5503370000000  0.5189920000000 1.0
C      1  0.5367430000000  0.5844970000000  0.5206020000000 1.0
C      1  0.4838350000000  0.5900010000000  0.5210810000000 1.0
C      1  0.4345960000000  0.5714970000000  0.5218900000000 1.0
C      1  0.4069410000000  0.5271580000000  0.5206960000000 1.0
C      1  0.4111820000000  0.4725520000000  0.5190860000000 1.0
C      1  0.3904180000000  0.4911490000000  0.5255440000000 1.0
C      1  0.4115650000000  0.4319160000000  0.5237570000000 1.0
C      1  0.4603780000000  0.3955070000000  0.5250660000000 1.0
C      1  0.5235880000000  0.3873630000000  0.5278470000000 1.0
C      1  0.5786370000000  0.4241810000000  0.5231660000000 1.0
C      1  0.6111650000000  0.4767050000000  0.5259720000000 1.0
C      1  0.6052740000000  0.5422940000000  0.5266330000000 1.0
C      1  0.5634320000000  0.5873180000000  0.5239920000000 1.0
C      1  0.5057280000000  0.6091770000000  0.5248330000000 1.0
C      1  0.4452120000000  0.5994460000000  0.5253630000000 1.0
C      1  0.3999850000000  0.5527170000000  0.5275840000000 1.0
C      1  0.4878020000000  0.5463430000000  0.4864620000000 1.0
C      1  0.4696020000000  0.5286750000000  0.4728110000000 1.0
C      1  0.4529460000000  0.5075240000000  0.4838150000000 1.0
C      1  0.4616620000000  0.4811040000000  0.4729140000000 1.0
C      1  0.4758870000000  0.4581430000000  0.4841100000000 1.0
C      1  0.5043750000000  0.4545340000000  0.4732140000000 1.0
C      1  0.5300360000000  0.4572330000000  0.4858170000000 1.0
C      1  0.5454160000000  0.4803600000000  0.4807150000000 1.0
C      1  0.5360210000000  0.5073130000000  0.4693500000000 1.0
C      1  0.5369540000000  0.5311320000000  0.4846880000000 1.0
C      1  0.5158130000000  0.5511380000000  0.4814850000000 1.0
C      1  0.4961280000000  0.4066780000000  0.5711100000000 1.0
C      1  0.5486430000000  0.4166510000000  0.5700770000000 1.0
C      1  0.5849130000000  0.4574140000000  0.5685550000000 1.0
C      1  0.5933230000000  0.5106620000000  0.5717260000000 1.0
C      1  0.5738530000000  0.5601680000000  0.5705390000000 1.0
C      1  0.5312790000000  0.5952210000000  0.5712010000000 1.0
C      1  0.4767350000000  0.5911060000000  0.5713310000000 1.0
C      1  0.4301200000000  0.5630730000000  0.5734970000000 1.0
C      1  0.4024880000000  0.5159310000000  0.5715320000000 1.0
C      1  0.4100300000000  0.4623640000000  0.5678740000000 1.0
C      1  0.4459870000000  0.4229200000000  0.5690670000000 1.0
C      1  0.6060860000000  0.4488280000000  0.4796420000000 1.0
C      1  0.6155490000000  0.5160330000000  0.4795390000000 1.0
C      1  0.5916850000000  0.5731670000000  0.4781870000000 1.0
C      1  0.5362500000000  0.6147310000000  0.4777570000000 1.0
C      1  0.4703990000000  0.6112150000000  0.4779650000000 1.0
C      1  0.4112050000000  0.5765660000000  0.4794560000000 1.0
C      1  0.3834640000000  0.5162920000000  0.4777020000000 1.0
C      1  0.3930650000000  0.4552320000000  0.4767020000000 1.0
C      1  0.4335780000000  0.4006750000000  0.4778740000000 1.0
C      1  0.4987110000000  0.3842460000000  0.4790590000000 1.0
C      1  0.5630860000000  0.3996960000000  0.4771340000000 1.0
C      1  0.5688500000000  0.5067360000000  0.5122850000000 1.0
C      1  0.5643460000000  0.5335680000000  0.4961620000000 1.0
C      1  0.5242150000000  0.5620890000000  0.5081590000000 1.0
C      1  0.4763690000000  0.5580950000000  0.5100300000000 1.0
C      1  0.4497950000000  0.5496120000000  0.5096710000000 1.0
C      1  0.4420950000000  0.5215060000000  0.5080860000000 1.0
C      1  0.4394580000000  0.4734720000000  0.5119610000000 1.0
C      1  0.4562190000000  0.4514410000000  0.5043460000000 1.0
C      1  0.4986820000000  0.4326240000000  0.5133200000000 1.0
C      1  0.5276800000000  0.4381470000000  0.5105920000000 1.0
C      1  0.5620340000000  0.4782170000000  0.5049960000000 1.0
C      1  0.4898350000000  0.4532090000000  0.4059460000000 1.0
C      1  0.5182570000000  0.4469180000000  0.4018150000000 1.0
C      1  0.5332080000000  0.4711120000000  0.4051080000000 1.0
C      1  0.5455340000000  0.4961600000000  0.3972410000000 1.0
C      1  0.5391650000000  0.5233130000000  0.3990980000000 1.0
C      1  0.5211450000000  0.5447450000000  0.4009560000000 1.0
C      1  0.4930750000000  0.5466750000000  0.3999050000000 1.0
C      1  0.4654370000000  0.5436230000000  0.4017190000000 1.0
C      1  0.4586270000000  0.5145400000000  0.4013910000000 1.0
C      1  0.4581880000000  0.4870600000000  0.3959750000000 1.0
C      1  0.4614100000000  0.4587290000000  0.4021540000000 1.0
C      1  0.4164660000000  0.5398650000000  0.5786070000000 1.0
C      1  0.4132520000000  0.4892580000000  0.5784830000000 1.0
C      1  0.4323190000000  0.4473540000000  0.5767480000000 1.0
C      1  0.4739080000000  0.4253610000000  0.5756810000000 1.0
C      1  0.5204790000000  0.4192610000000  0.5773450000000 1.0
C      1  0.5615280000000  0.4416020000000  0.5760820000000 1.0
C      1  0.5824870000000  0.4846630000000  0.5773360000000 1.0
C      1  0.5763690000000  0.5311190000000  0.5784100000000 1.0
C      1  0.5536900000000  0.5781880000000  0.5766380000000 1.0
C      1  0.5044810000000  0.5840440000000  0.5770710000000 1.0
C      1  0.4581350000000  0.5727210000000  0.5833440000000 1.0
C      1  0.4018190000000  0.4341890000000  0.4965140000000 1.0
C      1  0.4538300000000  0.3977820000000  0.4976020000000 1.0
C      1  0.5049260000000  0.3821000000000  0.5069320000000 1.0
C      1  0.5674870000000  0.4037670000000  0.5054630000000 1.0
C      1  0.6140970000000  0.4702240000000  0.4984740000000 1.0
C      1  0.6148100000000  0.5229220000000  0.5073080000000 1.0
C      1  0.5754100000000  0.5888610000000  0.4976550000000 1.0
C      1  0.5147900000000  0.6140250000000  0.4977470000000 1.0
C      1  0.4508830000000  0.6033360000000  0.4974050000000 1.0
C      1  0.4065180000000  0.5716730000000  0.5073480000000 1.0
C      1  0.3852670000000  0.5125070000000  0.5063620000000 1.0
C      1  0.4970990000000  0.4986480000000  0.4975370000000 1.0
C      1  0.5037140000000  0.5008060000000  0.4709600000000 1.0
END
