TITL C-2441154-10-1491 0.0594105931946646 125000 -17802.6764426822 0 0 131 (C1) n - 1
REM
REM in /home/bkarasulu/work/CARBON/AIRSS/Generating-Clusters/ReaxFF-fromJPCA2015/Units_Real/with-SteepDescent/Higher-Symm
REM
REM
REM
REM
REM
REM ./C.cell (1df0a924f5614ab8850e4351716899ee)
REM
REM compiler GCC version 9.2.1 20190827 (Red Hat 9.2.1-1)
REM options -cpp -mtune=generic -march=x86-64 -g -O0 -fpre-include=/usr/include/finclude/math-vector-fortran.h
REM seed 1564335538 -130472083 -1966837692 -819412275 545546224 -548258502 -1554226931 2109902863 1040876526 602265218 1883396834 -699623835 -639673005 -1206638452 -2008761158 -972855798 -1727454963 -1076161669 2052017447 255962282 2460001 -1661180982 1290569607 -2068011286 -1347892804 -1066325067 -777161878 -177701998 1096962441 -1826248791 -444454873 -1363273280 1840216246
REM
CELL 1.54180   50.00000   50.00000   50.00000   90.00000   90.00000   90.00000
LATT -1
SFAC C  
C      1  0.5427330000000  0.4517560000000  0.5811550000000 1.0
C      1  0.5418300000000  0.5463250000000  0.4179470000000 1.0
C      1  0.4995430000000  0.4876170000000  0.4758270000000 1.0
C      1  0.5102850000000  0.5188180000000  0.5202330000000 1.0
C      1  0.4801230000000  0.4530930000000  0.5013840000000 1.0
C      1  0.4806820000000  0.5505860000000  0.4981290000000 1.0
C      1  0.4735270000000  0.4343100000000  0.4432480000000 1.0
C      1  0.4603980000000  0.5611120000000  0.5613490000000 1.0
C      1  0.5657680000000  0.4768460000000  0.5016420000000 1.0
C      1  0.5607390000000  0.5381860000000  0.4887820000000 1.0
C      1  0.4074570000000  0.5160830000000  0.5298250000000 1.0
C      1  0.4215200000000  0.4870180000000  0.4768010000000 1.0
C      1  0.4777290000000  0.4689620000000  0.5855850000000 1.0
C      1  0.4797500000000  0.5337020000000  0.4098590000000 1.0
C      1  0.4597980000000  0.4172910000000  0.4820690000000 1.0
C      1  0.4618330000000  0.5760110000000  0.5362500000000 1.0
C      1  0.5149180000000  0.5758070000000  0.5546010000000 1.0
C      1  0.5182760000000  0.4290270000000  0.4465200000000 1.0
C      1  0.4250550000000  0.4452200000000  0.5116210000000 1.0
C      1  0.4287810000000  0.5573210000000  0.4979380000000 1.0
C      1  0.5281080000000  0.5765590000000  0.4572540000000 1.0
C      1  0.5250000000000  0.4242610000000  0.5390070000000 1.0
C      1  0.5843120000000  0.4650780000000  0.4577670000000 1.0
C      1  0.5858050000000  0.5293700000000  0.5376600000000 1.0
C      1  0.5275050000000  0.5193500000000  0.4523720000000 1.0
C      1  0.5274940000000  0.4724470000000  0.5442300000000 1.0
C      1  0.5230440000000  0.4732840000000  0.4630250000000 1.0
C      1  0.5229420000000  0.5285960000000  0.5449480000000 1.0
C      1  0.5058980000000  0.5868770000000  0.4620900000000 1.0
C      1  0.5041050000000  0.4116500000000  0.5248690000000 1.0
C      1  0.4571590000000  0.4802550000000  0.4331860000000 1.0
C      1  0.4583140000000  0.5131440000000  0.5756240000000 1.0
C      1  0.5008560000000  0.5429870000000  0.5912740000000 1.0
C      1  0.5021180000000  0.4623080000000  0.4127490000000 1.0
C      1  0.5082330000000  0.4522800000000  0.4965280000000 1.0
C      1  0.5052390000000  0.5470130000000  0.5111190000000 1.0
C      1  0.4450690000000  0.5519180000000  0.5225420000000 1.0
C      1  0.4397480000000  0.4411780000000  0.4805190000000 1.0
C      1  0.4696870000000  0.5936800000000  0.4918850000000 1.0
C      1  0.4580620000000  0.4049640000000  0.5085880000000 1.0
C      1  0.5729290000000  0.5038990000000  0.5315500000000 1.0
C      1  0.5729330000000  0.4912290000000  0.4592770000000 1.0
C      1  0.4769680000000  0.4050260000000  0.5316790000000 1.0
C      1  0.4790230000000  0.5961640000000  0.4640790000000 1.0
C      1  0.4922220000000  0.5527850000000  0.4276460000000 1.0
C      1  0.4929040000000  0.4463720000000  0.5731300000000 1.0
C      1  0.5585750000000  0.5660050000000  0.5030290000000 1.0
C      1  0.5640740000000  0.4347440000000  0.5002950000000 1.0
C      1  0.4879450000000  0.5860720000000  0.5371930000000 1.0
C      1  0.4835820000000  0.4139420000000  0.4666600000000 1.0
C      1  0.4572690000000  0.5768370000000  0.4559040000000 1.0
C      1  0.4591800000000  0.4227980000000  0.5448270000000 1.0
C      1  0.5257460000000  0.4479220000000  0.4242920000000 1.0
C      1  0.5238060000000  0.5545350000000  0.5770100000000 1.0
C      1  0.4571370000000  0.5304450000000  0.4612180000000 1.0
C      1  0.4687490000000  0.4695960000000  0.5375490000000 1.0
C      1  0.4734180000000  0.4821230000000  0.4717460000000 1.0
C      1  0.4839280000000  0.5125790000000  0.5314300000000 1.0
C      1  0.5837260000000  0.5295850000000  0.4498720000000 1.0
C      1  0.5808160000000  0.4634960000000  0.5421050000000 1.0
C      1  0.5617860000000  0.4513630000000  0.4469970000000 1.0
C      1  0.5653720000000  0.5458430000000  0.5503300000000 1.0
C      1  0.4142130000000  0.5322690000000  0.5016660000000 1.0
C      1  0.4082890000000  0.4688610000000  0.4948200000000 1.0
C      1  0.5927760000000  0.5198450000000  0.5094190000000 1.0
C      1  0.5858810000000  0.4808760000000  0.4821420000000 1.0
C      1  0.5186740000000  0.5246130000000  0.4787440000000 1.0
C      1  0.5161340000000  0.4764830000000  0.5174720000000 1.0
C      1  0.5733190000000  0.5066760000000  0.4353420000000 1.0
C      1  0.5692900000000  0.4972220000000  0.5590780000000 1.0
C      1  0.4534900000000  0.4842550000000  0.5769410000000 1.0
C      1  0.4508830000000  0.5260610000000  0.4125180000000 1.0
C      1  0.5208450000000  0.5602270000000  0.4323480000000 1.0
C      1  0.5206510000000  0.4390180000000  0.5664930000000 1.0
C      1  0.4411070000000  0.4236360000000  0.5230710000000 1.0
C      1  0.4471180000000  0.5758720000000  0.4833420000000 1.0
C      1  0.5030490000000  0.5155000000000  0.4072630000000 1.0
C      1  0.4976190000000  0.4904460000000  0.5885610000000 1.0
C      1  0.5658140000000  0.5480040000000  0.4354800000000 1.0
C      1  0.5672180000000  0.4497200000000  0.5651990000000 1.0
C      1  0.4138520000000  0.5157500000000  0.4782400000000 1.0
C      1  0.4059420000000  0.4830100000000  0.5195250000000 1.0
C      1  0.4390260000000  0.5013850000000  0.4223550000000 1.0
C      1  0.4183620000000  0.5030360000000  0.5534230000000 1.0
C      1  0.5494160000000  0.4991420000000  0.4211720000000 1.0
C      1  0.5538730000000  0.5040610000000  0.5805910000000 1.0
C      1  0.4241810000000  0.5408940000000  0.5423270000000 1.0
C      1  0.4271080000000  0.4430770000000  0.4538700000000 1.0
C      1  0.4883180000000  0.4843470000000  0.4277370000000 1.0
C      1  0.4850210000000  0.5169780000000  0.5854130000000 1.0
C      1  0.5592580000000  0.4334060000000  0.4700460000000 1.0
C      1  0.5581250000000  0.5677380000000  0.5328240000000 1.0
C      1  0.5436320000000  0.4206940000000  0.5149600000000 1.0
C      1  0.5395620000000  0.5804120000000  0.4878430000000 1.0
C      1  0.5387280000000  0.4804570000000  0.5902760000000 1.0
C      1  0.5337560000000  0.5193200000000  0.4078730000000 1.0
C      1  0.4715600000000  0.5524230000000  0.4484580000000 1.0
C      1  0.4718020000000  0.4455090000000  0.5526670000000 1.0
C      1  0.4954620000000  0.5136450000000  0.4774250000000 1.0
C      1  0.4913420000000  0.4858460000000  0.5332200000000 1.0
C      1  0.5523390000000  0.4594510000000  0.5425870000000 1.0
C      1  0.5489000000000  0.5388430000000  0.4573670000000 1.0
C      1  0.5290240000000  0.4067050000000  0.4913490000000 1.0
C      1  0.5240750000000  0.5913610000000  0.5096270000000 1.0
C      1  0.5803630000000  0.4554030000000  0.5135580000000 1.0
C      1  0.5884280000000  0.5292390000000  0.4832160000000 1.0
C      1  0.4579360000000  0.5216090000000  0.5231720000000 1.0
C      1  0.4484910000000  0.4769010000000  0.4674830000000 1.0
C      1  0.4860890000000  0.4399570000000  0.4189480000000 1.0
C      1  0.4833530000000  0.5587590000000  0.5772690000000 1.0
C      1  0.4228740000000  0.4656970000000  0.5336390000000 1.0
C      1  0.4287570000000  0.5334200000000  0.4600780000000 1.0
C      1  0.5378000000000  0.4153740000000  0.4641690000000 1.0
C      1  0.5352400000000  0.5852960000000  0.5356140000000 1.0
C      1  0.5040710000000  0.5083230000000  0.4357860000000 1.0
C      1  0.5191900000000  0.4840510000000  0.5691400000000 1.0
C      1  0.5433620000000  0.5328100000000  0.5675400000000 1.0
C      1  0.5398880000000  0.4718830000000  0.4367780000000 1.0
C      1  0.4292540000000  0.4779020000000  0.5609160000000 1.0
C      1  0.4281680000000  0.5273240000000  0.4317340000000 1.0
C      1  0.5402920000000  0.5168240000000  0.4964580000000 1.0
C      1  0.5421230000000  0.4912280000000  0.5088700000000 1.0
C      1  0.5120140000000  0.5531290000000  0.5390210000000 1.0
C      1  0.5092890000000  0.4492610000000  0.4667010000000 1.0
C      1  0.4590900000000  0.4732570000000  0.5107680000000 1.0
C      1  0.4707860000000  0.5221360000000  0.4850020000000 1.0
C      1  0.5007090000000  0.4078650000000  0.4892420000000 1.0
C      1  0.4927140000000  0.5939600000000  0.5110500000000 1.0
C      1  0.4500290000000  0.4501150000000  0.4347850000000 1.0
C      1  0.4424590000000  0.5364930000000  0.5641810000000 1.0
C      1  0.4545910000000  0.5012320000000  0.5039990000000 1.0
END
