TITL C-2441160-1326-992 0.0120649749281929 125000 -8480.25904141224 0 0 64 (C1) n - 1
REM
REM in /home/bkarasulu/work/CARBON/AIRSS/Generating-Clusters/ReaxFF-fromJPCA2015/Units_Real/with-SteepDescent/Higher-Symm
REM
REM
REM
REM
REM
REM ./C.cell (1df0a924f5614ab8850e4351716899ee)
REM
REM compiler GCC version 9.2.1 20190827 (Red Hat 9.2.1-1)
REM options -cpp -mtune=generic -march=x86-64 -g -O0 -fpre-include=/usr/include/finclude/math-vector-fortran.h
REM seed 1130265996 -1177307647 -1141364853 -172502320 1517959743 100562427 2044163455 -139526102 1246717700 1048783967 353046501 -1806389628 -1800096004 -1986604591 1806310748 -1768650138 321242547 214794515 126503423 1190631085 1042837033 1968821026 -2003548794 -147301873 950869891 2057770493 1021322559 1880283908 1433074224 -1378565878 2040493693 -770947276 -162781711
REM
CELL 1.54180   50.00000   50.00000   50.00000   90.00000   90.00000   90.00000
LATT -1
SFAC C  
C      1  0.4489220000000  0.5303490000000  0.4501160000000 1.0
C      1  0.4484570000000  0.5562760000000  0.5139030000000 1.0
C      1  0.4487110000000  0.5040030000000  0.5578070000000 1.0
C      1  0.4483560000000  0.4451150000000  0.5211230000000 1.0
C      1  0.4486320000000  0.4618930000000  0.4543280000000 1.0
C      1  0.5510450000000  0.5305130000000  0.4502800000000 1.0
C      1  0.5515160000000  0.5565260000000  0.5139900000000 1.0
C      1  0.5515040000000  0.5039760000000  0.5581500000000 1.0
C      1  0.5509690000000  0.4455070000000  0.5215150000000 1.0
C      1  0.5516320000000  0.4621820000000  0.4544180000000 1.0
C      1  0.4468010000000  0.4455270000000  0.4794560000000 1.0
C      1  0.4471110000000  0.5018570000000  0.4421800000000 1.0
C      1  0.4492080000000  0.5553300000000  0.4844960000000 1.0
C      1  0.4466970000000  0.5319370000000  0.5473620000000 1.0
C      1  0.4472980000000  0.4636180000000  0.5442870000000 1.0
C      1  0.5525400000000  0.4454920000000  0.4789170000000 1.0
C      1  0.5530410000000  0.5020610000000  0.4420910000000 1.0
C      1  0.5507360000000  0.5556240000000  0.4845340000000 1.0
C      1  0.5532010000000  0.5319700000000  0.5472250000000 1.0
C      1  0.5531380000000  0.4645610000000  0.5442980000000 1.0
C      1  0.5204700000000  0.4453680000000  0.5237330000000 1.0
C      1  0.5209550000000  0.4598960000000  0.4553720000000 1.0
C      1  0.5207170000000  0.5292510000000  0.4486050000000 1.0
C      1  0.5207740000000  0.5578890000000  0.5132660000000 1.0
C      1  0.5206740000000  0.5054860000000  0.5587300000000 1.0
C      1  0.4789220000000  0.4455200000000  0.5237780000000 1.0
C      1  0.4794770000000  0.4601130000000  0.4551940000000 1.0
C      1  0.4792500000000  0.5293830000000  0.4486940000000 1.0
C      1  0.4791750000000  0.5578190000000  0.5133160000000 1.0
C      1  0.4792500000000  0.5058520000000  0.5589460000000 1.0
C      1  0.5135520000000  0.4626830000000  0.5005700000000 1.0
C      1  0.5138480000000  0.4874910000000  0.4653880000000 1.0
C      1  0.5139320000000  0.5280870000000  0.4778540000000 1.0
C      1  0.5141490000000  0.5299580000000  0.5209360000000 1.0
C      1  0.5141260000000  0.4890310000000  0.5350190000000 1.0
C      1  0.4856230000000  0.4633380000000  0.5004490000000 1.0
C      1  0.4861750000000  0.4873190000000  0.4641500000000 1.0
C      1  0.4859300000000  0.5279120000000  0.4778630000000 1.0
C      1  0.4863330000000  0.5296160000000  0.5207790000000 1.0
C      1  0.4862690000000  0.4893010000000  0.5350440000000 1.0
C      1  0.4792420000000  0.5564360000000  0.4844260000000 1.0
C      1  0.4769940000000  0.5328160000000  0.5490180000000 1.0
C      1  0.4768520000000  0.4631220000000  0.5464180000000 1.0
C      1  0.4768590000000  0.4452430000000  0.4796040000000 1.0
C      1  0.4771700000000  0.5017590000000  0.4409760000000 1.0
C      1  0.5206920000000  0.5566670000000  0.4843640000000 1.0
C      1  0.5230630000000  0.5319470000000  0.5480230000000 1.0
C      1  0.5230600000000  0.4637350000000  0.5457830000000 1.0
C      1  0.5228950000000  0.4438000000000  0.4791710000000 1.0
C      1  0.5229560000000  0.5017170000000  0.4405520000000 1.0
C      1  0.5605410000000  0.4875730000000  0.4661200000000 1.0
C      1  0.5592950000000  0.5284980000000  0.4781820000000 1.0
C      1  0.5606940000000  0.5294340000000  0.5193260000000 1.0
C      1  0.5603810000000  0.4905590000000  0.5336690000000 1.0
C      1  0.5601160000000  0.4635780000000  0.5006020000000 1.0
C      1  0.4396470000000  0.4872230000000  0.4660150000000 1.0
C      1  0.4406000000000  0.5283350000000  0.4779450000000 1.0
C      1  0.4393590000000  0.5292020000000  0.5193110000000 1.0
C      1  0.4398820000000  0.4899630000000  0.5338360000000 1.0
C      1  0.4391840000000  0.4638800000000  0.5005290000000 1.0
C      1  0.4456770000000  0.4991040000000  0.4992690000000 1.0
C      1  0.5542850000000  0.4984610000000  0.4987950000000 1.0
C      1  0.5235000000000  0.5001900000000  0.5001910000000 1.0
C      1  0.4764960000000  0.4989610000000  0.4991410000000 1.0
END
