TITL C-2441166-8118-1278 0.0302761078340743 125000 -6265.64838034662 0 0 56 (D3h) n - 1
REM
REM in /home/bkarasulu/work/CARBON/AIRSS/Generating-Clusters/ReaxFF-fromJPCA2015/Units_Real/with-SteepDescent/Higher-Symm
REM
REM
REM
REM
REM
REM ./C.cell (1df0a924f5614ab8850e4351716899ee)
REM
REM compiler GCC version 9.2.1 20190827 (Red Hat 9.2.1-1)
REM options -cpp -mtune=generic -march=x86-64 -g -O0 -fpre-include=/usr/include/finclude/math-vector-fortran.h
REM seed 845050681 -45874000 -1427902762 -607839430 -1458165166 -1600346944 524190949 212590019 1827685894 -1812867935 981247480 739834014 1463039715 -1815451980 1045347609 -1100027895 1305451642 625884974 1997038662 -711544524 960962869 -1620571368 -299409297 2144593309 1763734960 -319053550 -252733988 -342361154 -1728372268 360082229 1841680940 -276397293 2032069167
REM
CELL 1.54180   50.00000   50.00000   50.00000   90.00000   90.00000   90.00000
LATT -1
SFAC C  
C      1  0.4924160000000  0.5353800000000  0.5573370000000 1.0
C      1  0.4541330000000  0.5353800000000  0.4654570000000 1.0
C      1  0.5528350000000  0.5353730000000  0.4782450000000 1.0
C      1  0.4924160000000  0.4673720000000  0.5573350000000 1.0
C      1  0.4541360000000  0.4673730000000  0.4654580000000 1.0
C      1  0.5528520000000  0.4673680000000  0.4782410000000 1.0
C      1  0.4924190000000  0.5353740000000  0.4433620000000 1.0
C      1  0.4541320000000  0.5353810000000  0.5352350000000 1.0
C      1  0.5528430000000  0.5353780000000  0.5224480000000 1.0
C      1  0.4924140000000  0.4673670000000  0.4433490000000 1.0
C      1  0.4541340000000  0.4673710000000  0.5352340000000 1.0
C      1  0.5528400000000  0.4673760000000  0.5224460000000 1.0
C      1  0.5042160000000  0.5531960000000  0.4641050000000 1.0
C      1  0.5289720000000  0.5531950000000  0.5222920000000 1.0
C      1  0.4662040000000  0.5531930000000  0.5146370000000 1.0
C      1  0.5042160000000  0.4495550000000  0.4641040000000 1.0
C      1  0.5289730000000  0.4495540000000  0.5222920000000 1.0
C      1  0.4662040000000  0.4495560000000  0.5146370000000 1.0
C      1  0.5042170000000  0.5531950000000  0.5365860000000 1.0
C      1  0.5289720000000  0.5531950000000  0.4783980000000 1.0
C      1  0.4662040000000  0.5531940000000  0.4860530000000 1.0
C      1  0.5042170000000  0.4495540000000  0.5365860000000 1.0
C      1  0.5289720000000  0.4495560000000  0.4783980000000 1.0
C      1  0.4662040000000  0.4495560000000  0.4860520000000 1.0
C      1  0.5428940000000  0.4858750000000  0.4577110000000 1.0
C      1  0.5151740000000  0.4858750000000  0.5589860000000 1.0
C      1  0.4413250000000  0.4858740000000  0.4843400000000 1.0
C      1  0.5428950000000  0.5168740000000  0.4577100000000 1.0
C      1  0.5151740000000  0.5168750000000  0.5589870000000 1.0
C      1  0.4413250000000  0.5168750000000  0.4843400000000 1.0
C      1  0.5428960000000  0.4858750000000  0.5429820000000 1.0
C      1  0.5151740000000  0.4858740000000  0.4417040000000 1.0
C      1  0.4413270000000  0.4858750000000  0.5163500000000 1.0
C      1  0.5428960000000  0.5168750000000  0.5429820000000 1.0
C      1  0.5151750000000  0.5168760000000  0.4417020000000 1.0
C      1  0.4413270000000  0.5168750000000  0.5163500000000 1.0
C      1  0.5226020000000  0.4874190000000  0.5138450000000 1.0
C      1  0.4767070000000  0.4874260000000  0.5133390000000 1.0
C      1  0.5000940000000  0.4874300000000  0.4738580000000 1.0
C      1  0.5225980000000  0.5153260000000  0.5138450000000 1.0
C      1  0.4767090000000  0.5153210000000  0.5133370000000 1.0
C      1  0.5000900000000  0.5153270000000  0.4738440000000 1.0
C      1  0.5225890000000  0.4874310000000  0.4868450000000 1.0
C      1  0.4767070000000  0.4874220000000  0.4873500000000 1.0
C      1  0.5000890000000  0.4874250000000  0.5268400000000 1.0
C      1  0.5226050000000  0.5153280000000  0.4868400000000 1.0
C      1  0.4767090000000  0.5153230000000  0.4873530000000 1.0
C      1  0.5000900000000  0.5153220000000  0.5268370000000 1.0
C      1  0.4692410000000  0.5171490000000  0.4474180000000 1.0
C      1  0.5609140000000  0.5171490000000  0.5003450000000 1.0
C      1  0.4692410000000  0.4855990000000  0.5532710000000 1.0
C      1  0.5609120000000  0.4855990000000  0.5003440000000 1.0
C      1  0.4692410000000  0.5171490000000  0.5532720000000 1.0
C      1  0.4692420000000  0.4855990000000  0.4474190000000 1.0
C      1  0.4998030000000  0.5564360000000  0.5003460000000 1.0
C      1  0.4998030000000  0.4463110000000  0.5003460000000 1.0
END
