TITL C-2441164-471-417 0.000456994014562539 125000 -2216.63187179 0 0 17 (C1) n - 1
REM
REM in /home/bkarasulu/work/CARBON/AIRSS/Generating-Clusters/ReaxFF-fromJPCA2015/Units_Real/with-SteepDescent/Higher-Symm
REM
REM
REM
REM
REM
REM ./C.cell (1df0a924f5614ab8850e4351716899ee)
REM
REM compiler GCC version 9.2.1 20190827 (Red Hat 9.2.1-1)
REM options -cpp -mtune=generic -march=x86-64 -g -O0 -fpre-include=/usr/include/finclude/math-vector-fortran.h
REM seed -1346447960 265461169 -1362624711 216224978 2047456525 606207027 -1841938794 -2121024034 -737174664 1338719529 -1366189639 -589231251 -1410012769 -1640642783 -1706218965 803591535 391843035 -836635864 2030072915 325092749 252612458 1512471257 -1540080549 1297533693 -598236388 879718274 -1972651931 -1419742315 749753656 437852494 37158349 323528708 -1482208927
REM
CELL 1.54180   50.00000   50.00000   50.00000   90.00000   90.00000   90.00000
LATT -1
SFAC C  
C      1  0.4887080000000  0.4570830000000  0.4665150000000 1.0
C      1  0.5107520000000  0.5286760000000  0.5396090000000 1.0
C      1  0.5283500000000  0.4477170000000  0.4967970000000 1.0
C      1  0.4847090000000  0.5477400000000  0.4997250000000 1.0
C      1  0.4663110000000  0.5057090000000  0.5258180000000 1.0
C      1  0.5281750000000  0.4867010000000  0.4790780000000 1.0
C      1  0.5370920000000  0.4384270000000  0.5172080000000 1.0
C      1  0.4667730000000  0.5636990000000  0.4908380000000 1.0
C      1  0.5335700000000  0.5194700000000  0.5196830000000 1.0
C      1  0.4675300000000  0.4746710000000  0.4796500000000 1.0
C      1  0.4481090000000  0.4665840000000  0.4650810000000 1.0
C      1  0.5578050000000  0.5148710000000  0.5269270000000 1.0
C      1  0.5215980000000  0.5122530000000  0.4908320000000 1.0
C      1  0.4739220000000  0.5017600000000  0.4979740000000 1.0
C      1  0.5180290000000  0.4586840000000  0.4727000000000 1.0
C      1  0.4846830000000  0.5310540000000  0.5281530000000 1.0
C      1  0.4936990000000  0.5208230000000  0.4877760000000 1.0
END
