TITL C-2441167-4473-37 0.00544634840532965 125000 -8822.87837721687 0 0 61 (C1) n - 1
REM
REM in /home/bkarasulu/work/CARBON/AIRSS/Generating-Clusters/ReaxFF-fromJPCA2015/Units_Real/with-SteepDescent/Higher-Symm
REM
REM
REM
REM
REM
REM ./C.cell (1df0a924f5614ab8850e4351716899ee)
REM
REM compiler GCC version 9.2.1 20190827 (Red Hat 9.2.1-1)
REM options -cpp -mtune=generic -march=x86-64 -g -O0 -fpre-include=/usr/include/finclude/math-vector-fortran.h
REM seed 1999973779 1889907541 232929152 -266980113 -640398293 -1960978779 1422195208 -1080426731 844025103 1513376962 911085619 -1604452912 925729918 396257935 -1197628870 1666430384 148389682 2096364271 205265190 1908506634 -713499932 256044698 1067771892 1984318857 1942859462 -1850769581 -1651703572 -1837813238 1227682728 -1957382667 -1169715029 678689077 -1374391624
REM
CELL 1.54180   50.00000   50.00000   50.00000   90.00000   90.00000   90.00000
LATT -1
SFAC C  
C      1  0.5487970000000  0.5246530000000  0.5465540000000 1.0
C      1  0.5392820000000  0.4774000000000  0.4562930000000 1.0
C      1  0.4511430000000  0.5210220000000  0.4524750000000 1.0
C      1  0.4493430000000  0.4743630000000  0.5451170000000 1.0
C      1  0.5401610000000  0.4827100000000  0.4855630000000 1.0
C      1  0.5504680000000  0.5217760000000  0.5160940000000 1.0
C      1  0.4484110000000  0.4787360000000  0.5139130000000 1.0
C      1  0.4363990000000  0.5197590000000  0.4804410000000 1.0
C      1  0.5562000000000  0.5152080000000  0.4527620000000 1.0
C      1  0.5510270000000  0.4840370000000  0.5452950000000 1.0
C      1  0.4495360000000  0.5158750000000  0.5445410000000 1.0
C      1  0.4466240000000  0.4723610000000  0.4450780000000 1.0
C      1  0.4966520000000  0.5761420000000  0.4776780000000 1.0
C      1  0.5114800000000  0.4332030000000  0.5239540000000 1.0
C      1  0.4912130000000  0.5695460000000  0.5188080000000 1.0
C      1  0.4973410000000  0.4294040000000  0.4787240000000 1.0
C      1  0.5527120000000  0.4623260000000  0.5011540000000 1.0
C      1  0.5625130000000  0.5425520000000  0.4999760000000 1.0
C      1  0.4407170000000  0.4998890000000  0.4990200000000 1.0
C      1  0.4354260000000  0.5408720000000  0.5004630000000 1.0
C      1  0.5385600000000  0.5004130000000  0.5623770000000 1.0
C      1  0.5378090000000  0.5000830000000  0.4374630000000 1.0
C      1  0.4606700000000  0.4965260000000  0.4377670000000 1.0
C      1  0.4597090000000  0.4974990000000  0.5622180000000 1.0
C      1  0.5465350000000  0.5691080000000  0.5043350000000 1.0
C      1  0.5499420000000  0.4342810000000  0.4896650000000 1.0
C      1  0.4441530000000  0.5685970000000  0.4899930000000 1.0
C      1  0.4526780000000  0.4253580000000  0.5081890000000 1.0
C      1  0.4790220000000  0.5438230000000  0.5299280000000 1.0
C      1  0.4633990000000  0.4632290000000  0.4934080000000 1.0
C      1  0.5270230000000  0.5299550000000  0.4772550000000 1.0
C      1  0.5288990000000  0.4447690000000  0.5432140000000 1.0
C      1  0.5524710000000  0.4611790000000  0.5305670000000 1.0
C      1  0.5557330000000  0.5365640000000  0.4710870000000 1.0
C      1  0.4532850000000  0.4667810000000  0.4663480000000 1.0
C      1  0.4495850000000  0.5372970000000  0.5267570000000 1.0
C      1  0.4309110000000  0.4185190000000  0.5159700000000 1.0
C      1  0.4291040000000  0.5807320000000  0.4722820000000 1.0
C      1  0.5661860000000  0.4236640000000  0.4728660000000 1.0
C      1  0.5651730000000  0.5777950000000  0.5194850000000 1.0
C      1  0.5229520000000  0.4569560000000  0.4442840000000 1.0
C      1  0.5301590000000  0.5444520000000  0.5527760000000 1.0
C      1  0.4682460000000  0.4558230000000  0.5499790000000 1.0
C      1  0.4699690000000  0.5412030000000  0.4516610000000 1.0
C      1  0.5108050000000  0.4884030000000  0.5666270000000 1.0
C      1  0.5097130000000  0.5100650000000  0.4365650000000 1.0
C      1  0.4893140000000  0.4906100000000  0.4345280000000 1.0
C      1  0.4881270000000  0.5057750000000  0.5651230000000 1.0
C      1  0.4928950000000  0.5556650000000  0.4546030000000 1.0
C      1  0.4895980000000  0.4422560000000  0.5539930000000 1.0
C      1  0.5083310000000  0.5561230000000  0.5555560000000 1.0
C      1  0.5016900000000  0.4405590000000  0.4522380000000 1.0
C      1  0.5112240000000  0.4590820000000  0.5624360000000 1.0
C      1  0.5096560000000  0.5318240000000  0.4544400000000 1.0
C      1  0.4979760000000  0.4633100000000  0.4348340000000 1.0
C      1  0.4891420000000  0.5351930000000  0.5561500000000 1.0
C      1  0.4740810000000  0.5781920000000  0.4961670000000 1.0
C      1  0.4777320000000  0.4367760000000  0.5001530000000 1.0
C      1  0.5148190000000  0.5734250000000  0.5006700000000 1.0
C      1  0.5185260000000  0.4260750000000  0.4978110000000 1.0
C      1  0.5324450000000  0.5088090000000  0.4969350000000 1.0
END
