TITL C-2441156-4686-1207 0.0702722875240199 125000 -11396.5906341045 0 0 94 (C1) n - 1
REM
REM in /home/bkarasulu/work/CARBON/AIRSS/Generating-Clusters/ReaxFF-fromJPCA2015/Units_Real/with-SteepDescent/Higher-Symm
REM
REM
REM
REM
REM
REM ./C.cell (1df0a924f5614ab8850e4351716899ee)
REM
REM compiler GCC version 9.2.1 20190827 (Red Hat 9.2.1-1)
REM options -cpp -mtune=generic -march=x86-64 -g -O0 -fpre-include=/usr/include/finclude/math-vector-fortran.h
REM seed 176613788 -103140109 -2091194782 1688172629 1374347247 1848595230 -1927025745 538090540 -1160592771 517253957 -1563004141 1405047699 53015268 259519145 -283752150 -1732324852 462856785 -1024372570 -2009998532 180106537 1634348915 28756718 -1039120359 1546429884 -1040911324 1291290429 517883649 -502574440 1877622752 605433361 -1332506134 158638302 -2137444230
REM
CELL 1.54180   50.00000   50.00000   50.00000   90.00000   90.00000   90.00000
LATT -1
SFAC C  
C      1  0.4392160000000  0.4781510000000  0.5279290000000 1.0
C      1  0.4383810000000  0.4857520000000  0.4743450000000 1.0
C      1  0.4400140000000  0.5295370000000  0.5020730000000 1.0
C      1  0.5659210000000  0.5132120000000  0.5286120000000 1.0
C      1  0.5632410000000  0.5125940000000  0.4720540000000 1.0
C      1  0.5652870000000  0.4690490000000  0.5013800000000 1.0
C      1  0.5883320000000  0.4843760000000  0.4946510000000 1.0
C      1  0.5871260000000  0.5119640000000  0.4870360000000 1.0
C      1  0.5892990000000  0.5049790000000  0.5145110000000 1.0
C      1  0.4143860000000  0.5164160000000  0.4981110000000 1.0
C      1  0.4131680000000  0.4881390000000  0.4893880000000 1.0
C      1  0.4160730000000  0.4940820000000  0.5176080000000 1.0
C      1  0.5414010000000  0.4853720000000  0.5656670000000 1.0
C      1  0.5389770000000  0.4487470000000  0.4493270000000 1.0
C      1  0.5401020000000  0.5689770000000  0.4812690000000 1.0
C      1  0.4592400000000  0.5143580000000  0.5734340000000 1.0
C      1  0.4597480000000  0.5535730000000  0.4475480000000 1.0
C      1  0.4616490000000  0.4274100000000  0.4784460000000 1.0
C      1  0.4471560000000  0.5166010000000  0.5479510000000 1.0
C      1  0.4460600000000  0.4519780000000  0.4858750000000 1.0
C      1  0.4462160000000  0.5329090000000  0.4629650000000 1.0
C      1  0.5605520000000  0.4870720000000  0.5457270000000 1.0
C      1  0.5535780000000  0.5457200000000  0.4909640000000 1.0
C      1  0.5532100000000  0.4682380000000  0.4645250000000 1.0
C      1  0.4738520000000  0.4629920000000  0.4915210000000 1.0
C      1  0.4735830000000  0.5250620000000  0.4715090000000 1.0
C      1  0.4719580000000  0.5110450000000  0.5359150000000 1.0
C      1  0.5262260000000  0.5283430000000  0.4899720000000 1.0
C      1  0.5264340000000  0.4778730000000  0.4806030000000 1.0
C      1  0.5218360000000  0.4952340000000  0.5265210000000 1.0
C      1  0.5312660000000  0.4740650000000  0.5090760000000 1.0
C      1  0.5304110000000  0.5056730000000  0.4731950000000 1.0
C      1  0.5291300000000  0.5211570000000  0.5184170000000 1.0
C      1  0.4703920000000  0.5247600000000  0.5121110000000 1.0
C      1  0.4712230000000  0.4984150000000  0.4725450000000 1.0
C      1  0.4730050000000  0.4763600000000  0.5155430000000 1.0
C      1  0.4492630000000  0.5630370000000  0.5258040000000 1.0
C      1  0.4588950000000  0.4454090000000  0.5489450000000 1.0
C      1  0.4500230000000  0.4917360000000  0.4337370000000 1.0
C      1  0.5506800000000  0.4386260000000  0.5270150000000 1.0
C      1  0.5507170000000  0.5513360000000  0.5408820000000 1.0
C      1  0.5515940000000  0.5101550000000  0.4322720000000 1.0
C      1  0.5051470000000  0.5136120000000  0.4238390000000 1.0
C      1  0.5067900000000  0.5612540000000  0.5497300000000 1.0
C      1  0.5008610000000  0.4266810000000  0.5218160000000 1.0
C      1  0.4982430000000  0.4850600000000  0.4199780000000 1.0
C      1  0.4899170000000  0.4383620000000  0.5486300000000 1.0
C      1  0.4962670000000  0.5739110000000  0.5250010000000 1.0
C      1  0.4338080000000  0.5057730000000  0.4538230000000 1.0
C      1  0.4333870000000  0.5373150000000  0.5291350000000 1.0
C      1  0.4357880000000  0.4509680000000  0.5144550000000 1.0
C      1  0.5675110000000  0.4922120000000  0.4526040000000 1.0
C      1  0.5691440000000  0.4627370000000  0.5289210000000 1.0
C      1  0.5657120000000  0.5409250000000  0.5180110000000 1.0
C      1  0.4533850000000  0.4730520000000  0.5555580000000 1.0
C      1  0.4636930000000  0.4679860000000  0.4442400000000 1.0
C      1  0.4566600000000  0.5681460000000  0.4977470000000 1.0
C      1  0.5420070000000  0.5303420000000  0.5593980000000 1.0
C      1  0.5434430000000  0.5359940000000  0.4421430000000 1.0
C      1  0.5438540000000  0.4320850000000  0.4993900000000 1.0
C      1  0.4778590000000  0.4212630000000  0.5039620000000 1.0
C      1  0.4839090000000  0.5373860000000  0.4282920000000 1.0
C      1  0.4866330000000  0.5462200000000  0.5670980000000 1.0
C      1  0.5182130000000  0.5804130000000  0.5036020000000 1.0
C      1  0.5199640000000  0.4637460000000  0.4277900000000 1.0
C      1  0.5133060000000  0.4549830000000  0.5654330000000 1.0
C      1  0.5380510000000  0.4498950000000  0.5520340000000 1.0
C      1  0.5390010000000  0.4848850000000  0.4248260000000 1.0
C      1  0.5376760000000  0.5712080000000  0.5228490000000 1.0
C      1  0.4638020000000  0.5550850000000  0.5507320000000 1.0
C      1  0.4637120000000  0.5171990000000  0.4270810000000 1.0
C      1  0.4557400000000  0.4324930000000  0.5225940000000 1.0
C      1  0.4904070000000  0.5465310000000  0.5160430000000 1.0
C      1  0.4912930000000  0.4627090000000  0.5323710000000 1.0
C      1  0.4888500000000  0.4867790000000  0.4492450000000 1.0
C      1  0.5115990000000  0.4532600000000  0.5180270000000 1.0
C      1  0.5114640000000  0.5384640000000  0.5322880000000 1.0
C      1  0.5100680000000  0.5081870000000  0.4516430000000 1.0
C      1  0.5300620000000  0.5111430000000  0.5760350000000 1.0
C      1  0.5336920000000  0.4297130000000  0.4722700000000 1.0
C      1  0.5338570000000  0.5602720000000  0.4534790000000 1.0
C      1  0.4702980000000  0.4878860000000  0.5754190000000 1.0
C      1  0.4665430000000  0.5709390000000  0.4710050000000 1.0
C      1  0.4679760000000  0.4401360000000  0.4521140000000 1.0
C      1  0.5048540000000  0.4322340000000  0.4768240000000 1.0
C      1  0.5041920000000  0.5540410000000  0.4528840000000 1.0
C      1  0.5027310000000  0.5209490000000  0.5679290000000 1.0
C      1  0.4959150000000  0.5673360000000  0.4764750000000 1.0
C      1  0.4969590000000  0.4460600000000  0.4530420000000 1.0
C      1  0.4984950000000  0.4798710000000  0.5688970000000 1.0
C      1  0.4988570000000  0.5388420000000  0.4773780000000 1.0
C      1  0.4993020000000  0.4615020000000  0.4778280000000 1.0
C      1  0.4984460000000  0.4997640000000  0.5458880000000 1.0
C      1  0.4888370000000  0.5003520000000  0.4993840000000 1.0
END
