TITL C-2441166-8118-1164 -8.94897138014126e-08 125000 -1250.7233667952 0 0 10 (C2v) n - 1
REM
REM in /home/bkarasulu/work/CARBON/AIRSS/Generating-Clusters/ReaxFF-fromJPCA2015/Units_Real/with-SteepDescent/Higher-Symm
REM
REM
REM
REM
REM
REM ./C.cell (1df0a924f5614ab8850e4351716899ee)
REM
REM compiler GCC version 9.2.1 20190827 (Red Hat 9.2.1-1)
REM options -cpp -mtune=generic -march=x86-64 -g -O0 -fpre-include=/usr/include/finclude/math-vector-fortran.h
REM seed -366242020 -1231400573 -1940409812 -1547008868 -1874590063 1465310687 1518636221 -95003410 -508497301 -503154163 -909577004 1207475661 -928829505 -613455943 -1816774961 713439892 925219673 1210239135 -1728337885 2115977621 -1593525400 -566409438 1269471185 1328155795 1063921879 1575213966 -1038293057 -502118332 -430235982 -817407576 1150714777 149576308 1614691610
REM
CELL 1.54180   50.00000   50.00000   50.00000   90.00000   90.00000   90.00000
LATT -1
SFAC C  
C      1  0.4904390000000  0.4936570000000  0.5570240000000 1.0
C      1  0.4904390000000  0.4936570000000  0.4429760000000 1.0
C      1  0.5331850000000  0.5219990000000  0.5287680000000 1.0
C      1  0.5331850000000  0.5219990000000  0.4712320000000 1.0
C      1  0.4916140000000  0.4944400000000  0.5317880000000 1.0
C      1  0.4916140000000  0.4944400000000  0.4682120000000 1.0
C      1  0.5151090000000  0.5100160000000  0.5159810000000 1.0
C      1  0.5151090000000  0.5100160000000  0.4840190000000 1.0
C      1  0.4696520000000  0.4798880000000  0.4859610000000 1.0
C      1  0.4696520000000  0.4798880000000  0.5140390000000 1.0
END
