TITL C-2441165-58-111 0.0730008632821348 125000 -16202.8706239993 0 0 119 (C1) n - 1
REM
REM in /home/bkarasulu/work/CARBON/AIRSS/Generating-Clusters/ReaxFF-fromJPCA2015/Units_Real/with-SteepDescent/Higher-Symm
REM
REM
REM
REM
REM
REM ./C.cell (1df0a924f5614ab8850e4351716899ee)
REM
REM compiler GCC version 9.2.1 20190827 (Red Hat 9.2.1-1)
REM options -cpp -mtune=generic -march=x86-64 -g -O0 -fpre-include=/usr/include/finclude/math-vector-fortran.h
REM seed 1605880255 -949350803 -984428391 128338732 -411096262 -1350645405 -290856341 -1685427584 -1138638056 -1421934922 709792997 595375529 -1069731323 7711062 343013588 1931909950 1384258233 2136009508 145614504 757693498 1390709168 771198178 2018562606 1494472490 -367328581 -2074087043 1069377139 1540205098 -1328138340 377430314 1934631701 -221693091 1890770485
REM
CELL 1.54180   50.00000   50.00000   50.00000   90.00000   90.00000   90.00000
LATT -1
SFAC C  
C      1  0.4971800000000  0.5265000000000  0.5463920000000 1.0
C      1  0.5225250000000  0.5090230000000  0.5470350000000 1.0
C      1  0.5185690000000  0.4782060000000  0.5486340000000 1.0
C      1  0.4871680000000  0.4761470000000  0.5466670000000 1.0
C      1  0.4757010000000  0.5060670000000  0.5455850000000 1.0
C      1  0.4681690000000  0.5759560000000  0.5557580000000 1.0
C      1  0.5628820000000  0.5557210000000  0.5577160000000 1.0
C      1  0.5680070000000  0.4547160000000  0.5596630000000 1.0
C      1  0.4815730000000  0.4218320000000  0.5565920000000 1.0
C      1  0.4185480000000  0.4913900000000  0.5533050000000 1.0
C      1  0.5737980000000  0.5572920000000  0.4841910000000 1.0
C      1  0.5808930000000  0.4444290000000  0.4859210000000 1.0
C      1  0.4860230000000  0.4056190000000  0.4806280000000 1.0
C      1  0.4063290000000  0.4917330000000  0.4780460000000 1.0
C      1  0.4640920000000  0.5929230000000  0.4824310000000 1.0
C      1  0.4848710000000  0.4582120000000  0.5226010000000 1.0
C      1  0.4739310000000  0.5002050000000  0.5154200000000 1.0
C      1  0.4769660000000  0.5430770000000  0.5228190000000 1.0
C      1  0.5243930000000  0.5095070000000  0.5160360000000 1.0
C      1  0.5364690000000  0.4696580000000  0.5261960000000 1.0
C      1  0.4655200000000  0.5055550000000  0.4116510000000 1.0
C      1  0.4949550000000  0.5338160000000  0.4084690000000 1.0
C      1  0.5388050000000  0.5174340000000  0.4216200000000 1.0
C      1  0.5201950000000  0.4666590000000  0.4181380000000 1.0
C      1  0.4677930000000  0.4667260000000  0.4238960000000 1.0
C      1  0.4146070000000  0.5086730000000  0.5299780000000 1.0
C      1  0.4796530000000  0.5753390000000  0.5284300000000 1.0
C      1  0.5758140000000  0.5461740000000  0.5326000000000 1.0
C      1  0.5580750000000  0.4496870000000  0.5318990000000 1.0
C      1  0.4703770000000  0.4317200000000  0.5296950000000 1.0
C      1  0.4628890000000  0.4925950000000  0.4380980000000 1.0
C      1  0.4675870000000  0.5327470000000  0.4176480000000 1.0
C      1  0.5182250000000  0.5404060000000  0.4230780000000 1.0
C      1  0.5315150000000  0.4916290000000  0.4197270000000 1.0
C      1  0.4951830000000  0.4681300000000  0.4349340000000 1.0
C      1  0.4367630000000  0.4974520000000  0.5746530000000 1.0
C      1  0.4776330000000  0.5577800000000  0.5772480000000 1.0
C      1  0.5497440000000  0.5385770000000  0.5762410000000 1.0
C      1  0.5506800000000  0.4655150000000  0.5795840000000 1.0
C      1  0.4822750000000  0.4403640000000  0.5776940000000 1.0
C      1  0.4132880000000  0.4648000000000  0.5069620000000 1.0
C      1  0.4397610000000  0.5703320000000  0.5051640000000 1.0
C      1  0.5460860000000  0.5790550000000  0.5054140000000 1.0
C      1  0.5922870000000  0.4778380000000  0.5056340000000 1.0
C      1  0.5104580000000  0.4096640000000  0.5121680000000 1.0
C      1  0.5350770000000  0.5617400000000  0.4549020000000 1.0
C      1  0.5675550000000  0.4874560000000  0.4536870000000 1.0
C      1  0.5203290000000  0.4238760000000  0.4447900000000 1.0
C      1  0.4224180000000  0.4643640000000  0.4538640000000 1.0
C      1  0.4563620000000  0.5598910000000  0.4542740000000 1.0
C      1  0.5452510000000  0.4279840000000  0.5391660000000 1.0
C      1  0.4426310000000  0.4412860000000  0.5339040000000 1.0
C      1  0.4252590000000  0.5330550000000  0.5308580000000 1.0
C      1  0.5036080000000  0.5781980000000  0.5341810000000 1.0
C      1  0.5798700000000  0.5201580000000  0.5301040000000 1.0
C      1  0.5383650000000  0.5701420000000  0.5530960000000 1.0
C      1  0.5810760000000  0.4808620000000  0.5577370000000 1.0
C      1  0.5103960000000  0.4193400000000  0.5574720000000 1.0
C      1  0.4276260000000  0.4625780000000  0.5525870000000 1.0
C      1  0.4429030000000  0.5594060000000  0.5541230000000 1.0
C      1  0.5359660000000  0.5796760000000  0.4779840000000 1.0
C      1  0.5857880000000  0.4909610000000  0.4785840000000 1.0
C      1  0.5159930000000  0.4144500000000  0.4723330000000 1.0
C      1  0.4216370000000  0.4520800000000  0.4808880000000 1.0
C      1  0.4391010000000  0.5599360000000  0.4783260000000 1.0
C      1  0.4461530000000  0.4515730000000  0.4362960000000 1.0
C      1  0.4502160000000  0.5385100000000  0.4379060000000 1.0
C      1  0.5096290000000  0.5590890000000  0.4419560000000 1.0
C      1  0.5599780000000  0.5123900000000  0.4404600000000 1.0
C      1  0.5369810000000  0.4471020000000  0.4336000000000 1.0
C      1  0.5242010000000  0.4644560000000  0.5736940000000 1.0
C      1  0.4736520000000  0.4655480000000  0.5711450000000 1.0
C      1  0.4578310000000  0.5155310000000  0.5677160000000 1.0
C      1  0.5008790000000  0.5422900000000  0.5712550000000 1.0
C      1  0.5436990000000  0.5130950000000  0.5674800000000 1.0
C      1  0.5613300000000  0.4917230000000  0.5763200000000 1.0
C      1  0.5110630000000  0.4391900000000  0.5796850000000 1.0
C      1  0.4457500000000  0.4699410000000  0.5759830000000 1.0
C      1  0.4543850000000  0.5424920000000  0.5740440000000 1.0
C      1  0.5262760000000  0.5556240000000  0.5761210000000 1.0
C      1  0.4439240000000  0.5504840000000  0.5266530000000 1.0
C      1  0.5281050000000  0.5675780000000  0.5261030000000 1.0
C      1  0.5836100000000  0.4937900000000  0.5302940000000 1.0
C      1  0.5222810000000  0.4212370000000  0.5327820000000 1.0
C      1  0.4355630000000  0.4662670000000  0.5235240000000 1.0
C      1  0.5270530000000  0.5361440000000  0.4996940000000 1.0
C      1  0.5370810000000  0.4846740000000  0.5020100000000 1.0
C      1  0.4944720000000  0.4589410000000  0.4954140000000 1.0
C      1  0.4548900000000  0.4887130000000  0.4964610000000 1.0
C      1  0.4772070000000  0.5358480000000  0.4949390000000 1.0
C      1  0.4492090000000  0.4409150000000  0.4849370000000 1.0
C      1  0.4305700000000  0.5319720000000  0.4826660000000 1.0
C      1  0.5074270000000  0.5772970000000  0.4823520000000 1.0
C      1  0.5860440000000  0.5174080000000  0.4770630000000 1.0
C      1  0.5349120000000  0.4360000000000  0.4821870000000 1.0
C      1  0.5232440000000  0.4623750000000  0.4873430000000 1.0
C      1  0.4674570000000  0.4640610000000  0.4842210000000 1.0
C      1  0.4558690000000  0.5165920000000  0.4829000000000 1.0
C      1  0.5030550000000  0.5487440000000  0.4877730000000 1.0
C      1  0.5320620000000  0.5183250000000  0.4770870000000 1.0
C      1  0.4839260000000  0.4094590000000  0.5085310000000 1.0
C      1  0.4058200000000  0.4917840000000  0.5057640000000 1.0
C      1  0.4599350000000  0.5889450000000  0.5090430000000 1.0
C      1  0.5700920000000  0.5651930000000  0.5084330000000 1.0
C      1  0.5847560000000  0.4509440000000  0.5115510000000 1.0
C      1  0.4824800000000  0.5706490000000  0.4473670000000 1.0
C      1  0.5502990000000  0.5346370000000  0.4567260000000 1.0
C      1  0.5591250000000  0.4602770000000  0.4475100000000 1.0
C      1  0.4639470000000  0.4336660000000  0.4469680000000 1.0
C      1  0.4396030000000  0.5132180000000  0.4464180000000 1.0
C      1  0.5803520000000  0.5411210000000  0.4634860000000 1.0
C      1  0.5615850000000  0.4376630000000  0.4671170000000 1.0
C      1  0.4612790000000  0.4177800000000  0.4696550000000 1.0
C      1  0.4156740000000  0.5144020000000  0.4637800000000 1.0
C      1  0.4868580000000  0.5924230000000  0.4658670000000 1.0
C      1  0.4913240000000  0.5056840000000  0.3967500000000 1.0
C      1  0.4989110000000  0.5003950000000  0.5021090000000 1.0
C      1  0.5065830000000  0.5034090000000  0.4732100000000 1.0
C      1  0.4915430000000  0.4907140000000  0.4514470000000 1.0
END
