TITL C-2441166-8118-244 0.0300312789258629 125000 -16399.967192649 0 0 110 (C1) n - 1
REM
REM in /home/bkarasulu/work/CARBON/AIRSS/Generating-Clusters/ReaxFF-fromJPCA2015/Units_Real/with-SteepDescent/Higher-Symm
REM
REM
REM
REM
REM
REM ./C.cell (1df0a924f5614ab8850e4351716899ee)
REM
REM compiler GCC version 9.2.1 20190827 (Red Hat 9.2.1-1)
REM options -cpp -mtune=generic -march=x86-64 -g -O0 -fpre-include=/usr/include/finclude/math-vector-fortran.h
REM seed -1993357130 470126662 2125889512 -1022271732 1704768312 -1164571993 604283007 -574279691 1507335571 1912986362 1479122261 -1213683629 -122460980 -1255329604 -574872434 -362667067 1026002264 1572103516 -162542737 -1827481258 -1758546703 -1766779277 263574389 -166662543 1632847253 499229011 -259891280 1439449048 -1109207054 1837944597 -903508470 1566444510 325235547
REM
CELL 1.54180   50.00000   50.00000   50.00000   90.00000   90.00000   90.00000
LATT -1
SFAC C  
C      1  0.4486880000000  0.4834910000000  0.4395010000000 1.0
C      1  0.4535710000000  0.4534150000000  0.4661630000000 1.0
C      1  0.4520640000000  0.4413370000000  0.4924450000000 1.0
C      1  0.4506410000000  0.4460650000000  0.5218540000000 1.0
C      1  0.4523260000000  0.4714910000000  0.5501760000000 1.0
C      1  0.4541820000000  0.4985520000000  0.5578570000000 1.0
C      1  0.4537800000000  0.5362210000000  0.5494820000000 1.0
C      1  0.4698680000000  0.5463620000000  0.5270550000000 1.0
C      1  0.4572680000000  0.5532880000000  0.4896170000000 1.0
C      1  0.4531830000000  0.5451210000000  0.4626150000000 1.0
C      1  0.4528760000000  0.5117360000000  0.4396140000000 1.0
C      1  0.5680340000000  0.4487740000000  0.5078090000000 1.0
C      1  0.5681470000000  0.4612710000000  0.5340290000000 1.0
C      1  0.5682410000000  0.4858530000000  0.5494450000000 1.0
C      1  0.5682330000000  0.5149180000000  0.5493440000000 1.0
C      1  0.5681430000000  0.5392560000000  0.5333840000000 1.0
C      1  0.5677550000000  0.5511490000000  0.5069480000000 1.0
C      1  0.5677430000000  0.5470040000000  0.4782130000000 1.0
C      1  0.5683200000000  0.5275780000000  0.4566110000000 1.0
C      1  0.5678120000000  0.4995490000000  0.4489160000000 1.0
C      1  0.5676850000000  0.4716320000000  0.4570930000000 1.0
C      1  0.5684840000000  0.4525090000000  0.4789740000000 1.0
C      1  0.5135380000000  0.5851340000000  0.5381830000000 1.0
C      1  0.5135110000000  0.5909040000000  0.4879700000000 1.0
C      1  0.5153100000000  0.5699120000000  0.4376070000000 1.0
C      1  0.5152050000000  0.5265750000000  0.4111720000000 1.0
C      1  0.5140730000000  0.4739580000000  0.4122830000000 1.0
C      1  0.5156890000000  0.4280050000000  0.4408120000000 1.0
C      1  0.5159010000000  0.4080930000000  0.4874030000000 1.0
C      1  0.5154330000000  0.4167950000000  0.5400990000000 1.0
C      1  0.5149280000000  0.4497650000000  0.5787260000000 1.0
C      1  0.5152560000000  0.4987820000000  0.5919900000000 1.0
C      1  0.5156890000000  0.5511700000000  0.5770610000000 1.0
C      1  0.5541230000000  0.5698970000000  0.4677530000000 1.0
C      1  0.5553760000000  0.5412800000000  0.4352220000000 1.0
C      1  0.5544340000000  0.4994810000000  0.4237860000000 1.0
C      1  0.5543840000000  0.4577720000000  0.4360230000000 1.0
C      1  0.5558280000000  0.4291360000000  0.4686480000000 1.0
C      1  0.5548220000000  0.4237440000000  0.5120390000000 1.0
C      1  0.5548910000000  0.4422750000000  0.5508550000000 1.0
C      1  0.5551440000000  0.4786290000000  0.5737560000000 1.0
C      1  0.5551600000000  0.5220010000000  0.5736540000000 1.0
C      1  0.5547830000000  0.5586250000000  0.5495090000000 1.0
C      1  0.5539650000000  0.5759400000000  0.5105120000000 1.0
C      1  0.5046820000000  0.4632110000000  0.4857790000000 1.0
C      1  0.5047820000000  0.4504590000000  0.5088290000000 1.0
C      1  0.5060580000000  0.4714980000000  0.5263860000000 1.0
C      1  0.5059400000000  0.4939550000000  0.5376540000000 1.0
C      1  0.5055580000000  0.5176980000000  0.5481580000000 1.0
C      1  0.4990250000000  0.5387890000000  0.5275860000000 1.0
C      1  0.5055650000000  0.5373640000000  0.5007250000000 1.0
C      1  0.5067710000000  0.5453540000000  0.4757130000000 1.0
C      1  0.5070360000000  0.5207190000000  0.4637230000000 1.0
C      1  0.5058840000000  0.4964910000000  0.4601880000000 1.0
C      1  0.5041790000000  0.4696650000000  0.4595600000000 1.0
C      1  0.5024590000000  0.5237240000000  0.5801700000000 1.0
C      1  0.5024600000000  0.5731380000000  0.5630450000000 1.0
C      1  0.4995390000000  0.5922330000000  0.5135920000000 1.0
C      1  0.5022760000000  0.5773340000000  0.4636080000000 1.0
C      1  0.5020630000000  0.5512150000000  0.4196200000000 1.0
C      1  0.5024810000000  0.5001970000000  0.4050470000000 1.0
C      1  0.5018460000000  0.4526180000000  0.4299160000000 1.0
C      1  0.5032720000000  0.4121530000000  0.4618030000000 1.0
C      1  0.5027150000000  0.4162220000000  0.5133260000000 1.0
C      1  0.5020620000000  0.4291610000000  0.5623930000000 1.0
C      1  0.5021300000000  0.4729930000000  0.5908820000000 1.0
C      1  0.4718790000000  0.4450590000000  0.4225320000000 1.0
C      1  0.4738730000000  0.4118850000000  0.4627170000000 1.0
C      1  0.4737770000000  0.4079900000000  0.5142710000000 1.0
C      1  0.4728950000000  0.4293870000000  0.5613630000000 1.0
C      1  0.4725810000000  0.4724420000000  0.5913250000000 1.0
C      1  0.4719920000000  0.5264190000000  0.5920890000000 1.0
C      1  0.4734170000000  0.5756060000000  0.5722030000000 1.0
C      1  0.4696560000000  0.5916320000000  0.5131480000000 1.0
C      1  0.4712470000000  0.5877140000000  0.4590760000000 1.0
C      1  0.4726510000000  0.5518400000000  0.4188280000000 1.0
C      1  0.4742820000000  0.5058900000000  0.3960680000000 1.0
C      1  0.4303880000000  0.5425730000000  0.4966170000000 1.0
C      1  0.4255280000000  0.5393190000000  0.4684250000000 1.0
C      1  0.4277620000000  0.5157340000000  0.4525230000000 1.0
C      1  0.4229880000000  0.4873980000000  0.4529490000000 1.0
C      1  0.4272110000000  0.4642070000000  0.4687900000000 1.0
C      1  0.4216170000000  0.4511120000000  0.4934220000000 1.0
C      1  0.4224390000000  0.4554450000000  0.5214550000000 1.0
C      1  0.4244180000000  0.4766450000000  0.5408940000000 1.0
C      1  0.4279890000000  0.5047430000000  0.5453690000000 1.0
C      1  0.4250930000000  0.5331000000000  0.5408910000000 1.0
C      1  0.4281740000000  0.5555800000000  0.5221550000000 1.0
C      1  0.5432780000000  0.5241070000000  0.4170590000000 1.0
C      1  0.5422470000000  0.4750050000000  0.4172970000000 1.0
C      1  0.5438040000000  0.4329090000000  0.4436750000000 1.0
C      1  0.5438920000000  0.4133030000000  0.4883890000000 1.0
C      1  0.5432260000000  0.4213330000000  0.5372230000000 1.0
C      1  0.5431200000000  0.4535080000000  0.5734240000000 1.0
C      1  0.5435410000000  0.5001340000000  0.5870920000000 1.0
C      1  0.5439750000000  0.5478010000000  0.5728680000000 1.0
C      1  0.5418400000000  0.5790270000000  0.5353620000000 1.0
C      1  0.5419480000000  0.5859670000000  0.4874990000000 1.0
C      1  0.5435060000000  0.5657130000000  0.4420650000000 1.0
C      1  0.4592480000000  0.5501420000000  0.5757050000000 1.0
C      1  0.4539600000000  0.5707950000000  0.5270790000000 1.0
C      1  0.4584760000000  0.5832810000000  0.4880990000000 1.0
C      1  0.4595930000000  0.5637320000000  0.4414400000000 1.0
C      1  0.4605700000000  0.5251520000000  0.4142540000000 1.0
C      1  0.4540520000000  0.4663860000000  0.4140610000000 1.0
C      1  0.4609430000000  0.4327530000000  0.4468470000000 1.0
C      1  0.4618710000000  0.4126770000000  0.4888600000000 1.0
C      1  0.4608370000000  0.4219970000000  0.5357900000000 1.0
C      1  0.4610960000000  0.4537210000000  0.5720000000000 1.0
C      1  0.4598500000000  0.4982030000000  0.5868820000000 1.0
END
