TITL C-2441164-471-1453 0.0243383395539549 125000 -14317.8090398597 0 0 102 (C1) n - 1
REM
REM in /home/bkarasulu/work/CARBON/AIRSS/Generating-Clusters/ReaxFF-fromJPCA2015/Units_Real/with-SteepDescent/Higher-Symm
REM
REM
REM
REM
REM
REM ./C.cell (1df0a924f5614ab8850e4351716899ee)
REM
REM compiler GCC version 9.2.1 20190827 (Red Hat 9.2.1-1)
REM options -cpp -mtune=generic -march=x86-64 -g -O0 -fpre-include=/usr/include/finclude/math-vector-fortran.h
REM seed -1604977766 689203198 2107264974 -1627687051 -10524353 -157762944 -1285161347 1974188107 1126477274 -543426068 157620936 -1173452296 -371510685 -1364842521 830414856 383863820 -1905298980 1214640579 889904495 171180069 -576430776 1287906858 1778213803 -822684936 -1265422966 1149045268 1235106241 39513897 -2081387399 -472098774 -509036996 -2058141840 -177642422
REM
CELL 1.54180   50.00000   50.00000   50.00000   90.00000   90.00000   90.00000
LATT -1
SFAC C  
C      1  0.4646700000000  0.5435430000000  0.5590320000000 1.0
C      1  0.4478810000000  0.5174710000000  0.5581190000000 1.0
C      1  0.4461510000000  0.4860620000000  0.5595940000000 1.0
C      1  0.4627050000000  0.4599350000000  0.5576940000000 1.0
C      1  0.4901830000000  0.4458070000000  0.5588060000000 1.0
C      1  0.5210370000000  0.4490380000000  0.5590620000000 1.0
C      1  0.5448270000000  0.4698960000000  0.5562320000000 1.0
C      1  0.5568400000000  0.4987070000000  0.5597880000000 1.0
C      1  0.5477020000000  0.5277340000000  0.5581600000000 1.0
C      1  0.5244160000000  0.5494900000000  0.5587590000000 1.0
C      1  0.4940210000000  0.5545960000000  0.5564670000000 1.0
C      1  0.4524990000000  0.4285430000000  0.4703060000000 1.0
C      1  0.4983740000000  0.4141340000000  0.4693970000000 1.0
C      1  0.5449240000000  0.4258100000000  0.4689230000000 1.0
C      1  0.5780040000000  0.4626850000000  0.4706580000000 1.0
C      1  0.5846940000000  0.5100010000000  0.4697230000000 1.0
C      1  0.5662600000000  0.5557450000000  0.4691800000000 1.0
C      1  0.5265130000000  0.5835810000000  0.4693750000000 1.0
C      1  0.4779160000000  0.5822920000000  0.4699190000000 1.0
C      1  0.4351390000000  0.5579440000000  0.4697690000000 1.0
C      1  0.4149380000000  0.5144810000000  0.4695690000000 1.0
C      1  0.4197780000000  0.4670690000000  0.4704930000000 1.0
C      1  0.5732070000000  0.5304190000000  0.4524070000000 1.0
C      1  0.5452420000000  0.5672260000000  0.4542850000000 1.0
C      1  0.5019680000000  0.5787420000000  0.4541470000000 1.0
C      1  0.4597880000000  0.5666450000000  0.4546860000000 1.0
C      1  0.4261690000000  0.5360650000000  0.4534170000000 1.0
C      1  0.4224460000000  0.4912480000000  0.4539430000000 1.0
C      1  0.4397520000000  0.4513170000000  0.4561480000000 1.0
C      1  0.4756560000000  0.4272930000000  0.4541150000000 1.0
C      1  0.5205580000000  0.4216690000000  0.4535930000000 1.0
C      1  0.5575190000000  0.4478970000000  0.4543570000000 1.0
C      1  0.5780500000000  0.4864240000000  0.4547420000000 1.0
C      1  0.5082940000000  0.5468000000000  0.4810550000000 1.0
C      1  0.4879240000000  0.5283210000000  0.4762160000000 1.0
C      1  0.4614840000000  0.5240180000000  0.4687440000000 1.0
C      1  0.4594490000000  0.4977460000000  0.4734000000000 1.0
C      1  0.4596670000000  0.4715760000000  0.4739520000000 1.0
C      1  0.4848040000000  0.4666500000000  0.4731270000000 1.0
C      1  0.5082730000000  0.4579950000000  0.4669470000000 1.0
C      1  0.5320700000000  0.4650040000000  0.4813930000000 1.0
C      1  0.5377300000000  0.4901630000000  0.4770540000000 1.0
C      1  0.5428720000000  0.5130260000000  0.4731240000000 1.0
C      1  0.5258740000000  0.5335810000000  0.4645080000000 1.0
C      1  0.4451920000000  0.4945170000000  0.4350390000000 1.0
C      1  0.4580350000000  0.4685890000000  0.4336050000000 1.0
C      1  0.4800170000000  0.4499550000000  0.4356360000000 1.0
C      1  0.5124170000000  0.4479340000000  0.4389230000000 1.0
C      1  0.5404330000000  0.4626760000000  0.4363390000000 1.0
C      1  0.5539190000000  0.4888240000000  0.4354540000000 1.0
C      1  0.5525580000000  0.5181850000000  0.4345410000000 1.0
C      1  0.5309500000000  0.5447810000000  0.4380850000000 1.0
C      1  0.5015130000000  0.5555840000000  0.4356210000000 1.0
C      1  0.4737760000000  0.5487720000000  0.4359120000000 1.0
C      1  0.4518690000000  0.5254540000000  0.4394400000000 1.0
C      1  0.4292760000000  0.5293510000000  0.5412760000000 1.0
C      1  0.4245200000000  0.4850970000000  0.5417590000000 1.0
C      1  0.4436800000000  0.4485140000000  0.5408530000000 1.0
C      1  0.4833660000000  0.4247830000000  0.5415530000000 1.0
C      1  0.5245750000000  0.4272720000000  0.5415350000000 1.0
C      1  0.5574560000000  0.4529240000000  0.5387770000000 1.0
C      1  0.5782220000000  0.4946970000000  0.5419400000000 1.0
C      1  0.5687180000000  0.5347720000000  0.5411490000000 1.0
C      1  0.5386640000000  0.5654230000000  0.5405700000000 1.0
C      1  0.4988090000000  0.5767740000000  0.5403600000000 1.0
C      1  0.4542500000000  0.5620830000000  0.5409810000000 1.0
C      1  0.4314250000000  0.5569180000000  0.4988240000000 1.0
C      1  0.4171450000000  0.5104890000000  0.4991460000000 1.0
C      1  0.4198670000000  0.4620130000000  0.4991300000000 1.0
C      1  0.4560830000000  0.4286040000000  0.5003080000000 1.0
C      1  0.5020250000000  0.4119520000000  0.4986840000000 1.0
C      1  0.5484250000000  0.4275520000000  0.4981350000000 1.0
C      1  0.5822990000000  0.4653390000000  0.4996290000000 1.0
C      1  0.5808460000000  0.5130750000000  0.4999900000000 1.0
C      1  0.5657370000000  0.5599590000000  0.4981620000000 1.0
C      1  0.5236020000000  0.5867300000000  0.4986680000000 1.0
C      1  0.4748580000000  0.5793420000000  0.5004690000000 1.0
C      1  0.4129100000000  0.4852060000000  0.5153380000000 1.0
C      1  0.4331220000000  0.4407830000000  0.5155060000000 1.0
C      1  0.4789250000000  0.4133840000000  0.5158410000000 1.0
C      1  0.5272070000000  0.4165550000000  0.5143770000000 1.0
C      1  0.5680250000000  0.4441800000000  0.5135320000000 1.0
C      1  0.5896200000000  0.4893030000000  0.5161220000000 1.0
C      1  0.5786140000000  0.5401680000000  0.5147820000000 1.0
C      1  0.5454160000000  0.5754670000000  0.5141470000000 1.0
C      1  0.4991500000000  0.5899420000000  0.5150370000000 1.0
C      1  0.4481970000000  0.5734190000000  0.5156160000000 1.0
C      1  0.4188390000000  0.5350100000000  0.5149670000000 1.0
C      1  0.5369880000000  0.4817210000000  0.5174880000000 1.0
C      1  0.5495080000000  0.5048560000000  0.5145790000000 1.0
C      1  0.5320130000000  0.5241970000000  0.5124950000000 1.0
C      1  0.5143650000000  0.5444260000000  0.5099240000000 1.0
C      1  0.4846910000000  0.5492310000000  0.5132740000000 1.0
C      1  0.4699190000000  0.5292060000000  0.5133210000000 1.0
C      1  0.4555940000000  0.5091550000000  0.5134120000000 1.0
C      1  0.4591480000000  0.4838130000000  0.5126110000000 1.0
C      1  0.4706480000000  0.4584710000000  0.5109670000000 1.0
C      1  0.4966370000000  0.4555830000000  0.5112980000000 1.0
C      1  0.5247570000000  0.4601100000000  0.5110680000000 1.0
C      1  0.5003050000000  0.5009280000000  0.5405650000000 1.0
C      1  0.4975940000000  0.5027280000000  0.4885910000000 1.0
C      1  0.4985290000000  0.4962260000000  0.5172470000000 1.0
END
