TITL C-2441164-471-762 0.0399241399920751 125000 -10682.2119028607 0 0 80 (C1) n - 1
REM
REM in /home/bkarasulu/work/CARBON/AIRSS/Generating-Clusters/ReaxFF-fromJPCA2015/Units_Real/with-SteepDescent/Higher-Symm
REM
REM
REM
REM
REM
REM ./C.cell (1df0a924f5614ab8850e4351716899ee)
REM
REM compiler GCC version 9.2.1 20190827 (Red Hat 9.2.1-1)
REM options -cpp -mtune=generic -march=x86-64 -g -O0 -fpre-include=/usr/include/finclude/math-vector-fortran.h
REM seed -1937498109 -1018741487 -39680791 -1628375573 1403829167 12082262 1000477275 -1809644834 161628224 580474850 881491239 1826709647 1343276906 1398619839 1436292120 -1815086559 939516356 -48163888 -2082823745 1849850780 -588042290 2137684073 1014405736 -877438678 -664574646 895353137 730496757 -645019105 -1075741573 1778791989 -1673728397 -1491459907 1175602895
REM
CELL 1.54180   50.00000   50.00000   50.00000   90.00000   90.00000   90.00000
LATT -1
SFAC C  
C      1  0.4910290000000  0.5426270000000  0.4689110000000 1.0
C      1  0.4564410000000  0.5046080000000  0.4688900000000 1.0
C      1  0.4820120000000  0.4604590000000  0.4690210000000 1.0
C      1  0.5317400000000  0.4704710000000  0.4688630000000 1.0
C      1  0.5378790000000  0.5220250000000  0.4684500000000 1.0
C      1  0.4319400000000  0.4924510000000  0.5276640000000 1.0
C      1  0.4860160000000  0.4345950000000  0.5294180000000 1.0
C      1  0.5605640000000  0.4656660000000  0.5276220000000 1.0
C      1  0.5504520000000  0.5458220000000  0.5278510000000 1.0
C      1  0.4711290000000  0.5624370000000  0.5277490000000 1.0
C      1  0.4816040000000  0.5157600000000  0.4371410000000 1.0
C      1  0.4795360000000  0.4866100000000  0.4371090000000 1.0
C      1  0.5064400000000  0.4751560000000  0.4371070000000 1.0
C      1  0.5254140000000  0.4976820000000  0.4367300000000 1.0
C      1  0.5098380000000  0.5226030000000  0.4370630000000 1.0
C      1  0.5212950000000  0.5156600000000  0.4913640000000 1.0
C      1  0.4913610000000  0.5251320000000  0.4916340000000 1.0
C      1  0.4734630000000  0.4998510000000  0.4913800000000 1.0
C      1  0.4916140000000  0.4748470000000  0.4915100000000 1.0
C      1  0.5214450000000  0.4840530000000  0.4913070000000 1.0
C      1  0.4662280000000  0.5736050000000  0.4870790000000 1.0
C      1  0.4195000000000  0.4908790000000  0.4865310000000 1.0
C      1  0.4841630000000  0.4212060000000  0.4874800000000 1.0
C      1  0.5704620000000  0.4600120000000  0.4866730000000 1.0
C      1  0.5590350000000  0.5546940000000  0.4873390000000 1.0
C      1  0.5147330000000  0.5193190000000  0.5366160000000 1.0
C      1  0.4862420000000  0.5203590000000  0.5366110000000 1.0
C      1  0.4767260000000  0.4935530000000  0.5363820000000 1.0
C      1  0.4998760000000  0.4765820000000  0.5361800000000 1.0
C      1  0.5234800000000  0.4921790000000  0.5363780000000 1.0
C      1  0.4489440000000  0.5644470000000  0.5090460000000 1.0
C      1  0.4220710000000  0.4725460000000  0.5090750000000 1.0
C      1  0.5021030000000  0.4187790000000  0.5104810000000 1.0
C      1  0.5798260000000  0.4766420000000  0.5088360000000 1.0
C      1  0.5462760000000  0.5681430000000  0.5100120000000 1.0
C      1  0.4588380000000  0.5355180000000  0.4448690000000 1.0
C      1  0.4535470000000  0.4715440000000  0.4445110000000 1.0
C      1  0.5126260000000  0.4459620000000  0.4442990000000 1.0
C      1  0.5545900000000  0.4956010000000  0.4448270000000 1.0
C      1  0.5208380000000  0.5504580000000  0.4446750000000 1.0
C      1  0.4970070000000  0.4584730000000  0.5154420000000 1.0
C      1  0.5405140000000  0.4847640000000  0.5148040000000 1.0
C      1  0.5268140000000  0.5330150000000  0.5152730000000 1.0
C      1  0.4770770000000  0.5358750000000  0.5152950000000 1.0
C      1  0.4587150000000  0.4887620000000  0.5148430000000 1.0
C      1  0.5581730000000  0.4762380000000  0.4650740000000 1.0
C      1  0.5416920000000  0.5493090000000  0.4642820000000 1.0
C      1  0.4662840000000  0.5545570000000  0.4647390000000 1.0
C      1  0.4374580000000  0.4846570000000  0.4642810000000 1.0
C      1  0.4953870000000  0.4363790000000  0.4650170000000 1.0
C      1  0.5481080000000  0.5137990000000  0.5583050000000 1.0
C      1  0.5023030000000  0.5497280000000  0.5587920000000 1.0
C      1  0.4543770000000  0.5167400000000  0.5587120000000 1.0
C      1  0.4694770000000  0.4596260000000  0.5579720000000 1.0
C      1  0.5277480000000  0.4590790000000  0.5586000000000 1.0
C      1  0.5654790000000  0.5162100000000  0.4619040000000 1.0
C      1  0.5050020000000  0.5671770000000  0.4624160000000 1.0
C      1  0.4377770000000  0.5254940000000  0.4619690000000 1.0
C      1  0.4565650000000  0.4485660000000  0.4619030000000 1.0
C      1  0.5355680000000  0.4425660000000  0.4619140000000 1.0
C      1  0.5478820000000  0.4400110000000  0.4886050000000 1.0
C      1  0.5715590000000  0.5274560000000  0.4882780000000 1.0
C      1  0.4961980000000  0.5767310000000  0.4887170000000 1.0
C      1  0.4255270000000  0.5202160000000  0.4880950000000 1.0
C      1  0.4579580000000  0.4356010000000  0.4880970000000 1.0
C      1  0.5703130000000  0.5067170000000  0.5105450000000 1.0
C      1  0.5147780000000  0.5701870000000  0.5111610000000 1.0
C      1  0.4368040000000  0.5358070000000  0.5108620000000 1.0
C      1  0.4463070000000  0.4523790000000  0.5101270000000 1.0
C      1  0.5291160000000  0.4344330000000  0.5109610000000 1.0
C      1  0.4785940000000  0.5328410000000  0.5622910000000 1.0
C      1  0.4615160000000  0.4883510000000  0.5619840000000 1.0
C      1  0.4988870000000  0.4612680000000  0.5614460000000 1.0
C      1  0.5383020000000  0.4864010000000  0.5622980000000 1.0
C      1  0.5244410000000  0.5309420000000  0.5617240000000 1.0
C      1  0.4348890000000  0.5201880000000  0.5360070000000 1.0
C      1  0.4588710000000  0.4431830000000  0.5353480000000 1.0
C      1  0.5411760000000  0.4451990000000  0.5356410000000 1.0
C      1  0.5653570000000  0.5221760000000  0.5356120000000 1.0
C      1  0.4986830000000  0.5683600000000  0.5359830000000 1.0
END
