TITL C-2441159-1093-1378 0.056826575239351 125000 -4922.85590415976 0 0 49 (C1) n - 1
REM
REM in /home/bkarasulu/work/CARBON/AIRSS/Generating-Clusters/ReaxFF-fromJPCA2015/Units_Real/with-SteepDescent/Higher-Symm
REM
REM
REM
REM
REM
REM ./C.cell (1df0a924f5614ab8850e4351716899ee)
REM
REM compiler GCC version 9.2.1 20190827 (Red Hat 9.2.1-1)
REM options -cpp -mtune=generic -march=x86-64 -g -O0 -fpre-include=/usr/include/finclude/math-vector-fortran.h
REM seed 1675069819 657580549 2080414605 -1548070874 -16019214 -1769473925 869065479 -1740845674 105624623 658095639 -463036317 -1187504583 -1703746152 -548249262 507446724 753218503 -1798630665 -589879738 929796368 -238222225 -2041319021 -1628400176 9354183 -420095013 943216189 -545023717 -259331909 6203277 1493383990 -242859286 264024618 -1045658214 686816993
REM
CELL 1.54180   50.00000   50.00000   50.00000   90.00000   90.00000   90.00000
LATT -1
SFAC C  
C      1  0.4757750000000  0.5399570000000  0.4920920000000 1.0
C      1  0.5245730000000  0.4575060000000  0.5098060000000 1.0
C      1  0.4664550000000  0.5107550000000  0.5692880000000 1.0
C      1  0.5326850000000  0.4896400000000  0.4310440000000 1.0
C      1  0.5178130000000  0.5448810000000  0.4557490000000 1.0
C      1  0.4734490000000  0.4533920000000  0.5443620000000 1.0
C      1  0.5244960000000  0.5120390000000  0.4954190000000 1.0
C      1  0.4673930000000  0.4860590000000  0.5083290000000 1.0
C      1  0.5245210000000  0.5405030000000  0.4835440000000 1.0
C      1  0.4799420000000  0.4613680000000  0.5153430000000 1.0
C      1  0.5705690000000  0.4835790000000  0.5027100000000 1.0
C      1  0.4288720000000  0.5155550000000  0.4972960000000 1.0
C      1  0.4600600000000  0.5066700000000  0.4351690000000 1.0
C      1  0.5410430000000  0.4925180000000  0.5654560000000 1.0
C      1  0.4769720000000  0.5118480000000  0.4803550000000 1.0
C      1  0.5246260000000  0.4839060000000  0.5228910000000 1.0
C      1  0.4788760000000  0.4383070000000  0.4982950000000 1.0
C      1  0.5200820000000  0.5621360000000  0.4933540000000 1.0
C      1  0.4827010000000  0.5196640000000  0.5471310000000 1.0
C      1  0.5162300000000  0.4786360000000  0.4508420000000 1.0
C      1  0.4662070000000  0.4799120000000  0.4411000000000 1.0
C      1  0.5340510000000  0.5191930000000  0.5590280000000 1.0
C      1  0.4956220000000  0.5580570000000  0.5327510000000 1.0
C      1  0.5082010000000  0.4454590000000  0.4704370000000 1.0
C      1  0.5460440000000  0.5031610000000  0.5149910000000 1.0
C      1  0.4527180000000  0.4942170000000  0.4850660000000 1.0
C      1  0.4813070000000  0.4562380000000  0.4750990000000 1.0
C      1  0.5154450000000  0.5373060000000  0.5266580000000 1.0
C      1  0.5546480000000  0.5141530000000  0.4686780000000 1.0
C      1  0.4462710000000  0.4842750000000  0.5296190000000 1.0
C      1  0.5082410000000  0.4358120000000  0.4981810000000 1.0
C      1  0.4924110000000  0.5618820000000  0.5013070000000 1.0
C      1  0.4578210000000  0.4704200000000  0.4664920000000 1.0
C      1  0.5418690000000  0.5274430000000  0.5325640000000 1.0
C      1  0.5291400000000  0.4679400000000  0.4830140000000 1.0
C      1  0.4714700000000  0.5273870000000  0.5176730000000 1.0
C      1  0.5549590000000  0.4843010000000  0.4791830000000 1.0
C      1  0.4448940000000  0.5166130000000  0.5202690000000 1.0
C      1  0.4860320000000  0.4895870000000  0.5419310000000 1.0
C      1  0.5145160000000  0.5066800000000  0.4604240000000 1.0
C      1  0.4961880000000  0.5251120000000  0.4444460000000 1.0
C      1  0.5052080000000  0.4750950000000  0.5563240000000 1.0
C      1  0.5229360000000  0.4929210000000  0.5496540000000 1.0
C      1  0.4773930000000  0.5051870000000  0.4515290000000 1.0
C      1  0.4629520000000  0.4792740000000  0.5551730000000 1.0
C      1  0.5362320000000  0.5206390000000  0.4470170000000 1.0
C      1  0.4515940000000  0.4536550000000  0.5244010000000 1.0
C      1  0.5499600000000  0.5393120000000  0.4812100000000 1.0
C      1  0.4995470000000  0.5015990000000  0.4990320000000 1.0
END
