TITL C-2441160-1326-597 0.0342031684157659 125000 -16317.4529225663 0 0 115 (C1) n - 1
REM
REM in /home/bkarasulu/work/CARBON/AIRSS/Generating-Clusters/ReaxFF-fromJPCA2015/Units_Real/with-SteepDescent/Higher-Symm
REM
REM
REM
REM
REM
REM ./C.cell (1df0a924f5614ab8850e4351716899ee)
REM
REM compiler GCC version 9.2.1 20190827 (Red Hat 9.2.1-1)
REM options -cpp -mtune=generic -march=x86-64 -g -O0 -fpre-include=/usr/include/finclude/math-vector-fortran.h
REM seed -1611536462 633818280 309437208 -1681692186 1302478760 -543462840 681149814 1787714683 841191784 -1652725386 -497042742 1707725494 -1267114550 -1329157491 136624192 1145802681 -1892820443 -1026279959 -413659435 478696974 -741317146 1999139064 -61026490 644463065 1029558792 183190729 -1220495228 -304540643 356268057 -598752241 -535698644 -1242650622 623028075
REM
CELL 1.54180   50.00000   50.00000   50.00000   90.00000   90.00000   90.00000
LATT -1
SFAC C  
C      1  0.5139980000000  0.5399420000000  0.5840140000000 1.0
C      1  0.5143790000000  0.5851980000000  0.4621960000000 1.0
C      1  0.5143810000000  0.4614610000000  0.4156470000000 1.0
C      1  0.5145810000000  0.4154240000000  0.5387470000000 1.0
C      1  0.4841180000000  0.5405050000000  0.5817140000000 1.0
C      1  0.4844590000000  0.5839690000000  0.4650780000000 1.0
C      1  0.4844240000000  0.4614080000000  0.4153020000000 1.0
C      1  0.4847890000000  0.4158780000000  0.5389850000000 1.0
C      1  0.5155670000000  0.5410540000000  0.4669320000000 1.0
C      1  0.5142840000000  0.4693830000000  0.4585180000000 1.0
C      1  0.5125800000000  0.4592450000000  0.5310610000000 1.0
C      1  0.5123140000000  0.5317590000000  0.5406470000000 1.0
C      1  0.4874350000000  0.5405910000000  0.4648050000000 1.0
C      1  0.4862780000000  0.4689700000000  0.4592900000000 1.0
C      1  0.4848460000000  0.4587210000000  0.5304690000000 1.0
C      1  0.4839560000000  0.5318860000000  0.5367450000000 1.0
C      1  0.5770650000000  0.5279240000000  0.5155560000000 1.0
C      1  0.5747140000000  0.5135830000000  0.4711560000000 1.0
C      1  0.5758350000000  0.4730520000000  0.4837030000000 1.0
C      1  0.5768860000000  0.4851200000000  0.5287460000000 1.0
C      1  0.4223390000000  0.5257640000000  0.5126430000000 1.0
C      1  0.4222830000000  0.5168520000000  0.4718610000000 1.0
C      1  0.4224030000000  0.4718780000000  0.4850280000000 1.0
C      1  0.4229720000000  0.4835080000000  0.5289680000000 1.0
C      1  0.5711510000000  0.4451180000000  0.4919140000000 1.0
C      1  0.5702240000000  0.4928800000000  0.5571540000000 1.0
C      1  0.5712340000000  0.5566680000000  0.5071010000000 1.0
C      1  0.5696110000000  0.5061000000000  0.4436080000000 1.0
C      1  0.4287510000000  0.4438120000000  0.4929650000000 1.0
C      1  0.4294700000000  0.4919890000000  0.5566500000000 1.0
C      1  0.4278880000000  0.5535440000000  0.5059580000000 1.0
C      1  0.4279560000000  0.5084480000000  0.4445960000000 1.0
C      1  0.5361730000000  0.4170100000000  0.5180450000000 1.0
C      1  0.5351700000000  0.5190980000000  0.5833450000000 1.0
C      1  0.5362610000000  0.5837950000000  0.4821840000000 1.0
C      1  0.5349210000000  0.4823710000000  0.4168070000000 1.0
C      1  0.4636590000000  0.4165300000000  0.5179680000000 1.0
C      1  0.4633690000000  0.5193420000000  0.5818210000000 1.0
C      1  0.4655740000000  0.5800830000000  0.4872940000000 1.0
C      1  0.4628470000000  0.4818740000000  0.4170980000000 1.0
C      1  0.5599350000000  0.5653110000000  0.4820000000000 1.0
C      1  0.5584160000000  0.4818280000000  0.4336000000000 1.0
C      1  0.5605000000000  0.4346620000000  0.5175810000000 1.0
C      1  0.5596610000000  0.5185930000000  0.5660450000000 1.0
C      1  0.4416350000000  0.5646410000000  0.4843310000000 1.0
C      1  0.4384850000000  0.4825620000000  0.4344450000000 1.0
C      1  0.4395480000000  0.4342950000000  0.5182650000000 1.0
C      1  0.4391860000000  0.5180660000000  0.5642410000000 1.0
C      1  0.5367160000000  0.5751270000000  0.5457740000000 1.0
C      1  0.5364960000000  0.5469780000000  0.4247330000000 1.0
C      1  0.5359570000000  0.4255220000000  0.4528940000000 1.0
C      1  0.5357250000000  0.4532890000000  0.5751350000000 1.0
C      1  0.4587020000000  0.5737690000000  0.5429710000000 1.0
C      1  0.4629240000000  0.5477090000000  0.4255410000000 1.0
C      1  0.4625650000000  0.4254500000000  0.4526890000000 1.0
C      1  0.4641380000000  0.4532540000000  0.5754240000000 1.0
C      1  0.4782090000000  0.5619810000000  0.4463030000000 1.0
C      1  0.4767880000000  0.4483580000000  0.4404070000000 1.0
C      1  0.4739470000000  0.4406190000000  0.5506190000000 1.0
C      1  0.4751500000000  0.5523840000000  0.5560970000000 1.0
C      1  0.5247170000000  0.5615060000000  0.4479650000000 1.0
C      1  0.5243430000000  0.4491280000000  0.4401760000000 1.0
C      1  0.5230850000000  0.4406010000000  0.5513810000000 1.0
C      1  0.5223170000000  0.5522800000000  0.5586780000000 1.0
C      1  0.5141190000000  0.4145370000000  0.4697120000000 1.0
C      1  0.5146580000000  0.4707290000000  0.5863910000000 1.0
C      1  0.5181460000000  0.5879140000000  0.5283610000000 1.0
C      1  0.5142760000000  0.5304150000000  0.4146660000000 1.0
C      1  0.4844330000000  0.4144060000000  0.4694700000000 1.0
C      1  0.4850650000000  0.4712220000000  0.5858180000000 1.0
C      1  0.4925870000000  0.5885980000000  0.5295150000000 1.0
C      1  0.4846150000000  0.5305460000000  0.4144860000000 1.0
C      1  0.4389230000000  0.4386020000000  0.4652290000000 1.0
C      1  0.4410240000000  0.4653450000000  0.5616240000000 1.0
C      1  0.4351080000000  0.5596020000000  0.5328740000000 1.0
C      1  0.4391340000000  0.5357740000000  0.4386950000000 1.0
C      1  0.5595160000000  0.4391540000000  0.4650150000000 1.0
C      1  0.5595080000000  0.4654760000000  0.5621760000000 1.0
C      1  0.5608840000000  0.5620920000000  0.5345450000000 1.0
C      1  0.5598280000000  0.5337700000000  0.4376110000000 1.0
C      1  0.4333600000000  0.5428190000000  0.4668780000000 1.0
C      1  0.4318570000000  0.4662180000000  0.4572940000000 1.0
C      1  0.4336780000000  0.4568170000000  0.5349550000000 1.0
C      1  0.4300770000000  0.5323710000000  0.5404200000000 1.0
C      1  0.5661000000000  0.5409560000000  0.4657600000000 1.0
C      1  0.5643800000000  0.4673900000000  0.4577730000000 1.0
C      1  0.5665850000000  0.4572720000000  0.5345880000000 1.0
C      1  0.5673220000000  0.5348360000000  0.5430780000000 1.0
C      1  0.5258140000000  0.4937950000000  0.5729840000000 1.0
C      1  0.5242740000000  0.5728660000000  0.5064910000000 1.0
C      1  0.5259000000000  0.5072580000000  0.4283300000000 1.0
C      1  0.5242310000000  0.4277540000000  0.4936330000000 1.0
C      1  0.4732200000000  0.4937590000000  0.5717460000000 1.0
C      1  0.4707020000000  0.5850430000000  0.5169530000000 1.0
C      1  0.4744640000000  0.5065300000000  0.4277990000000 1.0
C      1  0.4740280000000  0.4279330000000  0.4930440000000 1.0
C      1  0.5353520000000  0.4995970000000  0.5206950000000 1.0
C      1  0.5331130000000  0.5204760000000  0.5007500000000 1.0
C      1  0.5347150000000  0.5005700000000  0.4802420000000 1.0
C      1  0.5356600000000  0.4800230000000  0.4996120000000 1.0
C      1  0.4708940000000  0.4988040000000  0.5196530000000 1.0
C      1  0.4656990000000  0.5222240000000  0.5021730000000 1.0
C      1  0.4623560000000  0.5021700000000  0.4806940000000 1.0
C      1  0.4634860000000  0.4800080000000  0.4992160000000 1.0
C      1  0.4813370000000  0.4571130000000  0.5010040000000 1.0
C      1  0.4843330000000  0.5023980000000  0.5449170000000 1.0
C      1  0.4840410000000  0.5415810000000  0.4932600000000 1.0
C      1  0.4797300000000  0.4978890000000  0.4571000000000 1.0
C      1  0.5173050000000  0.4570900000000  0.5017550000000 1.0
C      1  0.5166170000000  0.5021160000000  0.5449390000000 1.0
C      1  0.5140900000000  0.5440780000000  0.4971540000000 1.0
C      1  0.5189780000000  0.4981240000000  0.4558970000000 1.0
C      1  0.4181290000000  0.4966040000000  0.5025500000000 1.0
C      1  0.5815120000000  0.5009200000000  0.5039230000000 1.0
C      1  0.4990940000000  0.4985150000000  0.5045090000000 1.0
END
