TITL C-2441168-9922-1056 0.00339475629470255 125000 -6601.59817133717 0 0 49 (C1) n - 1
REM
REM in /home/bkarasulu/work/CARBON/AIRSS/Generating-Clusters/ReaxFF-fromJPCA2015/Units_Real/with-SteepDescent/Higher-Symm
REM
REM
REM
REM
REM
REM ./C.cell (1df0a924f5614ab8850e4351716899ee)
REM
REM compiler GCC version 9.2.1 20190827 (Red Hat 9.2.1-1)
REM options -cpp -mtune=generic -march=x86-64 -g -O0 -fpre-include=/usr/include/finclude/math-vector-fortran.h
REM seed -1839226665 561026000 767513472 1559918236 -775969817 -788607346 1111381753 -1671084583 -96986019 -1445973599 -438103865 1106970785 -1888083242 1134968602 -1110303495 611024349 -181428371 -784839665 1144058425 449001896 1914810145 630508223 1258167706 -1319556250 -528754357 -1221363645 1838077823 234395135 577011527 -63897243 1351319191 833918943 -1780822025
REM
CELL 1.54180   50.00000   50.00000   50.00000   90.00000   90.00000   90.00000
LATT -1
SFAC C  
C      1  0.5506500000000  0.4712340000000  0.5524330000000 1.0
C      1  0.4687290000000  0.4736960000000  0.5598500000000 1.0
C      1  0.4279900000000  0.4659320000000  0.4856570000000 1.0
C      1  0.4922530000000  0.4609340000000  0.4264870000000 1.0
C      1  0.5666240000000  0.4681720000000  0.4690500000000 1.0
C      1  0.5437420000000  0.5411750000000  0.4837910000000 1.0
C      1  0.5303060000000  0.5409010000000  0.5364620000000 1.0
C      1  0.4826040000000  0.5409170000000  0.5357880000000 1.0
C      1  0.4505300000000  0.5401930000000  0.4907090000000 1.0
C      1  0.4988340000000  0.5480220000000  0.4620730000000 1.0
C      1  0.5032380000000  0.4460750000000  0.4742050000000 1.0
C      1  0.5241000000000  0.4467740000000  0.4952330000000 1.0
C      1  0.5110870000000  0.4448870000000  0.5214390000000 1.0
C      1  0.4820500000000  0.4450600000000  0.5163210000000 1.0
C      1  0.4764700000000  0.4452800000000  0.4869580000000 1.0
C      1  0.4872920000000  0.4946840000000  0.5659170000000 1.0
C      1  0.4325280000000  0.4898550000000  0.5062130000000 1.0
C      1  0.4777920000000  0.4814000000000  0.4348570000000 1.0
C      1  0.5540470000000  0.4933600000000  0.4590940000000 1.0
C      1  0.5589850000000  0.4945270000000  0.5361160000000 1.0
C      1  0.5247500000000  0.5200220000000  0.4446880000000 1.0
C      1  0.5565030000000  0.5277440000000  0.5062400000000 1.0
C      1  0.5182860000000  0.5220820000000  0.5548280000000 1.0
C      1  0.4474320000000  0.5205450000000  0.5301980000000 1.0
C      1  0.4603620000000  0.5136790000000  0.4540590000000 1.0
C      1  0.5345030000000  0.5070450000000  0.5043730000000 1.0
C      1  0.5163630000000  0.5172080000000  0.5247410000000 1.0
C      1  0.4747230000000  0.5149170000000  0.5252610000000 1.0
C      1  0.4672650000000  0.5172520000000  0.4827450000000 1.0
C      1  0.5058510000000  0.5084390000000  0.4641900000000 1.0
C      1  0.4583440000000  0.4845610000000  0.4533220000000 1.0
C      1  0.5241670000000  0.4878050000000  0.4523940000000 1.0
C      1  0.5525370000000  0.4842060000000  0.5092320000000 1.0
C      1  0.5091470000000  0.4778800000000  0.5584760000000 1.0
C      1  0.4471680000000  0.4800210000000  0.5264220000000 1.0
C      1  0.5234550000000  0.4578810000000  0.5465480000000 1.0
C      1  0.4618560000000  0.4580340000000  0.5370620000000 1.0
C      1  0.4539370000000  0.4617480000000  0.4740370000000 1.0
C      1  0.5099140000000  0.4590060000000  0.4482320000000 1.0
C      1  0.5513610000000  0.4593340000000  0.4935300000000 1.0
C      1  0.4901780000000  0.5255380000000  0.5609690000000 1.0
C      1  0.4317430000000  0.5207930000000  0.5064130000000 1.0
C      1  0.4854130000000  0.5279270000000  0.4462120000000 1.0
C      1  0.5488030000000  0.5232340000000  0.4611600000000 1.0
C      1  0.5549840000000  0.5253100000000  0.5357500000000 1.0
C      1  0.4959080000000  0.4769170000000  0.5010320000000 1.0
C      1  0.4913440000000  0.4984290000000  0.4999870000000 1.0
C      1  0.4989670000000  0.5530680000000  0.5128570000000 1.0
C      1  0.5130810000000  0.5507530000000  0.4873940000000 1.0
END
