TITL C-2441162-9305-1139 0.0651487403408204 125000 -18089.7500010759 0 0 139 (C1) n - 1
REM
REM in /home/bkarasulu/work/CARBON/AIRSS/Generating-Clusters/ReaxFF-fromJPCA2015/Units_Real/with-SteepDescent/Higher-Symm
REM
REM
REM
REM
REM
REM ./C.cell (1df0a924f5614ab8850e4351716899ee)
REM
REM compiler GCC version 9.2.1 20190827 (Red Hat 9.2.1-1)
REM options -cpp -mtune=generic -march=x86-64 -g -O0 -fpre-include=/usr/include/finclude/math-vector-fortran.h
REM seed -787294176 1991263192 1845838838 -1539058524 -1054687390 -458205204 -1746625554 278813337 464976775 -1281488162 871812785 -1236253245 -68154082 -719289755 1465192757 2049249110 -1404510326 -2051895749 516853714 156093138 -2120527294 -374109567 -203768872 -674130507 343301349 -338114004 -1644337005 1414081632 -653986106 1220355147 -1277551312 -1095801606 2032774162
REM
CELL 1.54180   50.00000   50.00000   50.00000   90.00000   90.00000   90.00000
LATT -1
SFAC C  
C      1  0.5548580000000  0.4498670000000  0.5458110000000 1.0
C      1  0.5668640000000  0.5368090000000  0.5437610000000 1.0
C      1  0.4831480000000  0.5768200000000  0.5435010000000 1.0
C      1  0.4222970000000  0.5096240000000  0.5475070000000 1.0
C      1  0.4681240000000  0.4287970000000  0.5401310000000 1.0
C      1  0.5567950000000  0.4466270000000  0.4539260000000 1.0
C      1  0.5642300000000  0.5390940000000  0.4538050000000 1.0
C      1  0.4822290000000  0.5709270000000  0.4515800000000 1.0
C      1  0.4232040000000  0.5081700000000  0.4592170000000 1.0
C      1  0.4698640000000  0.4306450000000  0.4558890000000 1.0
C      1  0.5519070000000  0.5690320000000  0.4876330000000 1.0
C      1  0.4522550000000  0.5750070000000  0.4839720000000 1.0
C      1  0.4134880000000  0.4729500000000  0.4858720000000 1.0
C      1  0.4970680000000  0.4084410000000  0.4831060000000 1.0
C      1  0.5859920000000  0.4681700000000  0.4840120000000 1.0
C      1  0.5559020000000  0.5710650000000  0.5156800000000 1.0
C      1  0.4534590000000  0.5732270000000  0.5121440000000 1.0
C      1  0.4111890000000  0.4739110000000  0.5153890000000 1.0
C      1  0.4969310000000  0.4119540000000  0.5113520000000 1.0
C      1  0.5835950000000  0.4697640000000  0.5131820000000 1.0
C      1  0.4704320000000  0.4229170000000  0.5155880000000 1.0
C      1  0.5649500000000  0.4452760000000  0.5186080000000 1.0
C      1  0.5789070000000  0.5583340000000  0.5282420000000 1.0
C      1  0.4805190000000  0.5836640000000  0.5169800000000 1.0
C      1  0.4016120000000  0.5000560000000  0.5236600000000 1.0
C      1  0.4716080000000  0.4054860000000  0.4709160000000 1.0
C      1  0.5797110000000  0.4420520000000  0.4724280000000 1.0
C      1  0.5701910000000  0.5450120000000  0.4817210000000 1.0
C      1  0.4728200000000  0.5898180000000  0.4712140000000 1.0
C      1  0.4156970000000  0.5025490000000  0.4816780000000 1.0
C      1  0.4552580000000  0.5042560000000  0.5215570000000 1.0
C      1  0.4903300000000  0.4649530000000  0.5199320000000 1.0
C      1  0.5291140000000  0.4835300000000  0.5169690000000 1.0
C      1  0.5386040000000  0.5244930000000  0.5195580000000 1.0
C      1  0.4887920000000  0.5421730000000  0.5106310000000 1.0
C      1  0.4629060000000  0.4939060000000  0.4843490000000 1.0
C      1  0.4835140000000  0.4554720000000  0.4787090000000 1.0
C      1  0.5337740000000  0.4689180000000  0.4796690000000 1.0
C      1  0.5258670000000  0.5213540000000  0.4781500000000 1.0
C      1  0.4850890000000  0.5280180000000  0.4859440000000 1.0
C      1  0.5901830000000  0.5447890000000  0.5510990000000 1.0
C      1  0.4902340000000  0.5974790000000  0.5514140000000 1.0
C      1  0.3984360000000  0.5167430000000  0.5448800000000 1.0
C      1  0.4496840000000  0.4181170000000  0.5494880000000 1.0
C      1  0.5654210000000  0.4282200000000  0.5461230000000 1.0
C      1  0.5877730000000  0.5386200000000  0.4524610000000 1.0
C      1  0.4891160000000  0.5952320000000  0.4474830000000 1.0
C      1  0.4090260000000  0.5204210000000  0.4462210000000 1.0
C      1  0.4537390000000  0.4109870000000  0.4492170000000 1.0
C      1  0.5719470000000  0.4276260000000  0.4493230000000 1.0
C      1  0.4467090000000  0.5518050000000  0.5308600000000 1.0
C      1  0.4303750000000  0.4624830000000  0.5345510000000 1.0
C      1  0.5138480000000  0.4246080000000  0.5319730000000 1.0
C      1  0.5767060000000  0.4904240000000  0.5318300000000 1.0
C      1  0.5286840000000  0.5715640000000  0.5295350000000 1.0
C      1  0.4442300000000  0.5534690000000  0.4676820000000 1.0
C      1  0.4314830000000  0.4600640000000  0.4677470000000 1.0
C      1  0.5156300000000  0.4227590000000  0.4675040000000 1.0
C      1  0.5773420000000  0.4897370000000  0.4655450000000 1.0
C      1  0.5242910000000  0.5673050000000  0.4758530000000 1.0
C      1  0.5039710000000  0.5345170000000  0.5531950000000 1.0
C      1  0.4736380000000  0.5052060000000  0.5581710000000 1.0
C      1  0.4731860000000  0.4759970000000  0.5584450000000 1.0
C      1  0.5182580000000  0.4711060000000  0.5590340000000 1.0
C      1  0.5272770000000  0.4987300000000  0.5559970000000 1.0
C      1  0.4973500000000  0.5308080000000  0.4405630000000 1.0
C      1  0.4711990000000  0.5178520000000  0.4450160000000 1.0
C      1  0.4752100000000  0.4877620000000  0.4432050000000 1.0
C      1  0.5179070000000  0.4812420000000  0.4393790000000 1.0
C      1  0.5357180000000  0.5037970000000  0.4419940000000 1.0
C      1  0.4271660000000  0.5262150000000  0.5713020000000 1.0
C      1  0.4478460000000  0.4346960000000  0.5728360000000 1.0
C      1  0.5478790000000  0.4332570000000  0.5690170000000 1.0
C      1  0.5771870000000  0.5239620000000  0.5690200000000 1.0
C      1  0.5022330000000  0.5824650000000  0.5734080000000 1.0
C      1  0.4269550000000  0.5283820000000  0.4250040000000 1.0
C      1  0.4521210000000  0.4347700000000  0.4308790000000 1.0
C      1  0.5459940000000  0.4348620000000  0.4290480000000 1.0
C      1  0.5764610000000  0.5253020000000  0.4299420000000 1.0
C      1  0.4981070000000  0.5751610000000  0.4273760000000 1.0
C      1  0.5462050000000  0.4998890000000  0.5331190000000 1.0
C      1  0.5226940000000  0.5428840000000  0.5343660000000 1.0
C      1  0.4671180000000  0.5309390000000  0.5292690000000 1.0
C      1  0.4537630000000  0.4786870000000  0.5362360000000 1.0
C      1  0.5079830000000  0.4522350000000  0.5385530000000 1.0
C      1  0.5486240000000  0.4900700000000  0.4646160000000 1.0
C      1  0.5165370000000  0.5419050000000  0.4610510000000 1.0
C      1  0.4629770000000  0.5320650000000  0.4691910000000 1.0
C      1  0.4615210000000  0.4723500000000  0.4657500000000 1.0
C      1  0.5118350000000  0.4509650000000  0.4723950000000 1.0
C      1  0.5398330000000  0.5533230000000  0.5740610000000 1.0
C      1  0.4624220000000  0.5554540000000  0.5750480000000 1.0
C      1  0.4337240000000  0.4807510000000  0.5778690000000 1.0
C      1  0.4982580000000  0.4306910000000  0.5745990000000 1.0
C      1  0.5644270000000  0.4767750000000  0.5759120000000 1.0
C      1  0.5356670000000  0.5600510000000  0.4237440000000 1.0
C      1  0.4583330000000  0.5546870000000  0.4201930000000 1.0
C      1  0.4362600000000  0.4805340000000  0.4253470000000 1.0
C      1  0.4980830000000  0.4345500000000  0.4257510000000 1.0
C      1  0.5644730000000  0.4774330000000  0.4225720000000 1.0
C      1  0.4770570000000  0.4473460000000  0.4154780000000 1.0
C      1  0.5441430000000  0.4614630000000  0.4129770000000 1.0
C      1  0.5473380000000  0.5331250000000  0.4159000000000 1.0
C      1  0.4839060000000  0.5559510000000  0.4095470000000 1.0
C      1  0.4446950000000  0.5041400000000  0.4138230000000 1.0
C      1  0.4766350000000  0.4446540000000  0.5848430000000 1.0
C      1  0.5456750000000  0.4606010000000  0.5876350000000 1.0
C      1  0.5491100000000  0.5292520000000  0.5833970000000 1.0
C      1  0.4869930000000  0.5571370000000  0.5859310000000 1.0
C      1  0.4429060000000  0.5057280000000  0.5867030000000 1.0
C      1  0.4395670000000  0.5514400000000  0.5602250000000 1.0
C      1  0.4289300000000  0.4569010000000  0.5645080000000 1.0
C      1  0.5194660000000  0.4198970000000  0.5608630000000 1.0
C      1  0.5804520000000  0.4936300000000  0.5606450000000 1.0
C      1  0.5287370000000  0.5743920000000  0.5616270000000 1.0
C      1  0.4377770000000  0.5533920000000  0.4383690000000 1.0
C      1  0.4309660000000  0.4567320000000  0.4390230000000 1.0
C      1  0.5191810000000  0.4224490000000  0.4380810000000 1.0
C      1  0.5807730000000  0.4945110000000  0.4363400000000 1.0
C      1  0.5358600000000  0.5768040000000  0.4488080000000 1.0
C      1  0.4737750000000  0.5033920000000  0.4064550000000 1.0
C      1  0.4855970000000  0.4765910000000  0.4120050000000 1.0
C      1  0.5192350000000  0.4787100000000  0.4100810000000 1.0
C      1  0.5269060000000  0.5127310000000  0.4132690000000 1.0
C      1  0.4955510000000  0.5253680000000  0.4108810000000 1.0
C      1  0.4736940000000  0.5061550000000  0.5874720000000 1.0
C      1  0.4857760000000  0.4733660000000  0.5858550000000 1.0
C      1  0.5190980000000  0.4759300000000  0.5877150000000 1.0
C      1  0.5262710000000  0.5106080000000  0.5838010000000 1.0
C      1  0.4980260000000  0.5291480000000  0.5825170000000 1.0
C      1  0.5036910000000  0.5668880000000  0.5076090000000 1.0
C      1  0.5396960000000  0.4592590000000  0.5062980000000 1.0
C      1  0.4421060000000  0.5072000000000  0.4956050000000 1.0
C      1  0.5501330000000  0.5250700000000  0.4930380000000 1.0
C      1  0.4727820000000  0.4496730000000  0.5041840000000 1.0
C      1  0.5012520000000  0.5045110000000  0.4795200000000 1.0
C      1  0.5019500000000  0.4909850000000  0.5186620000000 1.0
C      1  0.4982390000000  0.4868830000000  0.4571310000000 1.0
C      1  0.4982490000000  0.5082230000000  0.5429530000000 1.0
END
