TITL C-2441161-5029-787 0.0611697427020822 125000 -16654.7795384567 0 0 123 (C1) n - 1
REM
REM in /home/bkarasulu/work/CARBON/AIRSS/Generating-Clusters/ReaxFF-fromJPCA2015/Units_Real/with-SteepDescent/Higher-Symm
REM
REM
REM
REM
REM
REM ./C.cell (1df0a924f5614ab8850e4351716899ee)
REM
REM compiler GCC version 9.2.1 20190827 (Red Hat 9.2.1-1)
REM options -cpp -mtune=generic -march=x86-64 -g -O0 -fpre-include=/usr/include/finclude/math-vector-fortran.h
REM seed 92563223 -510548092 -276981133 1721901199 1004945303 -1718743379 1112160925 72258380 -572080727 -1748542600 -1958658732 -402129174 -549314168 -1933350978 -1686743197 -265413642 1512619692 1104893673 1761081369 1964318887 -377743029 1507499679 685461121 -904633533 1514860250 -2020226749 -225076298 74190016 -1845995151 -1866244154 -1180774124 -1377642874 870988008
REM
CELL 1.54180   50.00000   50.00000   50.00000   90.00000   90.00000   90.00000
LATT -1
SFAC C  
C      1  0.4785270000000  0.4701510000000  0.4898990000000 1.0
C      1  0.5021120000000  0.4700560000000  0.4740700000000 1.0
C      1  0.5210880000000  0.4780160000000  0.4946290000000 1.0
C      1  0.5148180000000  0.4635360000000  0.5211040000000 1.0
C      1  0.4858180000000  0.4689190000000  0.5176450000000 1.0
C      1  0.5263750000000  0.5339050000000  0.4894190000000 1.0
C      1  0.5001700000000  0.5264260000000  0.4796820000000 1.0
C      1  0.4770460000000  0.5335310000000  0.4960920000000 1.0
C      1  0.4890950000000  0.5367110000000  0.5225580000000 1.0
C      1  0.5166030000000  0.5246380000000  0.5160140000000 1.0
C      1  0.5463950000000  0.4313230000000  0.4709920000000 1.0
C      1  0.5449810000000  0.4312730000000  0.5373560000000 1.0
C      1  0.4794730000000  0.4309640000000  0.5528470000000 1.0
C      1  0.4433290000000  0.4307400000000  0.4961130000000 1.0
C      1  0.4852890000000  0.4324140000000  0.4446340000000 1.0
C      1  0.4513540000000  0.5656490000000  0.4653460000000 1.0
C      1  0.4550930000000  0.5716610000000  0.5347790000000 1.0
C      1  0.5191930000000  0.5691500000000  0.5522600000000 1.0
C      1  0.5557320000000  0.5701160000000  0.4965390000000 1.0
C      1  0.5140650000000  0.5713170000000  0.4442550000000 1.0
C      1  0.4673730000000  0.5762210000000  0.5086730000000 1.0
C      1  0.4783480000000  0.5736730000000  0.4702310000000 1.0
C      1  0.5208000000000  0.5764260000000  0.4712800000000 1.0
C      1  0.5310210000000  0.5762400000000  0.5111890000000 1.0
C      1  0.4963550000000  0.5663760000000  0.5346940000000 1.0
C      1  0.5315920000000  0.4342530000000  0.5114920000000 1.0
C      1  0.5181690000000  0.4262260000000  0.4720170000000 1.0
C      1  0.4771850000000  0.4249280000000  0.4712970000000 1.0
C      1  0.4673150000000  0.4247340000000  0.5114730000000 1.0
C      1  0.5009900000000  0.4246810000000  0.5350350000000 1.0
C      1  0.4958770000000  0.4773190000000  0.4251810000000 1.0
C      1  0.5690310000000  0.4778250000000  0.4744650000000 1.0
C      1  0.5503350000000  0.4796840000000  0.5573050000000 1.0
C      1  0.4605930000000  0.4786360000000  0.5603100000000 1.0
C      1  0.4292280000000  0.4777970000000  0.4807250000000 1.0
C      1  0.5065110000000  0.5257350000000  0.4225690000000 1.0
C      1  0.4315630000000  0.5216850000000  0.4734830000000 1.0
C      1  0.4551500000000  0.5234980000000  0.5564440000000 1.0
C      1  0.5397570000000  0.5240290000000  0.5610910000000 1.0
C      1  0.5734420000000  0.5239640000000  0.4806770000000 1.0
C      1  0.5056220000000  0.4855850000000  0.4508110000000 1.0
C      1  0.5489130000000  0.4887560000000  0.4922300000000 1.0
C      1  0.5243740000000  0.4833690000000  0.5422400000000 1.0
C      1  0.4691630000000  0.4876730000000  0.5331610000000 1.0
C      1  0.4571930000000  0.4880160000000  0.4792840000000 1.0
C      1  0.4968750000000  0.5144660000000  0.4502040000000 1.0
C      1  0.4542420000000  0.5155130000000  0.4928030000000 1.0
C      1  0.4790140000000  0.5151960000000  0.5414320000000 1.0
C      1  0.5323060000000  0.5107690000000  0.5364370000000 1.0
C      1  0.5455700000000  0.5147450000000  0.4790780000000 1.0
C      1  0.4624870000000  0.5268340000000  0.5844020000000 1.0
C      1  0.4086840000000  0.5277960000000  0.4910400000000 1.0
C      1  0.4828590000000  0.5316360000000  0.4075450000000 1.0
C      1  0.5811850000000  0.5280410000000  0.4532960000000 1.0
C      1  0.5678870000000  0.5286300000000  0.5618940000000 1.0
C      1  0.5375580000000  0.4739470000000  0.5826930000000 1.0
C      1  0.5927860000000  0.4745410000000  0.4905750000000 1.0
C      1  0.5195910000000  0.4731260000000  0.4098370000000 1.0
C      1  0.4186080000000  0.4735140000000  0.4543520000000 1.0
C      1  0.4320270000000  0.4740180000000  0.5619450000000 1.0
C      1  0.4729020000000  0.5488220000000  0.4290660000000 1.0
C      1  0.5636910000000  0.5517500000000  0.4517400000000 1.0
C      1  0.5641790000000  0.5520290000000  0.5441990000000 1.0
C      1  0.4769730000000  0.5516020000000  0.5775210000000 1.0
C      1  0.4217440000000  0.5507380000000  0.5024770000000 1.0
C      1  0.5268050000000  0.4500850000000  0.4258620000000 1.0
C      1  0.4361100000000  0.4499630000000  0.4511050000000 1.0
C      1  0.4349550000000  0.4501920000000  0.5444510000000 1.0
C      1  0.5220080000000  0.4506970000000  0.5752400000000 1.0
C      1  0.5808800000000  0.4500040000000  0.5022170000000 1.0
C      1  0.4128890000000  0.5198910000000  0.5358840000000 1.0
C      1  0.4316390000000  0.5232040000000  0.4320170000000 1.0
C      1  0.5498620000000  0.5191650000000  0.4189850000000 1.0
C      1  0.5880700000000  0.5187340000000  0.5250650000000 1.0
C      1  0.5080600000000  0.5202180000000  0.5952340000000 1.0
C      1  0.5902200000000  0.4802630000000  0.5359260000000 1.0
C      1  0.5629090000000  0.4813050000000  0.4284070000000 1.0
C      1  0.4487290000000  0.4847790000000  0.4234670000000 1.0
C      1  0.4080530000000  0.4813600000000  0.5224580000000 1.0
C      1  0.4940900000000  0.4817630000000  0.5939070000000 1.0
C      1  0.4767610000000  0.4556800000000  0.5680480000000 1.0
C      1  0.4275620000000  0.4545650000000  0.4982870000000 1.0
C      1  0.4766120000000  0.4561210000000  0.4302120000000 1.0
C      1  0.5600980000000  0.4545390000000  0.4595040000000 1.0
C      1  0.5586690000000  0.4551270000000  0.5447480000000 1.0
C      1  0.5246500000000  0.5471620000000  0.5694970000000 1.0
C      1  0.5730300000000  0.5467940000000  0.4987010000000 1.0
C      1  0.5228620000000  0.5484160000000  0.4292510000000 1.0
C      1  0.4349310000000  0.5425810000000  0.4534890000000 1.0
C      1  0.4428700000000  0.5463150000000  0.5427390000000 1.0
C      1  0.5134060000000  0.4307200000000  0.4439350000000 1.0
C      1  0.5571720000000  0.4331330000000  0.4970460000000 1.0
C      1  0.5217830000000  0.4297570000000  0.5542340000000 1.0
C      1  0.4560100000000  0.4308680000000  0.5376730000000 1.0
C      1  0.4487230000000  0.4302670000000  0.4690480000000 1.0
C      1  0.4858080000000  0.5719250000000  0.4429720000000 1.0
C      1  0.4432920000000  0.5696860000000  0.4933810000000 1.0
C      1  0.4757270000000  0.5704650000000  0.5549320000000 1.0
C      1  0.5426520000000  0.5712510000000  0.5374240000000 1.0
C      1  0.5493550000000  0.5705070000000  0.4696560000000 1.0
C      1  0.4235930000000  0.4944790000000  0.4343490000000 1.0
C      1  0.5426490000000  0.4919770000000  0.4099930000000 1.0
C      1  0.5985570000000  0.4940760000000  0.5117320000000 1.0
C      1  0.5205520000000  0.4932740000000  0.5974040000000 1.0
C      1  0.4133680000000  0.4929590000000  0.5488580000000 1.0
C      1  0.5736770000000  0.5088660000000  0.4319730000000 1.0
C      1  0.4584480000000  0.5122710000000  0.4207390000000 1.0
C      1  0.4007300000000  0.5083720000000  0.5119910000000 1.0
C      1  0.4816190000000  0.5082260000000  0.5976780000000 1.0
C      1  0.5808110000000  0.5044170000000  0.5510750000000 1.0
C      1  0.5411070000000  0.4682150000000  0.4437700000000 1.0
C      1  0.5671380000000  0.4682630000000  0.5211350000000 1.0
C      1  0.5005500000000  0.4685590000000  0.5694880000000 1.0
C      1  0.4353120000000  0.4691800000000  0.5214690000000 1.0
C      1  0.4571590000000  0.4688350000000  0.4448470000000 1.0
C      1  0.4697460000000  0.5238490000000  0.4446310000000 1.0
C      1  0.4337840000000  0.5327750000000  0.5213320000000 1.0
C      1  0.4998230000000  0.5335470000000  0.5701610000000 1.0
C      1  0.5627140000000  0.5329700000000  0.5214440000000 1.0
C      1  0.5421810000000  0.5330040000000  0.4435830000000 1.0
C      1  0.5048100000000  0.5770640000000  0.4965170000000 1.0
C      1  0.4933740000000  0.4246440000000  0.4967590000000 1.0
C      1  0.5035090000000  0.5025840000000  0.4996190000000 1.0
END
