TITL C-2441168-9922-927 0.306489654617038 125000 -20053.8547640828 0 0 181 (C1) n - 1
REM
REM in /home/bkarasulu/work/CARBON/AIRSS/Generating-Clusters/ReaxFF-fromJPCA2015/Units_Real/with-SteepDescent/Higher-Symm
REM
REM
REM
REM
REM
REM ./C.cell (1df0a924f5614ab8850e4351716899ee)
REM
REM compiler GCC version 9.2.1 20190827 (Red Hat 9.2.1-1)
REM options -cpp -mtune=generic -march=x86-64 -g -O0 -fpre-include=/usr/include/finclude/math-vector-fortran.h
REM seed 1935063630 -1940449403 1285797537 196844157 -637211157 1938157796 -253119532 826989722 -250529974 1269950126 -1583629576 951498311 565598223 466419805 -1586933127 834366450 -714989770 435421658 -1798962703 1993363353 886047379 1798714059 81359343 -1209082212 -1682245524 1797428864 -1387148793 -1693379577 2072386637 1043697849 -1154738332 1869588458 -1073368673
REM
CELL 1.54180   50.00000   50.00000   50.00000   90.00000   90.00000   90.00000
LATT -1
SFAC C  
C      1  0.5310480000000  0.5570670000000  0.5765680000000 1.0
C      1  0.5336230000000  0.4283630000000  0.5556120000000 1.0
C      1  0.5323400000000  0.4423250000000  0.4225000000000 1.0
C      1  0.5280530000000  0.5701270000000  0.4443490000000 1.0
C      1  0.5315830000000  0.5552430000000  0.4226630000000 1.0
C      1  0.5318960000000  0.4225830000000  0.4426340000000 1.0
C      1  0.5335930000000  0.4436420000000  0.5778270000000 1.0
C      1  0.5312550000000  0.5759160000000  0.5561270000000 1.0
C      1  0.4017590000000  0.4600900000000  0.5250160000000 1.0
C      1  0.3978920000000  0.4814160000000  0.4551420000000 1.0
C      1  0.4025870000000  0.5426920000000  0.4842700000000 1.0
C      1  0.3996470000000  0.5119360000000  0.5409090000000 1.0
C      1  0.4014480000000  0.4606700000000  0.4751210000000 1.0
C      1  0.3982970000000  0.4814240000000  0.5446620000000 1.0
C      1  0.4016100000000  0.5441390000000  0.5144940000000 1.0
C      1  0.3997230000000  0.5118290000000  0.4580330000000 1.0
C      1  0.4232380000000  0.5097560000000  0.5254340000000 1.0
C      1  0.4263600000000  0.4702530000000  0.5141560000000 1.0
C      1  0.4356890000000  0.4896430000000  0.4741200000000 1.0
C      1  0.4289210000000  0.5310710000000  0.4850010000000 1.0
C      1  0.4242250000000  0.5110060000000  0.4723930000000 1.0
C      1  0.4240190000000  0.4720900000000  0.4887220000000 1.0
C      1  0.4361530000000  0.4888450000000  0.5280630000000 1.0
C      1  0.4301070000000  0.5306150000000  0.5138390000000 1.0
C      1  0.5621330000000  0.4743650000000  0.5775360000000 1.0
C      1  0.5619010000000  0.4223420000000  0.4747940000000 1.0
C      1  0.5613060000000  0.5254950000000  0.4237140000000 1.0
C      1  0.5637150000000  0.5739450000000  0.5253320000000 1.0
C      1  0.5630330000000  0.4737030000000  0.4224600000000 1.0
C      1  0.5629300000000  0.4229900000000  0.5260040000000 1.0
C      1  0.5616620000000  0.5259590000000  0.5762590000000 1.0
C      1  0.5629640000000  0.5781050000000  0.4730630000000 1.0
C      1  0.4909550000000  0.5660560000000  0.5252290000000 1.0
C      1  0.4903730000000  0.4717460000000  0.5625580000000 1.0
C      1  0.4899920000000  0.4358430000000  0.4727920000000 1.0
C      1  0.4897380000000  0.5251690000000  0.4356220000000 1.0
C      1  0.4891710000000  0.5648010000000  0.4747530000000 1.0
C      1  0.4886470000000  0.4726200000000  0.4366590000000 1.0
C      1  0.4871330000000  0.4359620000000  0.5260820000000 1.0
C      1  0.4902760000000  0.5258030000000  0.5640210000000 1.0
C      1  0.5930970000000  0.4776470000000  0.4590220000000 1.0
C      1  0.5936860000000  0.5429880000000  0.4769110000000 1.0
C      1  0.6002460000000  0.5170540000000  0.5423410000000 1.0
C      1  0.5941180000000  0.4609580000000  0.5203040000000 1.0
C      1  0.5950320000000  0.4841640000000  0.5404960000000 1.0
C      1  0.5978380000000  0.5384170000000  0.5230550000000 1.0
C      1  0.5921860000000  0.5226700000000  0.4582150000000 1.0
C      1  0.5955800000000  0.4578590000000  0.4789950000000 1.0
C      1  0.5655280000000  0.5139130000000  0.4692690000000 1.0
C      1  0.5716520000000  0.5302340000000  0.5146710000000 1.0
C      1  0.5658180000000  0.4884040000000  0.5310610000000 1.0
C      1  0.5653780000000  0.4693730000000  0.4868670000000 1.0
C      1  0.5596200000000  0.5139410000000  0.5304980000000 1.0
C      1  0.5667420000000  0.5343090000000  0.4889890000000 1.0
C      1  0.5657620000000  0.4876610000000  0.4681190000000 1.0
C      1  0.5664410000000  0.4696480000000  0.5133630000000 1.0
C      1  0.4411010000000  0.5256400000000  0.5713460000000 1.0
C      1  0.4383440000000  0.4271360000000  0.5254110000000 1.0
C      1  0.4413010000000  0.4726250000000  0.4285370000000 1.0
C      1  0.4402970000000  0.5724740000000  0.4733060000000 1.0
C      1  0.4406900000000  0.5254620000000  0.4289500000000 1.0
C      1  0.4404380000000  0.4276020000000  0.4741300000000 1.0
C      1  0.4415710000000  0.4722520000000  0.5707690000000 1.0
C      1  0.4386770000000  0.5734770000000  0.5279680000000 1.0
C      1  0.5144790000000  0.5982650000000  0.5486450000000 1.0
C      1  0.5133550000000  0.4499020000000  0.5963510000000 1.0
C      1  0.5129840000000  0.4017880000000  0.4516390000000 1.0
C      1  0.5106090000000  0.5493790000000  0.4051460000000 1.0
C      1  0.5190760000000  0.6032070000000  0.4504520000000 1.0
C      1  0.5135830000000  0.4513970000000  0.4014890000000 1.0
C      1  0.5162250000000  0.4060090000000  0.5541990000000 1.0
C      1  0.5135480000000  0.5497370000000  0.5973950000000 1.0
C      1  0.4620120000000  0.4905570000000  0.5308820000000 1.0
C      1  0.4681110000000  0.4664080000000  0.4855160000000 1.0
C      1  0.4675500000000  0.5116940000000  0.4661800000000 1.0
C      1  0.4573150000000  0.5358910000000  0.5142410000000 1.0
C      1  0.4594450000000  0.4870550000000  0.4684180000000 1.0
C      1  0.4678310000000  0.4680800000000  0.5138360000000 1.0
C      1  0.4691190000000  0.5171470000000  0.5302650000000 1.0
C      1  0.4647860000000  0.5311460000000  0.4850280000000 1.0
C      1  0.5873900000000  0.4309790000000  0.4858850000000 1.0
C      1  0.5874280000000  0.5143400000000  0.4309990000000 1.0
C      1  0.5889220000000  0.5660810000000  0.5146770000000 1.0
C      1  0.5867390000000  0.4855280000000  0.5685360000000 1.0
C      1  0.5877630000000  0.4330800000000  0.5152130000000 1.0
C      1  0.5868760000000  0.5141330000000  0.5676210000000 1.0
C      1  0.5883510000000  0.5698710000000  0.4859090000000 1.0
C      1  0.5884240000000  0.4850590000000  0.4312590000000 1.0
C      1  0.4135890000000  0.5708320000000  0.5148280000000 1.0
C      1  0.4159040000000  0.4852810000000  0.5677250000000 1.0
C      1  0.4149200000000  0.4341230000000  0.4841200000000 1.0
C      1  0.4155340000000  0.5130850000000  0.4326920000000 1.0
C      1  0.4134150000000  0.5711630000000  0.4848260000000 1.0
C      1  0.4158090000000  0.4847650000000  0.4319070000000 1.0
C      1  0.4132970000000  0.4335310000000  0.5134530000000 1.0
C      1  0.4158940000000  0.5142610000000  0.5671840000000 1.0
C      1  0.4886990000000  0.3951610000000  0.4880240000000 1.0
C      1  0.4877290000000  0.5136630000000  0.3946820000000 1.0
C      1  0.4940950000000  0.6045890000000  0.5136770000000 1.0
C      1  0.4884050000000  0.4856620000000  0.6048730000000 1.0
C      1  0.4887780000000  0.3957350000000  0.5156830000000 1.0
C      1  0.4885810000000  0.5133820000000  0.6048310000000 1.0
C      1  0.4859240000000  0.6046310000000  0.4871180000000 1.0
C      1  0.4879810000000  0.4861420000000  0.3950480000000 1.0
C      1  0.4309390000000  0.5748750000000  0.5551560000000 1.0
C      1  0.4331850000000  0.4468960000000  0.5741130000000 1.0
C      1  0.4315560000000  0.4249930000000  0.4475080000000 1.0
C      1  0.4330110000000  0.5526000000000  0.4240860000000 1.0
C      1  0.4314600000000  0.5737300000000  0.4468850000000 1.0
C      1  0.4317250000000  0.4464340000000  0.4253550000000 1.0
C      1  0.4320720000000  0.4262430000000  0.5536850000000 1.0
C      1  0.4317020000000  0.5515100000000  0.5749120000000 1.0
C      1  0.5260700000000  0.5281240000000  0.5145820000000 1.0
C      1  0.5324770000000  0.4806800000000  0.5371180000000 1.0
C      1  0.5373620000000  0.4601800000000  0.4834500000000 1.0
C      1  0.5331290000000  0.5180990000000  0.4712600000000 1.0
C      1  0.5373600000000  0.5427480000000  0.4883750000000 1.0
C      1  0.5330630000000  0.4780300000000  0.4603360000000 1.0
C      1  0.5342140000000  0.4586920000000  0.5126790000000 1.0
C      1  0.5341200000000  0.5120340000000  0.5381820000000 1.0
C      1  0.5593850000000  0.5539820000000  0.4249070000000 1.0
C      1  0.5595950000000  0.5737740000000  0.5533460000000 1.0
C      1  0.5619690000000  0.4458300000000  0.5764340000000 1.0
C      1  0.5595540000000  0.4253270000000  0.4467110000000 1.0
C      1  0.5597150000000  0.5536870000000  0.5747610000000 1.0
C      1  0.5578870000000  0.5740790000000  0.4456820000000 1.0
C      1  0.5604600000000  0.4455010000000  0.4258470000000 1.0
C      1  0.5618500000000  0.4269020000000  0.5539320000000 1.0
C      1  0.5350270000000  0.4851960000000  0.4244890000000 1.0
C      1  0.5352390000000  0.5741000000000  0.4854200000000 1.0
C      1  0.5347510000000  0.5141890000000  0.5778020000000 1.0
C      1  0.5351160000000  0.4247370000000  0.5146840000000 1.0
C      1  0.5363030000000  0.4863170000000  0.5826070000000 1.0
C      1  0.5394410000000  0.5816300000000  0.5124490000000 1.0
C      1  0.5359300000000  0.5132210000000  0.4182410000000 1.0
C      1  0.5358630000000  0.4199010000000  0.4875040000000 1.0
C      1  0.5156910000000  0.4796830000000  0.3996880000000 1.0
C      1  0.5134900000000  0.6008300000000  0.4778430000000 1.0
C      1  0.5156170000000  0.5217160000000  0.6001700000000 1.0
C      1  0.5145590000000  0.4024770000000  0.5256600000000 1.0
C      1  0.5162630000000  0.4773660000000  0.6019390000000 1.0
C      1  0.5215570000000  0.6024430000000  0.5208760000000 1.0
C      1  0.5157360000000  0.5216980000000  0.3980440000000 1.0
C      1  0.5161870000000  0.3987880000000  0.4800590000000 1.0
C      1  0.4567190000000  0.5631440000000  0.5847120000000 1.0
C      1  0.4564220000000  0.4158820000000  0.5637850000000 1.0
C      1  0.4569250000000  0.4357700000000  0.4165390000000 1.0
C      1  0.4574150000000  0.5833760000000  0.4359610000000 1.0
C      1  0.4597330000000  0.5619120000000  0.4162100000000 1.0
C      1  0.4569300000000  0.4157670000000  0.4366060000000 1.0
C      1  0.4574240000000  0.4369250000000  0.5840320000000 1.0
C      1  0.4565740000000  0.5837540000000  0.5652500000000 1.0
C      1  0.4664950000000  0.5789920000000  0.4874020000000 1.0
C      1  0.4682070000000  0.5140230000000  0.5783530000000 1.0
C      1  0.4660860000000  0.4206430000000  0.5127450000000 1.0
C      1  0.4676530000000  0.4843790000000  0.4218070000000 1.0
C      1  0.4641480000000  0.5653830000000  0.5158980000000 1.0
C      1  0.4679790000000  0.5129030000000  0.4203970000000 1.0
C      1  0.4678440000000  0.4203660000000  0.4845090000000 1.0
C      1  0.4686460000000  0.4839650000000  0.5785190000000 1.0
C      1  0.4930730000000  0.5385360000000  0.4861980000000 1.0
C      1  0.4943190000000  0.5193840000000  0.5368570000000 1.0
C      1  0.4942310000000  0.4623440000000  0.5178800000000 1.0
C      1  0.5033830000000  0.4834290000000  0.4604610000000 1.0
C      1  0.5019830000000  0.5400860000000  0.5178870000000 1.0
C      1  0.4943270000000  0.5144440000000  0.4613900000000 1.0
C      1  0.4958670000000  0.4624030000000  0.4818640000000 1.0
C      1  0.5031630000000  0.4832640000000  0.5387910000000 1.0
C      1  0.4828400000000  0.5769560000000  0.4497780000000 1.0
C      1  0.4868820000000  0.5489040000000  0.5822880000000 1.0
C      1  0.4798580000000  0.4223830000000  0.5495470000000 1.0
C      1  0.4875620000000  0.4503460000000  0.4189620000000 1.0
C      1  0.4875430000000  0.5840000000000  0.5482970000000 1.0
C      1  0.4858720000000  0.5487070000000  0.4206860000000 1.0
C      1  0.4876560000000  0.4184950000000  0.4496060000000 1.0
C      1  0.4893920000000  0.4461750000000  0.5793880000000 1.0
C      1  0.5048910000000  0.5854480000000  0.4342720000000 1.0
C      1  0.4966870000000  0.4187590000000  0.5701420000000 1.0
C      1  0.4960300000000  0.4265780000000  0.4260850000000 1.0
C      1  0.4943330000000  0.5731630000000  0.5722370000000 1.0
C      1  0.5225590000000  0.5038410000000  0.4939840000000 1.0
END
