TITL C-2441155-8282-9 0.0721139288831204 125000 -13737.0926760438 0 0 108 (C1) n - 1
REM
REM in /home/bkarasulu/work/CARBON/AIRSS/Generating-Clusters/ReaxFF-fromJPCA2015/Units_Real/with-SteepDescent/Higher-Symm
REM
REM
REM
REM
REM
REM ./C.cell (1df0a924f5614ab8850e4351716899ee)
REM
REM compiler GCC version 9.2.1 20190827 (Red Hat 9.2.1-1)
REM options -cpp -mtune=generic -march=x86-64 -g -O0 -fpre-include=/usr/include/finclude/math-vector-fortran.h
REM seed 460696869 332211057 -1587154352 -900119341 1299790347 -1228342306 -1442886875 1700650892 -920347624 1682699009 -1455554615 1003213037 2115364847 604891485 -1865732259 2025372907 -1399849540 -1145213207 785326800 -940919452 -973072684 -1903097113 1849337708 1735700749 842281605 1555710248 -1534000051 1991219776 1484652382 -2020062860 75554609 753155769 -165918070
REM
CELL 1.54180   50.00000   50.00000   50.00000   90.00000   90.00000   90.00000
LATT -1
SFAC C  
C      1  0.5431880000000  0.4933790000000  0.4255750000000 1.0
C      1  0.4566960000000  0.5060430000000  0.5739920000000 1.0
C      1  0.5258380000000  0.5563780000000  0.4943890000000 1.0
C      1  0.4880960000000  0.4452880000000  0.5012190000000 1.0
C      1  0.5274500000000  0.4406560000000  0.5223570000000 1.0
C      1  0.4728920000000  0.5598020000000  0.4771030000000 1.0
C      1  0.5130980000000  0.4159480000000  0.5259670000000 1.0
C      1  0.4883030000000  0.5835920000000  0.4733010000000 1.0
C      1  0.4968460000000  0.4821730000000  0.5217750000000 1.0
C      1  0.5058680000000  0.5192730000000  0.4779610000000 1.0
C      1  0.5781730000000  0.4610970000000  0.4914130000000 1.0
C      1  0.4218930000000  0.5392400000000  0.5063820000000 1.0
C      1  0.5766120000000  0.5060560000000  0.5290260000000 1.0
C      1  0.4223480000000  0.4968030000000  0.4713930000000 1.0
C      1  0.4802260000000  0.5643150000000  0.4245050000000 1.0
C      1  0.5050400000000  0.4403980000000  0.5745790000000 1.0
C      1  0.4891260000000  0.5342820000000  0.4614720000000 1.0
C      1  0.5120750000000  0.4651490000000  0.5351150000000 1.0
C      1  0.4811350000000  0.4203700000000  0.4577300000000 1.0
C      1  0.5209030000000  0.5778490000000  0.5442560000000 1.0
C      1  0.5684230000000  0.5293220000000  0.5134730000000 1.0
C      1  0.4240360000000  0.4717600000000  0.4881700000000 1.0
C      1  0.5153100000000  0.4678200000000  0.4065460000000 1.0
C      1  0.4866010000000  0.5373000000000  0.5858780000000 1.0
C      1  0.4979910000000  0.5617160000000  0.5469220000000 1.0
C      1  0.5047590000000  0.4337810000000  0.4510720000000 1.0
C      1  0.5212190000000  0.5909050000000  0.5184020000000 1.0
C      1  0.4753770000000  0.4110330000000  0.4835260000000 1.0
C      1  0.5474010000000  0.5048040000000  0.4896990000000 1.0
C      1  0.4535720000000  0.4955920000000  0.5082500000000 1.0
C      1  0.4721500000000  0.4655180000000  0.5737790000000 1.0
C      1  0.5277250000000  0.5443620000000  0.4326770000000 1.0
C      1  0.4684800000000  0.5176000000000  0.4649890000000 1.0
C      1  0.5333200000000  0.4809840000000  0.5359120000000 1.0
C      1  0.4490920000000  0.4685230000000  0.5548180000000 1.0
C      1  0.5508230000000  0.5330280000000  0.4472980000000 1.0
C      1  0.5422840000000  0.5737430000000  0.5108420000000 1.0
C      1  0.4610060000000  0.4347540000000  0.4964160000000 1.0
C      1  0.4875130000000  0.4632660000000  0.4089620000000 1.0
C      1  0.5093970000000  0.5377420000000  0.5943500000000 1.0
C      1  0.4182920000000  0.4654330000000  0.5169000000000 1.0
C      1  0.5793640000000  0.5367320000000  0.4863240000000 1.0
C      1  0.4587840000000  0.4677020000000  0.4561180000000 1.0
C      1  0.5430890000000  0.5295480000000  0.5562040000000 1.0
C      1  0.5392880000000  0.5282250000000  0.5094330000000 1.0
C      1  0.4501350000000  0.4621440000000  0.4831060000000 1.0
C      1  0.5284650000000  0.4945360000000  0.4514830000000 1.0
C      1  0.4718280000000  0.5062770000000  0.5470500000000 1.0
C      1  0.5724550000000  0.4760720000000  0.5182720000000 1.0
C      1  0.4255710000000  0.5245160000000  0.4802220000000 1.0
C      1  0.5016430000000  0.4192050000000  0.5545910000000 1.0
C      1  0.4967460000000  0.5791820000000  0.4440880000000 1.0
C      1  0.5678110000000  0.4344570000000  0.4954650000000 1.0
C      1  0.4325010000000  0.5668590000000  0.5030820000000 1.0
C      1  0.5694920000000  0.4698510000000  0.4617370000000 1.0
C      1  0.4314350000000  0.5352940000000  0.5346950000000 1.0
C      1  0.5725070000000  0.4994190000000  0.4476930000000 1.0
C      1  0.4311360000000  0.4926670000000  0.5592960000000 1.0
C      1  0.5206350000000  0.5123800000000  0.5909970000000 1.0
C      1  0.4753710000000  0.4880240000000  0.4140620000000 1.0
C      1  0.4688460000000  0.5149870000000  0.4928730000000 1.0
C      1  0.5444710000000  0.4832050000000  0.5099480000000 1.0
C      1  0.4436110000000  0.5363830000000  0.4594790000000 1.0
C      1  0.5562440000000  0.4630980000000  0.5429710000000 1.0
C      1  0.5489710000000  0.4505940000000  0.4473520000000 1.0
C      1  0.4516070000000  0.5499230000000  0.5513140000000 1.0
C      1  0.4986510000000  0.4709810000000  0.4966170000000 1.0
C      1  0.4923660000000  0.5270100000000  0.5030100000000 1.0
C      1  0.5198810000000  0.4971050000000  0.4062860000000 1.0
C      1  0.4765620000000  0.4880160000000  0.5894010000000 1.0
C      1  0.5643780000000  0.5526270000000  0.4663130000000 1.0
C      1  0.4347380000000  0.4489310000000  0.5353190000000 1.0
C      1  0.5012120000000  0.4813990000000  0.4521710000000 1.0
C      1  0.4992920000000  0.5179130000000  0.5470970000000 1.0
C      1  0.5054570000000  0.4877270000000  0.5946260000000 1.0
C      1  0.4931110000000  0.5088560000000  0.4045960000000 1.0
C      1  0.4555970000000  0.4304710000000  0.5280520000000 1.0
C      1  0.5407910000000  0.5691640000000  0.4706660000000 1.0
C      1  0.4770920000000  0.4266500000000  0.5455080000000 1.0
C      1  0.5248070000000  0.5697660000000  0.4456310000000 1.0
C      1  0.4990780000000  0.4187040000000  0.4994370000000 1.0
C      1  0.5034750000000  0.5794320000000  0.4980840000000 1.0
C      1  0.5298650000000  0.4385280000000  0.4651030000000 1.0
C      1  0.4722340000000  0.5603430000000  0.5336540000000 1.0
C      1  0.4627330000000  0.5637150000000  0.5049170000000 1.0
C      1  0.5366000000000  0.4349880000000  0.4947080000000 1.0
C      1  0.5632690000000  0.5085830000000  0.5541220000000 1.0
C      1  0.4345480000000  0.4995620000000  0.4454260000000 1.0
C      1  0.4741640000000  0.4911920000000  0.4460580000000 1.0
C      1  0.5233290000000  0.5075000000000  0.5595180000000 1.0
C      1  0.5223510000000  0.4684230000000  0.5814450000000 1.0
C      1  0.4752020000000  0.5348240000000  0.4203640000000 1.0
C      1  0.5408170000000  0.4640550000000  0.4229440000000 1.0
C      1  0.4606290000000  0.5361260000000  0.5760980000000 1.0
C      1  0.5003440000000  0.4894750000000  0.4785670000000 1.0
C      1  0.5105580000000  0.5146420000000  0.5210280000000 1.0
C      1  0.5326550000000  0.5188420000000  0.4673830000000 1.0
C      1  0.4688130000000  0.4807710000000  0.5295220000000 1.0
C      1  0.5003690000000  0.4646830000000  0.5622600000000 1.0
C      1  0.5015080000000  0.5307820000000  0.4355570000000 1.0
C      1  0.4460320000000  0.5230040000000  0.4335160000000 1.0
C      1  0.5540350000000  0.4789020000000  0.5688270000000 1.0
C      1  0.5248570000000  0.5499140000000  0.5448160000000 1.0
C      1  0.4790900000000  0.4471570000000  0.4518420000000 1.0
C      1  0.4172460000000  0.4860410000000  0.5364370000000 1.0
C      1  0.5837780000000  0.5164060000000  0.4664310000000 1.0
C      1  0.4517020000000  0.5169580000000  0.5289260000000 1.0
C      1  0.5441980000000  0.4814770000000  0.4714700000000 1.0
END
