TITL C-2441156-4686-174 0.114724542005727 125000 -23868.2879619544 0 0 177 (C1) n - 1
REM
REM in /home/bkarasulu/work/CARBON/AIRSS/Generating-Clusters/ReaxFF-fromJPCA2015/Units_Real/with-SteepDescent/Higher-Symm
REM
REM
REM
REM
REM
REM ./C.cell (1df0a924f5614ab8850e4351716899ee)
REM
REM compiler GCC version 9.2.1 20190827 (Red Hat 9.2.1-1)
REM options -cpp -mtune=generic -march=x86-64 -g -O0 -fpre-include=/usr/include/finclude/math-vector-fortran.h
REM seed 749447513 -540143411 -1011108450 -1071137462 -1787500542 -1182154821 -1757888748 1709333602 -550667038 45665429 -194488742 -864591581 -596801584 -1238779677 -923239368 -1937722576 -2115073892 945117075 -489060224 -1902775677 103192519 1827518223 865665455 1416530296 -1000726090 -1148358273 918846856 163379816 -1504291451 -1122989944 -937962349 1962767200 -2088534662
REM
CELL 1.54180   50.00000   50.00000   50.00000   90.00000   90.00000   90.00000
LATT -1
SFAC C  
C      1  0.3892770000000  0.4911510000000  0.4964780000000 1.0
C      1  0.5003610000000  0.5228040000000  0.5448390000000 1.0
C      1  0.5717980000000  0.4235020000000  0.5208570000000 1.0
C      1  0.4163510000000  0.5076270000000  0.5338260000000 1.0
C      1  0.4663010000000  0.5569970000000  0.4515820000000 1.0
C      1  0.5551880000000  0.5568550000000  0.4390220000000 1.0
C      1  0.5953570000000  0.5484820000000  0.4995410000000 1.0
C      1  0.5238960000000  0.5981290000000  0.5437000000000 1.0
C      1  0.5421520000000  0.5771500000000  0.4777520000000 1.0
C      1  0.4455890000000  0.4895990000000  0.4915710000000 1.0
C      1  0.5051780000000  0.5114310000000  0.4434960000000 1.0
C      1  0.5259750000000  0.5481790000000  0.4072840000000 1.0
C      1  0.5359120000000  0.5348790000000  0.5089850000000 1.0
C      1  0.4884340000000  0.4965750000000  0.5393480000000 1.0
C      1  0.5023210000000  0.5037370000000  0.5819620000000 1.0
C      1  0.4341660000000  0.4979840000000  0.5923700000000 1.0
C      1  0.4589920000000  0.4989310000000  0.5355120000000 1.0
C      1  0.4218330000000  0.4771580000000  0.5758340000000 1.0
C      1  0.5374110000000  0.4217390000000  0.4881230000000 1.0
C      1  0.4596310000000  0.5068300000000  0.4537580000000 1.0
C      1  0.4275540000000  0.5785840000000  0.4708350000000 1.0
C      1  0.4729440000000  0.4690730000000  0.5947470000000 1.0
C      1  0.5738370000000  0.5337420000000  0.5674950000000 1.0
C      1  0.4687650000000  0.4398300000000  0.4756170000000 1.0
C      1  0.4565350000000  0.5255980000000  0.4069010000000 1.0
C      1  0.5276690000000  0.4912760000000  0.4449840000000 1.0
C      1  0.4522760000000  0.5819300000000  0.4576020000000 1.0
C      1  0.5393340000000  0.4431490000000  0.5526460000000 1.0
C      1  0.5586250000000  0.4216360000000  0.4666180000000 1.0
C      1  0.4527540000000  0.4827550000000  0.4066000000000 1.0
C      1  0.5075630000000  0.5892270000000  0.5661850000000 1.0
C      1  0.5382760000000  0.5373090000000  0.4602280000000 1.0
C      1  0.4764460000000  0.3956290000000  0.5120880000000 1.0
C      1  0.5937590000000  0.5227370000000  0.4862200000000 1.0
C      1  0.4679980000000  0.4218030000000  0.4387140000000 1.0
C      1  0.4823070000000  0.5215150000000  0.5966490000000 1.0
C      1  0.4235460000000  0.4418190000000  0.4501690000000 1.0
C      1  0.4127160000000  0.5535710000000  0.4671980000000 1.0
C      1  0.5448800000000  0.5960340000000  0.4997260000000 1.0
C      1  0.4769090000000  0.6093680000000  0.4956900000000 1.0
C      1  0.4542570000000  0.5115080000000  0.5599860000000 1.0
C      1  0.5688580000000  0.5731150000000  0.5364560000000 1.0
C      1  0.5682810000000  0.4962560000000  0.5271150000000 1.0
C      1  0.4996610000000  0.4295950000000  0.5706830000000 1.0
C      1  0.5819810000000  0.5705810000000  0.4875270000000 1.0
C      1  0.5781030000000  0.4242430000000  0.4929810000000 1.0
C      1  0.5449730000000  0.4146480000000  0.5149230000000 1.0
C      1  0.4470650000000  0.5356290000000  0.4947070000000 1.0
C      1  0.4342510000000  0.5094800000000  0.5105470000000 1.0
C      1  0.5044520000000  0.6096660000000  0.4921260000000 1.0
C      1  0.5230790000000  0.4073490000000  0.5320990000000 1.0
C      1  0.4991940000000  0.5893210000000  0.4636010000000 1.0
C      1  0.4214560000000  0.4659500000000  0.4375620000000 1.0
C      1  0.5224120000000  0.6066880000000  0.5144070000000 1.0
C      1  0.5300200000000  0.5476650000000  0.5967220000000 1.0
C      1  0.4280220000000  0.5246430000000  0.5542480000000 1.0
C      1  0.4882880000000  0.4419570000000  0.4466130000000 1.0
C      1  0.4151460000000  0.4503160000000  0.5028470000000 1.0
C      1  0.4222410000000  0.4852760000000  0.4622160000000 1.0
C      1  0.4641820000000  0.4379230000000  0.4147510000000 1.0
C      1  0.5185690000000  0.5156790000000  0.4945090000000 1.0
C      1  0.4379840000000  0.4100720000000  0.5024680000000 1.0
C      1  0.5226360000000  0.4189170000000  0.5581440000000 1.0
C      1  0.5431900000000  0.4659400000000  0.4856010000000 1.0
C      1  0.5834490000000  0.4683790000000  0.5598140000000 1.0
C      1  0.5249430000000  0.5233250000000  0.6119140000000 1.0
C      1  0.5447550000000  0.5261520000000  0.4044520000000 1.0
C      1  0.5858050000000  0.5134350000000  0.4342200000000 1.0
C      1  0.5421170000000  0.5047730000000  0.5355790000000 1.0
C      1  0.4787660000000  0.5937990000000  0.5227230000000 1.0
C      1  0.5099120000000  0.5373250000000  0.4563520000000 1.0
C      1  0.5095140000000  0.4267840000000  0.4320410000000 1.0
C      1  0.5485380000000  0.3983550000000  0.4481560000000 1.0
C      1  0.6121750000000  0.5047690000000  0.5013910000000 1.0
C      1  0.4889420000000  0.4478300000000  0.4015700000000 1.0
C      1  0.4220740000000  0.5507320000000  0.5423990000000 1.0
C      1  0.4928380000000  0.4745720000000  0.5583550000000 1.0
C      1  0.5100270000000  0.5663750000000  0.5868570000000 1.0
C      1  0.5252090000000  0.5158840000000  0.5575930000000 1.0
C      1  0.4932200000000  0.5602350000000  0.4718000000000 1.0
C      1  0.5427620000000  0.4515890000000  0.4213250000000 1.0
C      1  0.5222360000000  0.4677680000000  0.4665030000000 1.0
C      1  0.5499230000000  0.5105550000000  0.4608650000000 1.0
C      1  0.5605590000000  0.4418770000000  0.4422900000000 1.0
C      1  0.5620770000000  0.5101660000000  0.5768250000000 1.0
C      1  0.5390870000000  0.4622980000000  0.5732850000000 1.0
C      1  0.5404670000000  0.5738390000000  0.5433240000000 1.0
C      1  0.4365850000000  0.5432830000000  0.4204140000000 1.0
C      1  0.6125950000000  0.4768080000000  0.4947340000000 1.0
C      1  0.5305230000000  0.4810150000000  0.5235970000000 1.0
C      1  0.4831400000000  0.5912360000000  0.5524080000000 1.0
C      1  0.5430860000000  0.5496880000000  0.4852560000000 1.0
C      1  0.4706520000000  0.4009360000000  0.4596990000000 1.0
C      1  0.4858720000000  0.5463460000000  0.5406560000000 1.0
C      1  0.4755220000000  0.4816850000000  0.4590140000000 1.0
C      1  0.4865390000000  0.5516230000000  0.5943910000000 1.0
C      1  0.4559180000000  0.5321850000000  0.4658220000000 1.0
C      1  0.4745540000000  0.5287580000000  0.5058650000000 1.0
C      1  0.5201050000000  0.4033290000000  0.4433920000000 1.0
C      1  0.4998570000000  0.4702380000000  0.6054420000000 1.0
C      1  0.5007500000000  0.5157820000000  0.4722120000000 1.0
C      1  0.4582010000000  0.5537010000000  0.5876730000000 1.0
C      1  0.4709110000000  0.4560320000000  0.5507560000000 1.0
C      1  0.5820860000000  0.5494870000000  0.5456050000000 1.0
C      1  0.6052380000000  0.4679150000000  0.5218230000000 1.0
C      1  0.4388300000000  0.4152530000000  0.5313670000000 1.0
C      1  0.4431870000000  0.5698980000000  0.5428040000000 1.0
C      1  0.4097540000000  0.4540850000000  0.5315480000000 1.0
C      1  0.4416490000000  0.4311870000000  0.4680350000000 1.0
C      1  0.5530130000000  0.4923490000000  0.4838120000000 1.0
C      1  0.4090650000000  0.5103720000000  0.4552610000000 1.0
C      1  0.4413830000000  0.4582400000000  0.4161240000000 1.0
C      1  0.4715220000000  0.6006840000000  0.4678560000000 1.0
C      1  0.5032900000000  0.4045890000000  0.5116600000000 1.0
C      1  0.4246540000000  0.4361150000000  0.5471470000000 1.0
C      1  0.4860200000000  0.5614560000000  0.4291300000000 1.0
C      1  0.5104870000000  0.4595150000000  0.5780430000000 1.0
C      1  0.4836240000000  0.4777650000000  0.4061680000000 1.0
C      1  0.4993640000000  0.4004500000000  0.4632750000000 1.0
C      1  0.5759020000000  0.4652120000000  0.5205910000000 1.0
C      1  0.5214710000000  0.4554190000000  0.5293570000000 1.0
C      1  0.4613960000000  0.4465950000000  0.5799190000000 1.0
C      1  0.4912930000000  0.4846670000000  0.5106910000000 1.0
C      1  0.6037370000000  0.4837610000000  0.5456740000000 1.0
C      1  0.4679790000000  0.5642900000000  0.5583580000000 1.0
C      1  0.4731140000000  0.5015650000000  0.4951470000000 1.0
C      1  0.4531110000000  0.5269210000000  0.5978020000000 1.0
C      1  0.5694320000000  0.5841620000000  0.5096880000000 1.0
C      1  0.3991030000000  0.5410120000000  0.4897710000000 1.0
C      1  0.5306550000000  0.4999880000000  0.4004860000000 1.0
C      1  0.5664610000000  0.5735690000000  0.4623590000000 1.0
C      1  0.4208480000000  0.4265870000000  0.4875200000000 1.0
C      1  0.4042180000000  0.4728750000000  0.4841920000000 1.0
C      1  0.4808030000000  0.4275970000000  0.5492310000000 1.0
C      1  0.4911460000000  0.5504360000000  0.4982690000000 1.0
C      1  0.5979790000000  0.5381870000000  0.5262090000000 1.0
C      1  0.5664270000000  0.5330950000000  0.4220690000000 1.0
C      1  0.5774730000000  0.5229130000000  0.4604420000000 1.0
C      1  0.4058780000000  0.5500870000000  0.5171890000000 1.0
C      1  0.6067560000000  0.5100540000000  0.5290650000000 1.0
C      1  0.4179230000000  0.5362330000000  0.4435700000000 1.0
C      1  0.5020370000000  0.5008110000000  0.3962250000000 1.0
C      1  0.5063800000000  0.5799670000000  0.4353170000000 1.0
C      1  0.5952110000000  0.4629080000000  0.4757980000000 1.0
C      1  0.5849440000000  0.4586000000000  0.4481050000000 1.0
C      1  0.4953040000000  0.4687390000000  0.4754990000000 1.0
C      1  0.4995970000000  0.5398830000000  0.4165510000000 1.0
C      1  0.4327820000000  0.5870970000000  0.4986590000000 1.0
C      1  0.5166410000000  0.4945560000000  0.6057620000000 1.0
C      1  0.4855610000000  0.5237280000000  0.3988480000000 1.0
C      1  0.5260830000000  0.5559430000000  0.5268710000000 1.0
C      1  0.4988870000000  0.5631770000000  0.5215350000000 1.0
C      1  0.3930410000000  0.5136540000000  0.4800880000000 1.0
C      1  0.5314380000000  0.5699980000000  0.4245730000000 1.0
C      1  0.5113450000000  0.4126190000000  0.4860580000000 1.0
C      1  0.4499730000000  0.5882010000000  0.5224480000000 1.0
C      1  0.4653770000000  0.4062300000000  0.5367650000000 1.0
C      1  0.5610390000000  0.4811560000000  0.5730480000000 1.0
C      1  0.4491810000000  0.4713540000000  0.5353030000000 1.0
C      1  0.4985700000000  0.4547390000000  0.5116250000000 1.0
C      1  0.5405840000000  0.4807050000000  0.4200980000000 1.0
C      1  0.4331690000000  0.4501220000000  0.5723060000000 1.0
C      1  0.4595200000000  0.4913300000000  0.5802930000000 1.0
C      1  0.4306090000000  0.5587760000000  0.5048130000000 1.0
C      1  0.4721960000000  0.4464730000000  0.5023010000000 1.0
C      1  0.4151800000000  0.4800230000000  0.5453960000000 1.0
C      1  0.5448980000000  0.5341070000000  0.5715480000000 1.0
C      1  0.4470090000000  0.4626390000000  0.5071370000000 1.0
C      1  0.5703800000000  0.5059620000000  0.5007910000000 1.0
C      1  0.5715990000000  0.4446820000000  0.5432660000000 1.0
C      1  0.5710120000000  0.4539250000000  0.4926810000000 1.0
C      1  0.5167550000000  0.4407160000000  0.4082450000000 1.0
C      1  0.4491190000000  0.5039550000000  0.4261320000000 1.0
C      1  0.4606330000000  0.3987680000000  0.4878270000000 1.0
C      1  0.4853460000000  0.4694240000000  0.4363940000000 1.0
C      1  0.5835900000000  0.4862170000000  0.4426490000000 1.0
C      1  0.5154140000000  0.4920290000000  0.5052290000000 1.0
END
