TITL C-2441159-1093-826 0.0348381497038561 125000 -19940.804639534 0 0 142 (C1) n - 1
REM
REM in /home/bkarasulu/work/CARBON/AIRSS/Generating-Clusters/ReaxFF-fromJPCA2015/Units_Real/with-SteepDescent/Higher-Symm
REM
REM
REM
REM
REM
REM ./C.cell (1df0a924f5614ab8850e4351716899ee)
REM
REM compiler GCC version 9.2.1 20190827 (Red Hat 9.2.1-1)
REM options -cpp -mtune=generic -march=x86-64 -g -O0 -fpre-include=/usr/include/finclude/math-vector-fortran.h
REM seed 1209806592 -816526344 1988870128 -1342921945 -756081138 -473862310 -741570963 1769031098 -401595974 -1087218489 -1656766141 438430693 337404132 494601866 -42809959 213134870 1927919452 1472237247 -712109462 996234872 -1056354 -1735381585 1975988141 -373702795 -971331255 -351312115 2094062939 -423665695 157711153 -1933931029 1792144023 2040353970 1938844430
REM
CELL 1.54180   50.00000   50.00000   50.00000   90.00000   90.00000   90.00000
LATT -1
SFAC C  
C      1  0.5912600000000  0.4661120000000  0.5046310000000 1.0
C      1  0.5847530000000  0.5545590000000  0.4960710000000 1.0
C      1  0.4956230000000  0.5958750000000  0.4971130000000 1.0
C      1  0.4298300000000  0.5623640000000  0.4950370000000 1.0
C      1  0.4037870000000  0.4870060000000  0.4983840000000 1.0
C      1  0.4472110000000  0.4225520000000  0.4938600000000 1.0
C      1  0.5474930000000  0.4118960000000  0.4980690000000 1.0
C      1  0.4469330000000  0.4373370000000  0.4441290000000 1.0
C      1  0.5160910000000  0.4090820000000  0.4587270000000 1.0
C      1  0.5757540000000  0.4623210000000  0.4552520000000 1.0
C      1  0.5818850000000  0.5323970000000  0.4480630000000 1.0
C      1  0.5223630000000  0.5828580000000  0.4537050000000 1.0
C      1  0.4458600000000  0.5704590000000  0.4506790000000 1.0
C      1  0.4141450000000  0.5049980000000  0.4460140000000 1.0
C      1  0.5142600000000  0.4477520000000  0.4733580000000 1.0
C      1  0.5482460000000  0.4798820000000  0.4792870000000 1.0
C      1  0.5495080000000  0.5245090000000  0.4781890000000 1.0
C      1  0.5164140000000  0.5533080000000  0.4820880000000 1.0
C      1  0.4706380000000  0.5378980000000  0.4731520000000 1.0
C      1  0.4454950000000  0.5034610000000  0.4789270000000 1.0
C      1  0.4694820000000  0.4611610000000  0.4730760000000 1.0
C      1  0.4212720000000  0.5299860000000  0.4318650000000 1.0
C      1  0.4319890000000  0.4556760000000  0.4272940000000 1.0
C      1  0.4863470000000  0.4112500000000  0.4612120000000 1.0
C      1  0.5614490000000  0.4367180000000  0.4578020000000 1.0
C      1  0.5806740000000  0.5071790000000  0.4329370000000 1.0
C      1  0.5421340000000  0.5702040000000  0.4364830000000 1.0
C      1  0.4698900000000  0.5854530000000  0.4559950000000 1.0
C      1  0.4955880000000  0.5816610000000  0.4412060000000 1.0
C      1  0.4340740000000  0.5556450000000  0.4295120000000 1.0
C      1  0.4171430000000  0.4814580000000  0.4287740000000 1.0
C      1  0.4727510000000  0.4230070000000  0.4380470000000 1.0
C      1  0.5367900000000  0.4255590000000  0.4446650000000 1.0
C      1  0.5782870000000  0.4789710000000  0.4330680000000 1.0
C      1  0.5660150000000  0.5519150000000  0.4323480000000 1.0
C      1  0.4913670000000  0.4276840000000  0.4165450000000 1.0
C      1  0.5210790000000  0.4359350000000  0.4187610000000 1.0
C      1  0.5600900000000  0.4939100000000  0.4170000000000 1.0
C      1  0.5421070000000  0.5470810000000  0.4171940000000 1.0
C      1  0.4943950000000  0.5633270000000  0.4175930000000 1.0
C      1  0.4452620000000  0.5338590000000  0.4179080000000 1.0
C      1  0.4407190000000  0.4794920000000  0.4116800000000 1.0
C      1  0.5784180000000  0.4800550000000  0.4805850000000 1.0
C      1  0.5702970000000  0.5426680000000  0.4734400000000 1.0
C      1  0.5207870000000  0.5826210000000  0.4865540000000 1.0
C      1  0.4444560000000  0.5500280000000  0.4721170000000 1.0
C      1  0.4172370000000  0.4999090000000  0.4757360000000 1.0
C      1  0.4458360000000  0.4433240000000  0.4732480000000 1.0
C      1  0.5197920000000  0.4160300000000  0.4874910000000 1.0
C      1  0.5123580000000  0.5382510000000  0.4573690000000 1.0
C      1  0.4866230000000  0.5253380000000  0.4532130000000 1.0
C      1  0.4520790000000  0.4927700000000  0.4547280000000 1.0
C      1  0.4772440000000  0.4804530000000  0.4529740000000 1.0
C      1  0.5210140000000  0.4633570000000  0.4508490000000 1.0
C      1  0.5271910000000  0.4905570000000  0.4607050000000 1.0
C      1  0.5336690000000  0.5188200000000  0.4551990000000 1.0
C      1  0.4846810000000  0.5360450000000  0.5659200000000 1.0
C      1  0.4555780000000  0.5287800000000  0.5708320000000 1.0
C      1  0.4708910000000  0.4928250000000  0.5493230000000 1.0
C      1  0.4901240000000  0.4382400000000  0.5745650000000 1.0
C      1  0.5201720000000  0.4812930000000  0.5534420000000 1.0
C      1  0.5317410000000  0.5076890000000  0.5546060000000 1.0
C      1  0.5124000000000  0.5303150000000  0.5551640000000 1.0
C      1  0.4294520000000  0.4443740000000  0.5443300000000 1.0
C      1  0.4971570000000  0.4070360000000  0.5364890000000 1.0
C      1  0.5734250000000  0.4300400000000  0.5334820000000 1.0
C      1  0.5977510000000  0.5114550000000  0.5323420000000 1.0
C      1  0.5450650000000  0.5826290000000  0.5405240000000 1.0
C      1  0.4599110000000  0.5901200000000  0.5304720000000 1.0
C      1  0.4079410000000  0.5276990000000  0.5406050000000 1.0
C      1  0.4699630000000  0.5914570000000  0.4847140000000 1.0
C      1  0.4162500000000  0.5378310000000  0.5004090000000 1.0
C      1  0.4120380000000  0.4591450000000  0.5028130000000 1.0
C      1  0.4743150000000  0.4100010000000  0.4883730000000 1.0
C      1  0.5681090000000  0.4264580000000  0.4843080000000 1.0
C      1  0.5939930000000  0.5099970000000  0.4818450000000 1.0
C      1  0.5659280000000  0.5725110000000  0.5058580000000 1.0
C      1  0.4854810000000  0.4748530000000  0.4258530000000 1.0
C      1  0.5144340000000  0.4719070000000  0.4234050000000 1.0
C      1  0.5314830000000  0.4965340000000  0.4148060000000 1.0
C      1  0.5236770000000  0.5239430000000  0.4121130000000 1.0
C      1  0.4962600000000  0.5353990000000  0.4097530000000 1.0
C      1  0.4715230000000  0.5205540000000  0.4204900000000 1.0
C      1  0.4672860000000  0.4917560000000  0.4120690000000 1.0
C      1  0.4664090000000  0.5032700000000  0.4997560000000 1.0
C      1  0.4764600000000  0.4755830000000  0.4962980000000 1.0
C      1  0.5059010000000  0.4661030000000  0.4964070000000 1.0
C      1  0.5307410000000  0.4829940000000  0.5005340000000 1.0
C      1  0.5342240000000  0.5137530000000  0.5016400000000 1.0
C      1  0.5126150000000  0.5334970000000  0.5028260000000 1.0
C      1  0.4826120000000  0.5281730000000  0.4974720000000 1.0
C      1  0.4442110000000  0.5559970000000  0.5641790000000 1.0
C      1  0.4157300000000  0.4931830000000  0.5610820000000 1.0
C      1  0.4628460000000  0.4295730000000  0.5657400000000 1.0
C      1  0.5386930000000  0.4311250000000  0.5657260000000 1.0
C      1  0.5769370000000  0.4719620000000  0.5629130000000 1.0
C      1  0.5768530000000  0.5370090000000  0.5595900000000 1.0
C      1  0.4935120000000  0.5788280000000  0.5657930000000 1.0
C      1  0.4215220000000  0.5191670000000  0.5658710000000 1.0
C      1  0.4464690000000  0.4529400000000  0.5654110000000 1.0
C      1  0.5113110000000  0.4236640000000  0.5600530000000 1.0
C      1  0.5658030000000  0.4450560000000  0.5584720000000 1.0
C      1  0.5865810000000  0.5116090000000  0.5576900000000 1.0
C      1  0.5214560000000  0.5803590000000  0.5580810000000 1.0
C      1  0.4638620000000  0.5766680000000  0.5561890000000 1.0
C      1  0.5833840000000  0.4392510000000  0.5070770000000 1.0
C      1  0.5946000000000  0.5261200000000  0.5044640000000 1.0
C      1  0.5438020000000  0.5858300000000  0.5108230000000 1.0
C      1  0.4490640000000  0.5832680000000  0.5044780000000 1.0
C      1  0.4056560000000  0.5152610000000  0.5128340000000 1.0
C      1  0.4288940000000  0.4367970000000  0.5120940000000 1.0
C      1  0.4960580000000  0.4066300000000  0.5072610000000 1.0
C      1  0.4382360000000  0.4795940000000  0.5258330000000 1.0
C      1  0.4766370000000  0.4411930000000  0.5251730000000 1.0
C      1  0.5301730000000  0.4443370000000  0.5278000000000 1.0
C      1  0.5625020000000  0.4864650000000  0.5306250000000 1.0
C      1  0.5492300000000  0.5433510000000  0.5305410000000 1.0
C      1  0.4943050000000  0.5629540000000  0.5280910000000 1.0
C      1  0.4486650000000  0.5359410000000  0.5263430000000 1.0
C      1  0.4894940000000  0.5925280000000  0.5258090000000 1.0
C      1  0.4275250000000  0.5505490000000  0.5401280000000 1.0
C      1  0.4158290000000  0.4707950000000  0.5436280000000 1.0
C      1  0.4700190000000  0.4158640000000  0.5396860000000 1.0
C      1  0.5475950000000  0.4191140000000  0.5263610000000 1.0
C      1  0.5929630000000  0.4817330000000  0.5299810000000 1.0
C      1  0.5646340000000  0.5597500000000  0.5479550000000 1.0
C      1  0.5037130000000  0.4478320000000  0.5186520000000 1.0
C      1  0.5429170000000  0.4689310000000  0.5211920000000 1.0
C      1  0.5502600000000  0.5140070000000  0.5283240000000 1.0
C      1  0.5189320000000  0.5468510000000  0.5289120000000 1.0
C      1  0.4734400000000  0.5458420000000  0.5185720000000 1.0
C      1  0.4513310000000  0.5060420000000  0.5255420000000 1.0
C      1  0.4598100000000  0.4635840000000  0.5177310000000 1.0
C      1  0.4671060000000  0.5086180000000  0.5938460000000 1.0
C      1  0.4664150000000  0.4796890000000  0.5766080000000 1.0
C      1  0.4917420000000  0.4654330000000  0.5846370000000 1.0
C      1  0.5181520000000  0.4780320000000  0.5830020000000 1.0
C      1  0.5327990000000  0.5034490000000  0.5851120000000 1.0
C      1  0.5201190000000  0.5294870000000  0.5861130000000 1.0
C      1  0.4917610000000  0.5292210000000  0.5926920000000 1.0
C      1  0.4976890000000  0.5000210000000  0.4612040000000 1.0
C      1  0.4942230000000  0.4884590000000  0.5463230000000 1.0
END
