TITL C-2441168-9922-1455 0.0257394793206649 125000 -7574.57370798234 0 0 63 (C1) n - 1
REM
REM in /home/bkarasulu/work/CARBON/AIRSS/Generating-Clusters/ReaxFF-fromJPCA2015/Units_Real/with-SteepDescent/Higher-Symm
REM
REM
REM
REM
REM
REM ./C.cell (1df0a924f5614ab8850e4351716899ee)
REM
REM compiler GCC version 9.2.1 20190827 (Red Hat 9.2.1-1)
REM options -cpp -mtune=generic -march=x86-64 -g -O0 -fpre-include=/usr/include/finclude/math-vector-fortran.h
REM seed -991853507 -990093878 -1960225042 1468795737 17923599 1881548466 1935162461 55506865 -637860733 -507538222 2139899727 -1170386796 809728891 1499921985 -1867018960 771807800 -1610164266 -2051680542 1539442672 -235046852 -594086037 -1626621299 1010111349 -551848872 1900057416 1997483572 529405856 66143901 -52650880 -2064672037 -726682181 1640103213 -1901598699
REM
CELL 1.54180   50.00000   50.00000   50.00000   90.00000   90.00000   90.00000
LATT -1
SFAC C  
C      1  0.4186430000000  0.5001710000000  0.5333280000000 1.0
C      1  0.4198020000000  0.4707780000000  0.4831210000000 1.0
C      1  0.4201200000000  0.5285780000000  0.4832920000000 1.0
C      1  0.5775210000000  0.4972770000000  0.5325390000000 1.0
C      1  0.5794380000000  0.4743370000000  0.4822000000000 1.0
C      1  0.5776050000000  0.5298970000000  0.4835070000000 1.0
C      1  0.5236670000000  0.4609610000000  0.5416090000000 1.0
C      1  0.5254110000000  0.4814620000000  0.4455860000000 1.0
C      1  0.5264840000000  0.5547590000000  0.5095720000000 1.0
C      1  0.4703190000000  0.4635700000000  0.5415260000000 1.0
C      1  0.4691320000000  0.4840310000000  0.4475690000000 1.0
C      1  0.4722750000000  0.5560800000000  0.5108700000000 1.0
C      1  0.5350320000000  0.5113250000000  0.4536860000000 1.0
C      1  0.5398210000000  0.5327280000000  0.5292470000000 1.0
C      1  0.5390760000000  0.4568760000000  0.5159220000000 1.0
C      1  0.4619670000000  0.5117250000000  0.4532160000000 1.0
C      1  0.4609900000000  0.5324100000000  0.5301240000000 1.0
C      1  0.4639530000000  0.4541800000000  0.5129770000000 1.0
C      1  0.5546510000000  0.5215100000000  0.5023740000000 1.0
C      1  0.5548780000000  0.4815520000000  0.5163540000000 1.0
C      1  0.5568750000000  0.4948470000000  0.4910330000000 1.0
C      1  0.4418540000000  0.5176890000000  0.5037010000000 1.0
C      1  0.4393420000000  0.4894100000000  0.5137240000000 1.0
C      1  0.4436310000000  0.4949010000000  0.4849950000000 1.0
C      1  0.5356050000000  0.5783810000000  0.4607110000000 1.0
C      1  0.5344920000000  0.4945480000000  0.5885250000000 1.0
C      1  0.5355740000000  0.4264840000000  0.4525050000000 1.0
C      1  0.4628230000000  0.5783250000000  0.4601420000000 1.0
C      1  0.4633640000000  0.4958990000000  0.5877070000000 1.0
C      1  0.4653400000000  0.4278570000000  0.4520510000000 1.0
C      1  0.5162510000000  0.5163290000000  0.5448400000000 1.0
C      1  0.5150790000000  0.4578240000000  0.4935460000000 1.0
C      1  0.5158470000000  0.5308650000000  0.4581320000000 1.0
C      1  0.4835870000000  0.5154010000000  0.5422200000000 1.0
C      1  0.4871440000000  0.4457800000000  0.4984820000000 1.0
C      1  0.4860540000000  0.5304210000000  0.4627050000000 1.0
C      1  0.5132120000000  0.4996570000000  0.5214470000000 1.0
C      1  0.5098330000000  0.4851050000000  0.4843250000000 1.0
C      1  0.5185500000000  0.5092570000000  0.4962270000000 1.0
C      1  0.4858910000000  0.4945010000000  0.5203440000000 1.0
C      1  0.4799520000000  0.4924070000000  0.4906860000000 1.0
C      1  0.4918350000000  0.5202790000000  0.4902290000000 1.0
C      1  0.5478750000000  0.5570380000000  0.4753250000000 1.0
C      1  0.5517970000000  0.4955990000000  0.5658980000000 1.0
C      1  0.5489270000000  0.4512640000000  0.4603020000000 1.0
C      1  0.4506310000000  0.5576720000000  0.4762830000000 1.0
C      1  0.4499880000000  0.4925400000000  0.5619350000000 1.0
C      1  0.4542250000000  0.4572480000000  0.4596590000000 1.0
C      1  0.5608740000000  0.4529830000000  0.4879210000000 1.0
C      1  0.5573500000000  0.5308150000000  0.4608620000000 1.0
C      1  0.5608250000000  0.5180110000000  0.5448180000000 1.0
C      1  0.4428510000000  0.4542220000000  0.4892320000000 1.0
C      1  0.4407170000000  0.5313360000000  0.4629970000000 1.0
C      1  0.4403410000000  0.5165880000000  0.5457430000000 1.0
C      1  0.4766600000000  0.4897840000000  0.5590990000000 1.0
C      1  0.4811720000000  0.4456440000000  0.4682850000000 1.0
C      1  0.4768620000000  0.5575450000000  0.4807630000000 1.0
C      1  0.5231980000000  0.4870360000000  0.5586850000000 1.0
C      1  0.5220630000000  0.4551260000000  0.4600510000000 1.0
C      1  0.5216980000000  0.5538040000000  0.4785650000000 1.0
C      1  0.4966020000000  0.4549980000000  0.5380940000000 1.0
C      1  0.4996470000000  0.5569650000000  0.5149080000000 1.0
C      1  0.4971310000000  0.4834110000000  0.4436800000000 1.0
END
