TITL C-2441159-1093-79 0.00257199444773494 125000 -4241.07223708798 0 0 31 (C1) n - 1
REM
REM in /home/bkarasulu/work/CARBON/AIRSS/Generating-Clusters/ReaxFF-fromJPCA2015/Units_Real/with-SteepDescent/Higher-Symm
REM
REM
REM
REM
REM
REM ./C.cell (1df0a924f5614ab8850e4351716899ee)
REM
REM compiler GCC version 9.2.1 20190827 (Red Hat 9.2.1-1)
REM options -cpp -mtune=generic -march=x86-64 -g -O0 -fpre-include=/usr/include/finclude/math-vector-fortran.h
REM seed -344927950 -1120423360 -2131644380 -1859195692 2116040246 -598681509 453091025 752330101 -1171408737 -1954057250 213661927 -67336894 -1454820004 -193765238 199644160 1278471169 1981606063 -1100410164 -650816052 -1328207365 1633009140 241910919 -154184363 -1681580329 1183417225 -1418114918 620866903 -826718886 865343599 1857691259 -1370320635 847826206 1352850835
REM
CELL 1.54180   50.00000   50.00000   50.00000   90.00000   90.00000   90.00000
LATT -1
SFAC C  
C      1  0.4479580000000  0.4948950000000  0.5275350000000 1.0
C      1  0.5333620000000  0.5091430000000  0.4498180000000 1.0
C      1  0.5120680000000  0.4649390000000  0.5499880000000 1.0
C      1  0.5224580000000  0.4932850000000  0.5049830000000 1.0
C      1  0.5002020000000  0.4546000000000  0.5268120000000 1.0
C      1  0.5532100000000  0.4974880000000  0.5417380000000 1.0
C      1  0.4920140000000  0.5464910000000  0.4965150000000 1.0
C      1  0.4539610000000  0.5126500000000  0.5012560000000 1.0
C      1  0.5354490000000  0.5211420000000  0.5423620000000 1.0
C      1  0.4790110000000  0.5105490000000  0.4532520000000 1.0
C      1  0.4794750000000  0.4881560000000  0.4667780000000 1.0
C      1  0.4460610000000  0.4660920000000  0.4915720000000 1.0
C      1  0.5390280000000  0.5355540000000  0.4907180000000 1.0
C      1  0.5054950000000  0.4767160000000  0.4826930000000 1.0
C      1  0.4967420000000  0.4919290000000  0.5495710000000 1.0
C      1  0.5095330000000  0.5510170000000  0.4541570000000 1.0
C      1  0.5410340000000  0.4707810000000  0.5464670000000 1.0
C      1  0.4722580000000  0.5322310000000  0.5016130000000 1.0
C      1  0.4897500000000  0.5328660000000  0.4408460000000 1.0
C      1  0.4287520000000  0.4944680000000  0.5449260000000 1.0
C      1  0.5156270000000  0.5527200000000  0.4825660000000 1.0
C      1  0.4531660000000  0.4924360000000  0.4797480000000 1.0
C      1  0.4943600000000  0.4529810000000  0.5000970000000 1.0
C      1  0.5189680000000  0.5304600000000  0.4389930000000 1.0
C      1  0.5420750000000  0.5076770000000  0.4779180000000 1.0
C      1  0.5277250000000  0.4848470000000  0.4643700000000 1.0
C      1  0.5448670000000  0.4802020000000  0.5193590000000 1.0
C      1  0.5436550000000  0.5313460000000  0.5181240000000 1.0
C      1  0.5105110000000  0.5086580000000  0.5296240000000 1.0
C      1  0.4654920000000  0.4484880000000  0.5052090000000 1.0
C      1  0.4457330000000  0.4651950000000  0.5203920000000 1.0
END
