TITL C-2441168-9922-798 0.0997988730997349 125000 -12281.045857194 0 0 101 (C1) n - 1
REM
REM in /home/bkarasulu/work/CARBON/AIRSS/Generating-Clusters/ReaxFF-fromJPCA2015/Units_Real/with-SteepDescent/Higher-Symm
REM
REM
REM
REM
REM
REM ./C.cell (1df0a924f5614ab8850e4351716899ee)
REM
REM compiler GCC version 9.2.1 20190827 (Red Hat 9.2.1-1)
REM options -cpp -mtune=generic -march=x86-64 -g -O0 -fpre-include=/usr/include/finclude/math-vector-fortran.h
REM seed -1597528827 2021582440 642491628 1134804580 -1943244864 -1062563620 -2063711023 1156945384 -47978765 970773269 364102773 32107999 1416201970 -1024693353 959030929 -1336075533 -1071404181 -586993451 -1329632309 1755467580 101069241 -2096875379 959295907 1018149528 617149902 -1255288477 -1621183751 1979718384 -549634156 479092156 1941071078 -1623221792 -1709798382
REM
CELL 1.54180   50.00000   50.00000   50.00000   90.00000   90.00000   90.00000
LATT -1
SFAC C  
C      1  0.5204390000000  0.4679510000000  0.4429440000000 1.0
C      1  0.4694530000000  0.4444090000000  0.5198970000000 1.0
C      1  0.4437380000000  0.5223990000000  0.4686240000000 1.0
C      1  0.5222630000000  0.5307680000000  0.5561870000000 1.0
C      1  0.4774790000000  0.4688070000000  0.5537480000000 1.0
C      1  0.4786800000000  0.5325830000000  0.4462900000000 1.0
C      1  0.4678630000000  0.5559040000000  0.4769300000000 1.0
C      1  0.5312830000000  0.4439290000000  0.4777900000000 1.0
C      1  0.5312040000000  0.5555950000000  0.5206860000000 1.0
C      1  0.4459580000000  0.4790990000000  0.5323280000000 1.0
C      1  0.5563260000000  0.5215480000000  0.5318770000000 1.0
C      1  0.5561160000000  0.4782890000000  0.4680730000000 1.0
C      1  0.5758890000000  0.5209090000000  0.4736080000000 1.0
C      1  0.5239960000000  0.4697690000000  0.5779800000000 1.0
C      1  0.4747360000000  0.5708650000000  0.5243500000000 1.0
C      1  0.5720980000000  0.4761220000000  0.5265090000000 1.0
C      1  0.4256060000000  0.5185020000000  0.5300630000000 1.0
C      1  0.4219030000000  0.4764490000000  0.4706020000000 1.0
C      1  0.5182740000000  0.5300350000000  0.4255980000000 1.0
C      1  0.4762880000000  0.4744100000000  0.4283490000000 1.0
C      1  0.4804280000000  0.5329920000000  0.5776670000000 1.0
C      1  0.4732420000000  0.4169700000000  0.4746720000000 1.0
C      1  0.5295600000000  0.5787350000000  0.4805610000000 1.0
C      1  0.5308770000000  0.4220420000000  0.5225330000000 1.0
C      1  0.4392220000000  0.5585300000000  0.4849470000000 1.0
C      1  0.5584070000000  0.4861060000000  0.4400040000000 1.0
C      1  0.4877430000000  0.4417180000000  0.5579980000000 1.0
C      1  0.4414920000000  0.4414030000000  0.5121880000000 1.0
C      1  0.5588820000000  0.5599430000000  0.5113620000000 1.0
C      1  0.5585110000000  0.4406410000000  0.4880360000000 1.0
C      1  0.5586460000000  0.5141270000000  0.5603350000000 1.0
C      1  0.4402030000000  0.4922410000000  0.5585210000000 1.0
C      1  0.4415130000000  0.5136060000000  0.4411660000000 1.0
C      1  0.4916140000000  0.5586460000000  0.4400750000000 1.0
C      1  0.5125110000000  0.4399800000000  0.4420970000000 1.0
C      1  0.5088520000000  0.5566440000000  0.5605160000000 1.0
C      1  0.4979140000000  0.5852270000000  0.5167450000000 1.0
C      1  0.5863120000000  0.5148150000000  0.4993690000000 1.0
C      1  0.5143020000000  0.4964300000000  0.5839950000000 1.0
C      1  0.4977820000000  0.4126620000000  0.4861560000000 1.0
C      1  0.5023420000000  0.5849790000000  0.4860290000000 1.0
C      1  0.5037290000000  0.4148430000000  0.5156890000000 1.0
C      1  0.5858600000000  0.4838740000000  0.5030910000000 1.0
C      1  0.4145640000000  0.5144760000000  0.5031600000000 1.0
C      1  0.4154680000000  0.4846030000000  0.4975690000000 1.0
C      1  0.5138860000000  0.5033310000000  0.4143540000000 1.0
C      1  0.4843160000000  0.4981030000000  0.4142450000000 1.0
C      1  0.4850700000000  0.5038810000000  0.5829940000000 1.0
C      1  0.5621390000000  0.4512040000000  0.5423740000000 1.0
C      1  0.4530650000000  0.5377840000000  0.5687170000000 1.0
C      1  0.5366050000000  0.5671100000000  0.4557930000000 1.0
C      1  0.5647010000000  0.5445210000000  0.4603980000000 1.0
C      1  0.4343510000000  0.4518040000000  0.4609270000000 1.0
C      1  0.4336280000000  0.5472540000000  0.5342150000000 1.0
C      1  0.4504190000000  0.4636230000000  0.4358300000000 1.0
C      1  0.5463370000000  0.5363630000000  0.4344850000000 1.0
C      1  0.5500950000000  0.4667880000000  0.5669870000000 1.0
C      1  0.5363190000000  0.4343200000000  0.5475660000000 1.0
C      1  0.4574880000000  0.5616990000000  0.5474820000000 1.0
C      1  0.4649600000000  0.4320600000000  0.4537370000000 1.0
C      1  0.4216160000000  0.5347610000000  0.4826820000000 1.0
C      1  0.5344720000000  0.4831640000000  0.4232090000000 1.0
C      1  0.4841490000000  0.4242250000000  0.5355360000000 1.0
C      1  0.4250740000000  0.4652090000000  0.5176410000000 1.0
C      1  0.5752790000000  0.5366250000000  0.5167920000000 1.0
C      1  0.5756350000000  0.4634200000000  0.4835740000000 1.0
C      1  0.5347970000000  0.5169820000000  0.5777280000000 1.0
C      1  0.4641060000000  0.4843450000000  0.5758250000000 1.0
C      1  0.4648510000000  0.5179150000000  0.4249480000000 1.0
C      1  0.4841690000000  0.5760000000000  0.4641160000000 1.0
C      1  0.5174360000000  0.4224070000000  0.4648440000000 1.0
C      1  0.5156240000000  0.5736520000000  0.5373300000000 1.0
C      1  0.5492980000000  0.5467380000000  0.4870290000000 1.0
C      1  0.5454140000000  0.4897980000000  0.5516560000000 1.0
C      1  0.4866230000000  0.5444180000000  0.5507590000000 1.0
C      1  0.5478360000000  0.4484250000000  0.5128850000000 1.0
C      1  0.4482220000000  0.5461680000000  0.5092710000000 1.0
C      1  0.4494770000000  0.4498020000000  0.4860140000000 1.0
C      1  0.5470790000000  0.5110100000000  0.4486730000000 1.0
C      1  0.4463340000000  0.4875750000000  0.4518670000000 1.0
C      1  0.4578500000000  0.5142990000000  0.5516340000000 1.0
C      1  0.4890910000000  0.4484280000000  0.4565140000000 1.0
C      1  0.5129240000000  0.5504320000000  0.4581240000000 1.0
C      1  0.5141460000000  0.4534710000000  0.5559920000000 1.0
C      1  0.5015190000000  0.4807140000000  0.5410000000000 1.0
C      1  0.4767260000000  0.5479340000000  0.5055820000000 1.0
C      1  0.5464590000000  0.5045190000000  0.4772610000000 1.0
C      1  0.5052160000000  0.5226680000000  0.4550530000000 1.0
C      1  0.4934320000000  0.4772930000000  0.4525250000000 1.0
C      1  0.5000180000000  0.5178010000000  0.5409040000000 1.0
C      1  0.4750640000000  0.4578840000000  0.4951240000000 1.0
C      1  0.5220070000000  0.5421030000000  0.4961840000000 1.0
C      1  0.5219810000000  0.4577110000000  0.5029010000000 1.0
C      1  0.5476120000000  0.4942120000000  0.5229770000000 1.0
C      1  0.4549430000000  0.5065890000000  0.5238590000000 1.0
C      1  0.4563610000000  0.4976980000000  0.4773530000000 1.0
C      1  0.4831120000000  0.5185710000000  0.5163110000000 1.0
C      1  0.5177590000000  0.5164070000000  0.4825460000000 1.0
C      1  0.5159050000000  0.4826390000000  0.5162950000000 1.0
C      1  0.4819370000000  0.4847230000000  0.4822150000000 1.0
C      1  0.4997750000000  0.5005890000000  0.4989670000000 1.0
END
