TITL C-2441160-1326-1185 0.0140308801057664 125000 -11486.2994252754 0 0 81 (C1) n - 1
REM
REM in /home/bkarasulu/work/CARBON/AIRSS/Generating-Clusters/ReaxFF-fromJPCA2015/Units_Real/with-SteepDescent/Higher-Symm
REM
REM
REM
REM
REM
REM ./C.cell (1df0a924f5614ab8850e4351716899ee)
REM
REM compiler GCC version 9.2.1 20190827 (Red Hat 9.2.1-1)
REM options -cpp -mtune=generic -march=x86-64 -g -O0 -fpre-include=/usr/include/finclude/math-vector-fortran.h
REM seed -1858757956 -190993673 -89627094 1236514505 -284559561 369436937 93924572 -1495443347 1276801358 383922009 -1167768211 1628799386 -426503881 259011075 -372088386 -1404612327 1904408667 -1492389535 1141391574 1178689067 2115541561 1601737676 -211174031 -2028938037 1606283343 -1074626712 796272574 313892791 -1443619324 2034988455 1464807952 1783946191 -1046050865
REM
CELL 1.54180   50.00000   50.00000   50.00000   90.00000   90.00000   90.00000
LATT -1
SFAC C  
C      1  0.5001050000000  0.4920790000000  0.5397070000000 1.0
C      1  0.5112110000000  0.5115180000000  0.5187630000000 1.0
C      1  0.5067960000000  0.5257050000000  0.4731090000000 1.0
C      1  0.5014290000000  0.4868840000000  0.4699540000000 1.0
C      1  0.5088680000000  0.4634130000000  0.5026340000000 1.0
C      1  0.5657330000000  0.4795670000000  0.4869640000000 1.0
C      1  0.5649920000000  0.4817630000000  0.5156570000000 1.0
C      1  0.5653520000000  0.5095620000000  0.5225030000000 1.0
C      1  0.5647620000000  0.5240520000000  0.4979930000000 1.0
C      1  0.5666650000000  0.5062630000000  0.4765070000000 1.0
C      1  0.4761330000000  0.4731590000000  0.5048770000000 1.0
C      1  0.4744790000000  0.4949990000000  0.5251150000000 1.0
C      1  0.4802610000000  0.5211550000000  0.5115490000000 1.0
C      1  0.4794000000000  0.5207810000000  0.4816650000000 1.0
C      1  0.4729090000000  0.4877310000000  0.4773730000000 1.0
C      1  0.5227270000000  0.4408360000000  0.5508080000000 1.0
C      1  0.5215810000000  0.5278450000000  0.5703590000000 1.0
C      1  0.5198490000000  0.5754480000000  0.4956160000000 1.0
C      1  0.5273200000000  0.5173160000000  0.4287860000000 1.0
C      1  0.5234650000000  0.4348110000000  0.4578400000000 1.0
C      1  0.4583930000000  0.4993970000000  0.4331560000000 1.0
C      1  0.4532390000000  0.4337880000000  0.4817110000000 1.0
C      1  0.4563660000000  0.4669890000000  0.5624140000000 1.0
C      1  0.4561950000000  0.5439010000000  0.5514410000000 1.0
C      1  0.4541770000000  0.5651120000000  0.4770100000000 1.0
C      1  0.4589200000000  0.4783640000000  0.4525500000000 1.0
C      1  0.4585960000000  0.4512580000000  0.5177170000000 1.0
C      1  0.4520330000000  0.4964630000000  0.5679890000000 1.0
C      1  0.4652350000000  0.5473780000000  0.5210850000000 1.0
C      1  0.4599050000000  0.5391350000000  0.4668180000000 1.0
C      1  0.5143320000000  0.4139890000000  0.5136980000000 1.0
C      1  0.5151490000000  0.4848570000000  0.5835940000000 1.0
C      1  0.5156560000000  0.5745980000000  0.5524070000000 1.0
C      1  0.5086210000000  0.5571470000000  0.4347900000000 1.0
C      1  0.5173470000000  0.4646680000000  0.4242570000000 1.0
C      1  0.5313640000000  0.4688890000000  0.5502350000000 1.0
C      1  0.5284900000000  0.5323370000000  0.5415530000000 1.0
C      1  0.5258600000000  0.5520720000000  0.4782200000000 1.0
C      1  0.5474400000000  0.4975510000000  0.4327560000000 1.0
C      1  0.5316870000000  0.4432690000000  0.4850620000000 1.0
C      1  0.4680750000000  0.4467660000000  0.5453420000000 1.0
C      1  0.4661180000000  0.5223570000000  0.5677080000000 1.0
C      1  0.4674850000000  0.5704390000000  0.5023330000000 1.0
C      1  0.4795300000000  0.5207170000000  0.4317880000000 1.0
C      1  0.4730220000000  0.4354180000000  0.4660560000000 1.0
C      1  0.5451410000000  0.5108240000000  0.5723650000000 1.0
C      1  0.5431500000000  0.5687600000000  0.5124660000000 1.0
C      1  0.5458480000000  0.5383980000000  0.4383760000000 1.0
C      1  0.5469190000000  0.4484090000000  0.4473500000000 1.0
C      1  0.5447370000000  0.4343470000000  0.5323810000000 1.0
C      1  0.4943170000000  0.5190690000000  0.5780920000000 1.0
C      1  0.4930360000000  0.5820720000000  0.5037150000000 1.0
C      1  0.4859030000000  0.5467620000000  0.4257250000000 1.0
C      1  0.4954150000000  0.4396200000000  0.4490880000000 1.0
C      1  0.4949650000000  0.4338230000000  0.5437450000000 1.0
C      1  0.4233700000000  0.4951910000000  0.4761280000000 1.0
C      1  0.4253400000000  0.4758500000000  0.4981200000000 1.0
C      1  0.4260540000000  0.4910790000000  0.5227500000000 1.0
C      1  0.4232620000000  0.5197150000000  0.5167800000000 1.0
C      1  0.4213470000000  0.5220320000000  0.4875160000000 1.0
C      1  0.5412620000000  0.4817380000000  0.5750640000000 1.0
C      1  0.5401370000000  0.5602120000000  0.5399330000000 1.0
C      1  0.5316160000000  0.5611370000000  0.4493640000000 1.0
C      1  0.5450300000000  0.4692430000000  0.4254330000000 1.0
C      1  0.5399530000000  0.4218240000000  0.5059710000000 1.0
C      1  0.4974030000000  0.4937440000000  0.5680800000000 1.0
C      1  0.4972700000000  0.5767770000000  0.5301950000000 1.0
C      1  0.5050380000000  0.5184370000000  0.4455880000000 1.0
C      1  0.4996300000000  0.4692910000000  0.4451880000000 1.0
C      1  0.4985530000000  0.4373860000000  0.5144320000000 1.0
C      1  0.5624640000000  0.5150860000000  0.4494170000000 1.0
C      1  0.5550370000000  0.4560320000000  0.4741000000000 1.0
C      1  0.5542380000000  0.4620160000000  0.5339060000000 1.0
C      1  0.5552190000000  0.5225290000000  0.5468110000000 1.0
C      1  0.5514580000000  0.5487880000000  0.4935370000000 1.0
C      1  0.4325300000000  0.5449660000000  0.4727050000000 1.0
C      1  0.4339960000000  0.4915460000000  0.4485560000000 1.0
C      1  0.4358560000000  0.4477110000000  0.4994550000000 1.0
C      1  0.4342540000000  0.4823450000000  0.5501110000000 1.0
C      1  0.4363940000000  0.5415590000000  0.5311060000000 1.0
C      1  0.5151380000000  0.4915850000000  0.4957890000000 1.0
END
