TITL C-2441164-471-471 0.0253505125352575 125000 -3643.91804391156 0 0 34 (Cs) n - 1
REM
REM in /home/bkarasulu/work/CARBON/AIRSS/Generating-Clusters/ReaxFF-fromJPCA2015/Units_Real/with-SteepDescent/Higher-Symm
REM
REM
REM
REM
REM
REM ./C.cell (1df0a924f5614ab8850e4351716899ee)
REM
REM compiler GCC version 9.2.1 20190827 (Red Hat 9.2.1-1)
REM options -cpp -mtune=generic -march=x86-64 -g -O0 -fpre-include=/usr/include/finclude/math-vector-fortran.h
REM seed 1130247848 -1435479952 -465722875 -1434114678 1656393479 914214591 -469061607 329829562 -1309382669 -1698635083 -182676898 -1754669566 -639022430 1908924593 1635552657 -2059154459 1878186380 -19200815 -885005451 -1929866930 -116797647 -1533711643 240826304 -833485070 -329623298 273783285 1296464441 13091139 -1174673956 243457600 251059722 -1685422507 1317096336
REM
CELL 1.54180   50.00000   50.00000   50.00000   90.00000   90.00000   90.00000
LATT -1
SFAC C  
C      1  0.5299110000000  0.4870020000000  0.4646420000000 1.0
C      1  0.4700950000000  0.4870000000000  0.4646440000000 1.0
C      1  0.4793850000000  0.5303750000000  0.5083250000000 1.0
C      1  0.5206400000000  0.5303860000000  0.5082670000000 1.0
C      1  0.5155680000000  0.5477840000000  0.4859420000000 1.0
C      1  0.4844290000000  0.5477710000000  0.4859570000000 1.0
C      1  0.4658130000000  0.5304650000000  0.5323850000000 1.0
C      1  0.5341790000000  0.5305210000000  0.5323470000000 1.0
C      1  0.5139790000000  0.5206210000000  0.5505260000000 1.0
C      1  0.4860290000000  0.5207020000000  0.5503910000000 1.0
C      1  0.4398490000000  0.4964800000000  0.4934170000000 1.0
C      1  0.5601570000000  0.4964410000000  0.4934170000000 1.0
C      1  0.5430430000000  0.4749600000000  0.5432900000000 1.0
C      1  0.4569460000000  0.4750440000000  0.5432710000000 1.0
C      1  0.4859970000000  0.4963270000000  0.4337060000000 1.0
C      1  0.5140020000000  0.4963260000000  0.4337050000000 1.0
C      1  0.5250890000000  0.4936770000000  0.5255560000000 1.0
C      1  0.4748090000000  0.4936260000000  0.5255410000000 1.0
C      1  0.5521630000000  0.4677920000000  0.5171230000000 1.0
C      1  0.4478360000000  0.4677110000000  0.5171210000000 1.0
C      1  0.5141590000000  0.5252080000000  0.4676890000000 1.0
C      1  0.4858460000000  0.5252070000000  0.4676860000000 1.0
C      1  0.5133180000000  0.4883980000000  0.4882760000000 1.0
C      1  0.4866720000000  0.4883980000000  0.4882830000000 1.0
C      1  0.4854250000000  0.4699390000000  0.4456000000000 1.0
C      1  0.5145740000000  0.4699380000000  0.4455980000000 1.0
C      1  0.4496460000000  0.5109750000000  0.4675680000000 1.0
C      1  0.5503460000000  0.5109750000000  0.4675650000000 1.0
C      1  0.5551910000000  0.5087200000000  0.5210950000000 1.0
C      1  0.4448810000000  0.5086690000000  0.5211050000000 1.0
C      1  0.4738210000000  0.4715790000000  0.5062390000000 1.0
C      1  0.5261790000000  0.4715370000000  0.5062560000000 1.0
C      1  0.4856110000000  0.4797600000000  0.5487350000000 1.0
C      1  0.5144150000000  0.4796860000000  0.5487320000000 1.0
END
