TITL C-2441157-2117-334 0.00450938365995609 125000 -4510.68819462434 0 0 38 (C1) n - 1
REM
REM in /home/bkarasulu/work/CARBON/AIRSS/Generating-Clusters/ReaxFF-fromJPCA2015/Units_Real/with-SteepDescent/Higher-Symm
REM
REM
REM
REM
REM
REM ./C.cell (1df0a924f5614ab8850e4351716899ee)
REM
REM compiler GCC version 9.2.1 20190827 (Red Hat 9.2.1-1)
REM options -cpp -mtune=generic -march=x86-64 -g -O0 -fpre-include=/usr/include/finclude/math-vector-fortran.h
REM seed -215628349 1433618799 -41976691 2039129812 -674357227 734689884 -2018826026 -389730219 -2011259207 -129703730 1515302287 190693505 2096878261 721608772 48805841 1443032605 -1528102801 882884306 1581484671 -57171382 2144751566 570571257 1144673297 -264710191 -934001652 1521293918 -1265952912 -583335101 -1800554141 -859553441 -1500103293 -2029161025 -1585086878
REM
CELL 1.54180   50.00000   50.00000   50.00000   90.00000   90.00000   90.00000
LATT -1
SFAC C  
C      1  0.4665670000000  0.5394690000000  0.5328580000000 1.0
C      1  0.4589150000000  0.5399530000000  0.4781990000000 1.0
C      1  0.5080010000000  0.5394030000000  0.4529060000000 1.0
C      1  0.5462290000000  0.5399660000000  0.4930870000000 1.0
C      1  0.5211590000000  0.5396830000000  0.5420280000000 1.0
C      1  0.5339300000000  0.4619180000000  0.5329520000000 1.0
C      1  0.5414270000000  0.4613540000000  0.4781150000000 1.0
C      1  0.4923710000000  0.4618390000000  0.4528880000000 1.0
C      1  0.4541240000000  0.4613920000000  0.4932000000000 1.0
C      1  0.4790980000000  0.4615850000000  0.5418440000000 1.0
C      1  0.4559840000000  0.5457880000000  0.5067910000000 1.0
C      1  0.4804720000000  0.5465830000000  0.4599760000000 1.0
C      1  0.5318370000000  0.5457390000000  0.4684250000000 1.0
C      1  0.5398920000000  0.5465430000000  0.5204800000000 1.0
C      1  0.4927940000000  0.5458930000000  0.5436470000000 1.0
C      1  0.5442730000000  0.4557100000000  0.5065630000000 1.0
C      1  0.5199970000000  0.4546780000000  0.4598530000000 1.0
C      1  0.4684300000000  0.4553490000000  0.4684030000000 1.0
C      1  0.4604530000000  0.4549930000000  0.5205400000000 1.0
C      1  0.5072880000000  0.4553930000000  0.5435830000000 1.0
C      1  0.5334030000000  0.4798050000000  0.4963620000000 1.0
C      1  0.5158040000000  0.4816350000000  0.5384680000000 1.0
C      1  0.4704720000000  0.4814260000000  0.5248090000000 1.0
C      1  0.4709560000000  0.4798180000000  0.4817780000000 1.0
C      1  0.5112910000000  0.4813280000000  0.4574270000000 1.0
C      1  0.4663300000000  0.5215530000000  0.4964460000000 1.0
C      1  0.4856830000000  0.5196840000000  0.5357590000000 1.0
C      1  0.5328790000000  0.5200250000000  0.5269200000000 1.0
C      1  0.5289690000000  0.5214890000000  0.4825270000000 1.0
C      1  0.4889220000000  0.5199070000000  0.4570840000000 1.0
C      1  0.4544000000000  0.5006090000000  0.4849670000000 1.0
C      1  0.5003150000000  0.5005950000000  0.4457230000000 1.0
C      1  0.5456080000000  0.5006580000000  0.4850440000000 1.0
C      1  0.5314170000000  0.5007480000000  0.5429700000000 1.0
C      1  0.4694010000000  0.5006260000000  0.5421930000000 1.0
C      1  0.5001370000000  0.5247570000000  0.5000470000000 1.0
C      1  0.4997150000000  0.4766800000000  0.4996260000000 1.0
C      1  0.4999260000000  0.5007190000000  0.4998370000000 1.0
END
