TITL C-2441158-471-774 0.00612605992588642 125000 -7383.86994281225 0 0 55 (C1) n - 1
REM
REM in /home/bkarasulu/work/CARBON/AIRSS/Generating-Clusters/ReaxFF-fromJPCA2015/Units_Real/with-SteepDescent/Higher-Symm
REM
REM
REM
REM
REM
REM ./C.cell (1df0a924f5614ab8850e4351716899ee)
REM
REM compiler GCC version 9.2.1 20190827 (Red Hat 9.2.1-1)
REM options -cpp -mtune=generic -march=x86-64 -g -O0 -fpre-include=/usr/include/finclude/math-vector-fortran.h
REM seed 2083260071 586756087 705103888 1073880108 1436345548 1643073612 -1122495709 537071175 -1677994619 1430385424 1748217991 -1449078607 -2059954319 2006772509 410710205 1520692170 -1188999962 1597573506 194876589 1510247809 538624441 2123559511 1373192653 1591164016 -396314345 360375874 261236705 723400867 -1211833424 -1989668707 2139478844 54302875 689699532
REM
CELL 1.54180   50.00000   50.00000   50.00000   90.00000   90.00000   90.00000
LATT -1
SFAC C  
C      1  0.4412260000000  0.4807200000000  0.4653400000000 1.0
C      1  0.5110610000000  0.5645040000000  0.4685790000000 1.0
C      1  0.5489740000000  0.4571470000000  0.4653500000000 1.0
C      1  0.4373410000000  0.5213550000000  0.5320560000000 1.0
C      1  0.5114290000000  0.4348780000000  0.5316570000000 1.0
C      1  0.5523640000000  0.5434040000000  0.5316540000000 1.0
C      1  0.4847050000000  0.5408090000000  0.5415780000000 1.0
C      1  0.5424340000000  0.4946850000000  0.5446190000000 1.0
C      1  0.4728570000000  0.4656870000000  0.5438950000000 1.0
C      1  0.4841990000000  0.4565600000000  0.4516920000000 1.0
C      1  0.5344950000000  0.5018710000000  0.4594320000000 1.0
C      1  0.4761110000000  0.5283510000000  0.4662960000000 1.0
C      1  0.4763370000000  0.5127920000000  0.5247750000000 1.0
C      1  0.5235950000000  0.5143980000000  0.5274930000000 1.0
C      1  0.5003320000000  0.4743670000000  0.5259360000000 1.0
C      1  0.4828770000000  0.4857820000000  0.4666360000000 1.0
C      1  0.5159720000000  0.4811290000000  0.4657040000000 1.0
C      1  0.5027350000000  0.5249560000000  0.4799610000000 1.0
C      1  0.5046700000000  0.5524140000000  0.5548850000000 1.0
C      1  0.5404190000000  0.4722150000000  0.5539910000000 1.0
C      1  0.4542890000000  0.4781190000000  0.5542000000000 1.0
C      1  0.5029160000000  0.4449930000000  0.4419270000000 1.0
C      1  0.5405880000000  0.5259610000000  0.4454370000000 1.0
C      1  0.4626060000000  0.5222880000000  0.4412140000000 1.0
C      1  0.4658190000000  0.4425660000000  0.5473850000000 1.0
C      1  0.4672200000000  0.5585700000000  0.5487550000000 1.0
C      1  0.5659040000000  0.4992840000000  0.5479510000000 1.0
C      1  0.4662440000000  0.5505080000000  0.4507150000000 1.0
C      1  0.4662580000000  0.4407780000000  0.4509570000000 1.0
C      1  0.5608220000000  0.5037010000000  0.4497310000000 1.0
C      1  0.5400400000000  0.5315470000000  0.5076520000000 1.0
C      1  0.5081030000000  0.4512910000000  0.5068650000000 1.0
C      1  0.4534600000000  0.5169280000000  0.5070990000000 1.0
C      1  0.5347770000000  0.4684780000000  0.4889490000000 1.0
C      1  0.5060120000000  0.5506520000000  0.4951020000000 1.0
C      1  0.4590780000000  0.4844480000000  0.4890010000000 1.0
C      1  0.5678790000000  0.4801940000000  0.4662770000000 1.0
C      1  0.4457830000000  0.4509940000000  0.4676090000000 1.0
C      1  0.4815960000000  0.5695810000000  0.4669550000000 1.0
C      1  0.5726180000000  0.5213140000000  0.5315950000000 1.0
C      1  0.4450230000000  0.5507480000000  0.5329170000000 1.0
C      1  0.4826650000000  0.4272310000000  0.5308630000000 1.0
C      1  0.4782110000000  0.5619140000000  0.4952790000000 1.0
C      1  0.5594550000000  0.4859010000000  0.4938020000000 1.0
C      1  0.4581380000000  0.4550640000000  0.4944720000000 1.0
C      1  0.4810370000000  0.4387030000000  0.5034390000000 1.0
C      1  0.5630690000000  0.5135920000000  0.5041820000000 1.0
C      1  0.4544040000000  0.5470600000000  0.5046180000000 1.0
C      1  0.4613570000000  0.4942210000000  0.4482040000000 1.0
C      1  0.5172800000000  0.5383190000000  0.4570860000000 1.0
C      1  0.5256150000000  0.4597590000000  0.4471120000000 1.0
C      1  0.4554140000000  0.5045640000000  0.5474050000000 1.0
C      1  0.5174080000000  0.4594200000000  0.5467720000000 1.0
C      1  0.5275570000000  0.5389470000000  0.5477400000000 1.0
C      1  0.5007250000000  0.5021750000000  0.5144400000000 1.0
END
