TITL C-2441167-4473-132 0.00148192567945661 125000 -7105.98724727087 0 0 48 (C1) n - 1
REM
REM in /home/bkarasulu/work/CARBON/AIRSS/Generating-Clusters/ReaxFF-fromJPCA2015/Units_Real/with-SteepDescent/Higher-Symm
REM
REM
REM
REM
REM
REM ./C.cell (1df0a924f5614ab8850e4351716899ee)
REM
REM compiler GCC version 9.2.1 20190827 (Red Hat 9.2.1-1)
REM options -cpp -mtune=generic -march=x86-64 -g -O0 -fpre-include=/usr/include/finclude/math-vector-fortran.h
REM seed 1157372884 -1532465055 445266168 1861275254 -1401399881 971977022 -817787846 -697549671 -1123848118 -2135937113 1395847954 476253826 481483565 -429981948 2036106904 1727367685 -1921888371 -1984685427 1820700913 1928124625 -113355006 -1443193340 -120599780 -829669128 -671680156 527936256 -1523179653 1270764948 1401826355 1694982839 1436096077 1643615352 -983591131
REM
CELL 1.54180   50.00000   50.00000   50.00000   90.00000   90.00000   90.00000
LATT -1
SFAC C  
C      1  0.5259710000000  0.4876780000000  0.5542590000000 1.0
C      1  0.4588300000000  0.5238950000000  0.5447430000000 1.0
C      1  0.4437810000000  0.4773020000000  0.4920390000000 1.0
C      1  0.4791680000000  0.5245110000000  0.4450220000000 1.0
C      1  0.5380970000000  0.4752880000000  0.4495810000000 1.0
C      1  0.5571150000000  0.5193010000000  0.5089850000000 1.0
C      1  0.5285120000000  0.4463160000000  0.4973640000000 1.0
C      1  0.5162140000000  0.5523060000000  0.5247620000000 1.0
C      1  0.4888750000000  0.4444360000000  0.5275580000000 1.0
C      1  0.4712280000000  0.5585530000000  0.5038340000000 1.0
C      1  0.4829650000000  0.4429550000000  0.4779880000000 1.0
C      1  0.5118100000000  0.5575580000000  0.4746510000000 1.0
C      1  0.5279700000000  0.5539490000000  0.4982490000000 1.0
C      1  0.5171850000000  0.4475690000000  0.5236410000000 1.0
C      1  0.4880110000000  0.5573420000000  0.5274690000000 1.0
C      1  0.4718410000000  0.4434250000000  0.5047380000000 1.0
C      1  0.4829250000000  0.5581070000000  0.4773740000000 1.0
C      1  0.5115470000000  0.4442340000000  0.4743090000000 1.0
C      1  0.4722660000000  0.4579180000000  0.4568750000000 1.0
C      1  0.5253910000000  0.5434190000000  0.4540070000000 1.0
C      1  0.5531970000000  0.4612130000000  0.4984750000000 1.0
C      1  0.5246840000000  0.5342150000000  0.5468060000000 1.0
C      1  0.4735590000000  0.4568400000000  0.5474310000000 1.0
C      1  0.4481440000000  0.5420800000000  0.5018130000000 1.0
C      1  0.5557470000000  0.4938500000000  0.4603970000000 1.0
C      1  0.5633000000000  0.5015730000000  0.5285520000000 1.0
C      1  0.4991300000000  0.4967670000000  0.5608610000000 1.0
C      1  0.4449730000000  0.5050510000000  0.5315340000000 1.0
C      1  0.4444830000000  0.4943560000000  0.4707950000000 1.0
C      1  0.4965170000000  0.5050610000000  0.4361690000000 1.0
C      1  0.4422320000000  0.5277220000000  0.4778520000000 1.0
C      1  0.4887980000000  0.4719330000000  0.4385330000000 1.0
C      1  0.5478210000000  0.5259790000000  0.4598870000000 1.0
C      1  0.5582610000000  0.4717810000000  0.5234930000000 1.0
C      1  0.5007730000000  0.5259410000000  0.5604400000000 1.0
C      1  0.4511040000000  0.4741540000000  0.5403100000000 1.0
C      1  0.5162990000000  0.4586730000000  0.4493680000000 1.0
C      1  0.5504640000000  0.5367790000000  0.4897530000000 1.0
C      1  0.5345120000000  0.4647160000000  0.5389980000000 1.0
C      1  0.4778550000000  0.5428700000000  0.5517200000000 1.0
C      1  0.4486280000000  0.4597740000000  0.5118890000000 1.0
C      1  0.4653020000000  0.5421040000000  0.4605270000000 1.0
C      1  0.4684770000000  0.4842290000000  0.4570010000000 1.0
C      1  0.5200470000000  0.5188390000000  0.4457420000000 1.0
C      1  0.5594000000000  0.4803190000000  0.4832500000000 1.0
C      1  0.5425740000000  0.5109410000000  0.5479250000000 1.0
C      1  0.4756320000000  0.4804110000000  0.5586100000000 1.0
C      1  0.4483840000000  0.5157660000000  0.5044180000000 1.0
END
