TITL C-2441158-471-801 0.104948388561695 125000 -26705.1555898014 0 0 195 (C1) n - 1
REM
REM in /home/bkarasulu/work/CARBON/AIRSS/Generating-Clusters/ReaxFF-fromJPCA2015/Units_Real/with-SteepDescent/Higher-Symm
REM
REM
REM
REM
REM
REM ./C.cell (1df0a924f5614ab8850e4351716899ee)
REM
REM compiler GCC version 9.2.1 20190827 (Red Hat 9.2.1-1)
REM options -cpp -mtune=generic -march=x86-64 -g -O0 -fpre-include=/usr/include/finclude/math-vector-fortran.h
REM seed 1958729835 -245609731 -712323130 -845508459 1458344848 -1529566900 444806623 1426748959 639121372 2046940131 -1649645438 -218078339 -229346210 -1503868315 1862643900 1909317778 1422410790 1830065276 -289885071 1678262602 750981987 -352290571 1611155167 1820862543 1019428328 1981640292 -519774897 1154964570 37691714 119057586 -1039857283 -781017130 -844781404
REM
CELL 1.54180   50.00000   50.00000   50.00000   90.00000   90.00000   90.00000
LATT -1
SFAC C  
C      1  0.4956600000000  0.4212760000000  0.5771390000000 1.0
C      1  0.5617910000000  0.4457330000000  0.5746060000000 1.0
C      1  0.5773450000000  0.5144950000000  0.5764910000000 1.0
C      1  0.5404690000000  0.5733230000000  0.5763630000000 1.0
C      1  0.4683900000000  0.5758490000000  0.5795770000000 1.0
C      1  0.4212810000000  0.5218170000000  0.5776310000000 1.0
C      1  0.4330210000000  0.4513570000000  0.5784920000000 1.0
C      1  0.4019800000000  0.5049550000000  0.5327650000000 1.0
C      1  0.4323350000000  0.4222000000000  0.5344300000000 1.0
C      1  0.5179190000000  0.3993770000000  0.5353280000000 1.0
C      1  0.5915900000000  0.4518390000000  0.5335610000000 1.0
C      1  0.5935770000000  0.5403990000000  0.5352220000000 1.0
C      1  0.5269250000000  0.5989670000000  0.5346180000000 1.0
C      1  0.4416570000000  0.5824080000000  0.5343430000000 1.0
C      1  0.5438540000000  0.4930970000000  0.4682640000000 1.0
C      1  0.5332080000000  0.5195750000000  0.4624880000000 1.0
C      1  0.4873760000000  0.5349840000000  0.4642850000000 1.0
C      1  0.4631650000000  0.5190800000000  0.4682610000000 1.0
C      1  0.4592220000000  0.4908610000000  0.4704760000000 1.0
C      1  0.4755290000000  0.4679500000000  0.4659240000000 1.0
C      1  0.5295840000000  0.4693370000000  0.4641700000000 1.0
C      1  0.3724910000000  0.5350540000000  0.5048550000000 1.0
C      1  0.4051840000000  0.4203820000000  0.5017230000000 1.0
C      1  0.5065130000000  0.3834330000000  0.4959150000000 1.0
C      1  0.5978660000000  0.4188830000000  0.5017260000000 1.0
C      1  0.6182610000000  0.5362420000000  0.4989670000000 1.0
C      1  0.5503480000000  0.6141330000000  0.5033360000000 1.0
C      1  0.4457320000000  0.6107520000000  0.5032840000000 1.0
C      1  0.5012970000000  0.5926760000000  0.4536680000000 1.0
C      1  0.4270680000000  0.5624570000000  0.4593480000000 1.0
C      1  0.4042040000000  0.4861080000000  0.4629400000000 1.0
C      1  0.4612680000000  0.4197770000000  0.4591930000000 1.0
C      1  0.5386640000000  0.4071700000000  0.4644280000000 1.0
C      1  0.5861830000000  0.4770520000000  0.4597740000000 1.0
C      1  0.5738840000000  0.5573770000000  0.4526650000000 1.0
C      1  0.5166550000000  0.6108470000000  0.4816460000000 1.0
C      1  0.4261260000000  0.5820480000000  0.4817250000000 1.0
C      1  0.3885730000000  0.4944420000000  0.4854690000000 1.0
C      1  0.4390550000000  0.4110800000000  0.4786570000000 1.0
C      1  0.5348610000000  0.3897160000000  0.4872830000000 1.0
C      1  0.6012800000000  0.4586170000000  0.4816360000000 1.0
C      1  0.5963810000000  0.5504350000000  0.4872000000000 1.0
C      1  0.4053420000000  0.4334440000000  0.5267590000000 1.0
C      1  0.4923740000000  0.3851400000000  0.5216090000000 1.0
C      1  0.5851690000000  0.4226920000000  0.5263010000000 1.0
C      1  0.6137240000000  0.5190970000000  0.5210580000000 1.0
C      1  0.5569400000000  0.5985250000000  0.5258240000000 1.0
C      1  0.4599780000000  0.6059820000000  0.5266830000000 1.0
C      1  0.3910260000000  0.5343120000000  0.5255860000000 1.0
C      1  0.4937220000000  0.5370610000000  0.5162260000000 1.0
C      1  0.4643750000000  0.5330140000000  0.5171190000000 1.0
C      1  0.4521400000000  0.4880120000000  0.5199610000000 1.0
C      1  0.4950020000000  0.4630620000000  0.5142640000000 1.0
C      1  0.5231170000000  0.4674460000000  0.5136520000000 1.0
C      1  0.5346370000000  0.4982430000000  0.5167060000000 1.0
C      1  0.5226940000000  0.5272490000000  0.5139790000000 1.0
C      1  0.5299000000000  0.4549570000000  0.4891980000000 1.0
C      1  0.5526510000000  0.4955260000000  0.4944400000000 1.0
C      1  0.5344290000000  0.5366200000000  0.4883410000000 1.0
C      1  0.4933780000000  0.5496630000000  0.4899310000000 1.0
C      1  0.4511510000000  0.5295410000000  0.4920250000000 1.0
C      1  0.4462510000000  0.4807910000000  0.4938600000000 1.0
C      1  0.4831550000000  0.4518520000000  0.4895300000000 1.0
C      1  0.4404410000000  0.4935380000000  0.6019980000000 1.0
C      1  0.4764190000000  0.4681660000000  0.5970200000000 1.0
C      1  0.5189800000000  0.4528410000000  0.6040820000000 1.0
C      1  0.5475790000000  0.4807990000000  0.6053210000000 1.0
C      1  0.5487680000000  0.5319640000000  0.6026700000000 1.0
C      1  0.5087550000000  0.5482480000000  0.5955720000000 1.0
C      1  0.4672710000000  0.5338660000000  0.5981040000000 1.0
C      1  0.5204980000000  0.4149150000000  0.5624660000000 1.0
C      1  0.5811350000000  0.4635240000000  0.5621720000000 1.0
C      1  0.5770820000000  0.5394050000000  0.5617920000000 1.0
C      1  0.5191310000000  0.5886040000000  0.5639170000000 1.0
C      1  0.4441270000000  0.5690360000000  0.5644830000000 1.0
C      1  0.4120570000000  0.4977720000000  0.5628460000000 1.0
C      1  0.4450190000000  0.4285180000000  0.5633770000000 1.0
C      1  0.5505410000000  0.5739870000000  0.4678340000000 1.0
C      1  0.4743250000000  0.5852540000000  0.4697760000000 1.0
C      1  0.4116350000000  0.5348480000000  0.4682100000000 1.0
C      1  0.4179460000000  0.4563780000000  0.4663520000000 1.0
C      1  0.4883110000000  0.4164950000000  0.4691320000000 1.0
C      1  0.5622010000000  0.4292980000000  0.4656070000000 1.0
C      1  0.5834730000000  0.5069530000000  0.4692290000000 1.0
C      1  0.4999380000000  0.4166750000000  0.4275210000000 1.0
C      1  0.5666450000000  0.4511230000000  0.4200580000000 1.0
C      1  0.5849060000000  0.5175880000000  0.4240900000000 1.0
C      1  0.5359990000000  0.5738010000000  0.4251110000000 1.0
C      1  0.4636370000000  0.5760240000000  0.4251060000000 1.0
C      1  0.4235200000000  0.5151370000000  0.4226510000000 1.0
C      1  0.4328380000000  0.4400400000000  0.4197310000000 1.0
C      1  0.4255830000000  0.4723720000000  0.5598980000000 1.0
C      1  0.4732540000000  0.4258200000000  0.5593050000000 1.0
C      1  0.5419700000000  0.4334120000000  0.5578070000000 1.0
C      1  0.5742960000000  0.4919850000000  0.5581210000000 1.0
C      1  0.5525210000000  0.5546890000000  0.5575340000000 1.0
C      1  0.4915670000000  0.5786400000000  0.5611110000000 1.0
C      1  0.4340330000000  0.5422760000000  0.5605150000000 1.0
C      1  0.5251750000000  0.4778370000000  0.5584300000000 1.0
C      1  0.5219460000000  0.5073030000000  0.5567860000000 1.0
C      1  0.5109250000000  0.5321440000000  0.5716640000000 1.0
C      1  0.4820970000000  0.5284490000000  0.5732630000000 1.0
C      1  0.4735890000000  0.5065370000000  0.5578510000000 1.0
C      1  0.4748750000000  0.4757260000000  0.5642690000000 1.0
C      1  0.5007670000000  0.4640240000000  0.5573960000000 1.0
C      1  0.5263860000000  0.5213250000000  0.4310350000000 1.0
C      1  0.5022190000000  0.5350270000000  0.4292510000000 1.0
C      1  0.4787750000000  0.5217890000000  0.4236140000000 1.0
C      1  0.4792850000000  0.4933800000000  0.4205430000000 1.0
C      1  0.4879970000000  0.4727890000000  0.4416740000000 1.0
C      1  0.5150560000000  0.4695510000000  0.4402120000000 1.0
C      1  0.5230360000000  0.4898980000000  0.4206010000000 1.0
C      1  0.5479580000000  0.5602790000000  0.4925840000000 1.0
C      1  0.4892090000000  0.5768510000000  0.4953320000000 1.0
C      1  0.4257640000000  0.5346690000000  0.4930190000000 1.0
C      1  0.4267850000000  0.4632180000000  0.4922970000000 1.0
C      1  0.4672960000000  0.4342270000000  0.5052230000000 1.0
C      1  0.5503730000000  0.4371340000000  0.4923340000000 1.0
C      1  0.5737700000000  0.4837010000000  0.5068080000000 1.0
C      1  0.5931320000000  0.4312210000000  0.4770430000000 1.0
C      1  0.5801250000000  0.5244910000000  0.4917490000000 1.0
C      1  0.5441460000000  0.6048140000000  0.4778460000000 1.0
C      1  0.4487930000000  0.6012350000000  0.4772370000000 1.0
C      1  0.3850570000000  0.5241820000000  0.4823510000000 1.0
C      1  0.4142110000000  0.4253340000000  0.4757930000000 1.0
C      1  0.5010940000000  0.4124860000000  0.4941310000000 1.0
C      1  0.5076700000000  0.4232870000000  0.5201770000000 1.0
C      1  0.5659740000000  0.4636100000000  0.5242400000000 1.0
C      1  0.5725890000000  0.5241470000000  0.5205960000000 1.0
C      1  0.5185750000000  0.5719470000000  0.5260640000000 1.0
C      1  0.4616040000000  0.5605520000000  0.5283510000000 1.0
C      1  0.4317150000000  0.5059400000000  0.5280250000000 1.0
C      1  0.4508090000000  0.4434420000000  0.5255440000000 1.0
C      1  0.4381500000000  0.4519150000000  0.4458690000000 1.0
C      1  0.5122920000000  0.4121210000000  0.4531460000000 1.0
C      1  0.5689930000000  0.4548480000000  0.4497980000000 1.0
C      1  0.5822780000000  0.5290770000000  0.4510250000000 1.0
C      1  0.5263580000000  0.5772790000000  0.4509670000000 1.0
C      1  0.4547520000000  0.5669400000000  0.4513080000000 1.0
C      1  0.4152060000000  0.5096590000000  0.4506330000000 1.0
C      1  0.4444110000000  0.4666800000000  0.6011820000000 1.0
C      1  0.4948660000000  0.4417750000000  0.5988980000000 1.0
C      1  0.5473270000000  0.4534180000000  0.6016810000000 1.0
C      1  0.5601050000000  0.5064870000000  0.6023210000000 1.0
C      1  0.5362690000000  0.5570860000000  0.6018010000000 1.0
C      1  0.4812530000000  0.5589280000000  0.6003330000000 1.0
C      1  0.4402680000000  0.5210950000000  0.6011900000000 1.0
C      1  0.5626070000000  0.5598220000000  0.4265550000000 1.0
C      1  0.4913400000000  0.5861600000000  0.4262980000000 1.0
C      1  0.4337340000000  0.5411560000000  0.4266930000000 1.0
C      1  0.4250020000000  0.4678290000000  0.4242830000000 1.0
C      1  0.4712290000000  0.4191990000000  0.4307980000000 1.0
C      1  0.5417020000000  0.4396240000000  0.4151240000000 1.0
C      1  0.5851130000000  0.4889530000000  0.4276200000000 1.0
C      1  0.5421320000000  0.3953980000000  0.5150030000000 1.0
C      1  0.6087390000000  0.4649390000000  0.5089610000000 1.0
C      1  0.5917780000000  0.5634030000000  0.5136030000000 1.0
C      1  0.5097620000000  0.6136280000000  0.5095010000000 1.0
C      1  0.4213320000000  0.5775270000000  0.5107830000000 1.0
C      1  0.3911640000000  0.4844480000000  0.5130150000000 1.0
C      1  0.4419640000000  0.4023860000000  0.5076810000000 1.0
C      1  0.5425910000000  0.5216020000000  0.4056630000000 1.0
C      1  0.5019670000000  0.5469180000000  0.4019340000000 1.0
C      1  0.4744180000000  0.5374900000000  0.3995470000000 1.0
C      1  0.4604910000000  0.4847430000000  0.3992490000000 1.0
C      1  0.4718590000000  0.4574160000000  0.3958980000000 1.0
C      1  0.5003560000000  0.4576400000000  0.3961160000000 1.0
C      1  0.5436810000000  0.4932340000000  0.3993670000000 1.0
C      1  0.6022130000000  0.4923080000000  0.5137330000000 1.0
C      1  0.5645440000000  0.5725130000000  0.5144730000000 1.0
C      1  0.4874580000000  0.5966800000000  0.5183950000000 1.0
C      1  0.4138860000000  0.5500000000000  0.5153730000000 1.0
C      1  0.4075420000000  0.4608150000000  0.5148660000000 1.0
C      1  0.4692880000000  0.4019280000000  0.5158050000000 1.0
C      1  0.5572410000000  0.4200080000000  0.5157110000000 1.0
C      1  0.4588240000000  0.4336120000000  0.4087330000000 1.0
C      1  0.5156650000000  0.4341130000000  0.4086760000000 1.0
C      1  0.5682650000000  0.4789210000000  0.4072100000000 1.0
C      1  0.5669730000000  0.5361430000000  0.4094980000000 1.0
C      1  0.5111750000000  0.5737130000000  0.4092220000000 1.0
C      1  0.4516670000000  0.5541130000000  0.4085730000000 1.0
C      1  0.4336460000000  0.4902420000000  0.4084910000000 1.0
C      1  0.4927140000000  0.4419670000000  0.5379810000000 1.0
C      1  0.5394940000000  0.4594800000000  0.5382760000000 1.0
C      1  0.5570410000000  0.5055320000000  0.5367790000000 1.0
C      1  0.5289240000000  0.5486170000000  0.5386600000000 1.0
C      1  0.4842360000000  0.5550940000000  0.5443440000000 1.0
C      1  0.4494500000000  0.5223180000000  0.5427620000000 1.0
C      1  0.4509230000000  0.4684520000000  0.5420640000000 1.0
C      1  0.5033210000000  0.5098360000000  0.4684880000000 1.0
C      1  0.5024850000000  0.4861500000000  0.3995240000000 1.0
C      1  0.4863440000000  0.4929990000000  0.5178260000000 1.0
C      1  0.4940160000000  0.4891240000000  0.6062240000000 1.0
C      1  0.4969300000000  0.5050420000000  0.5424960000000 1.0
C      1  0.4952890000000  0.5018540000000  0.4918550000000 1.0
END
