TITL C-2441154-10-352 0.0964356285263529 125000 -21166.7452650145 0 0 160 (C1) n - 1
REM
REM in /home/bkarasulu/work/CARBON/AIRSS/Generating-Clusters/ReaxFF-fromJPCA2015/Units_Real/with-SteepDescent/Higher-Symm
REM
REM
REM
REM
REM
REM ./C.cell (1df0a924f5614ab8850e4351716899ee)
REM
REM compiler GCC version 9.2.1 20190827 (Red Hat 9.2.1-1)
REM options -cpp -mtune=generic -march=x86-64 -g -O0 -fpre-include=/usr/include/finclude/math-vector-fortran.h
REM seed -1679950327 -1566971626 723957637 275326313 -674207200 -2051202317 1036574503 454365738 111555099 734709363 1566528111 102640316 304878808 679602987 -1087204554 1232982691 1589566216 -1389505220 1115378131 2052648592 665356104 -1956791216 -1322965445 502586718 1314925906 1536264523 -1831752252 -349822671 453917067 1631953262 81264445 -1321635303 1610001631
REM
CELL 1.54180   50.00000   50.00000   50.00000   90.00000   90.00000   90.00000
LATT -1
SFAC C  
C      1  0.5242730000000  0.4348510000000  0.4557130000000 1.0
C      1  0.4557270000000  0.5302300000000  0.4313050000000 1.0
C      1  0.4407920000000  0.4581610000000  0.5239060000000 1.0
C      1  0.4643070000000  0.4315860000000  0.5537220000000 1.0
C      1  0.5324500000000  0.5666340000000  0.5507190000000 1.0
C      1  0.4772830000000  0.5831270000000  0.4548820000000 1.0
C      1  0.5518640000000  0.5336440000000  0.5698610000000 1.0
C      1  0.4518300000000  0.4769490000000  0.5741830000000 1.0
C      1  0.5512990000000  0.4652460000000  0.4329550000000 1.0
C      1  0.5652770000000  0.4544360000000  0.4737010000000 1.0
C      1  0.4349970000000  0.5528260000000  0.4642270000000 1.0
C      1  0.5635260000000  0.5416880000000  0.5223370000000 1.0
C      1  0.4556110000000  0.4338360000000  0.5280190000000 1.0
C      1  0.4411540000000  0.5266200000000  0.4553220000000 1.0
C      1  0.5244260000000  0.4566500000000  0.4357530000000 1.0
C      1  0.5507580000000  0.4311690000000  0.4658250000000 1.0
C      1  0.5480450000000  0.5648300000000  0.5294220000000 1.0
C      1  0.4530650000000  0.5735110000000  0.4674740000000 1.0
C      1  0.5685970000000  0.5317000000000  0.5487890000000 1.0
C      1  0.5644900000000  0.4760470000000  0.4562490000000 1.0
C      1  0.4385980000000  0.4745740000000  0.5476230000000 1.0
C      1  0.4719400000000  0.4561370000000  0.5672030000000 1.0
C      1  0.4810540000000  0.5401800000000  0.4268410000000 1.0
C      1  0.5254490000000  0.5431050000000  0.5665340000000 1.0
C      1  0.5160620000000  0.4976300000000  0.5472420000000 1.0
C      1  0.5451100000000  0.5246040000000  0.5002280000000 1.0
C      1  0.5005620000000  0.5419330000000  0.5216650000000 1.0
C      1  0.4854280000000  0.4978830000000  0.4471470000000 1.0
C      1  0.5240260000000  0.5019530000000  0.4592370000000 1.0
C      1  0.4770610000000  0.4993080000000  0.5377610000000 1.0
C      1  0.4571180000000  0.5236120000000  0.5018120000000 1.0
C      1  0.5446250000000  0.4783850000000  0.4974130000000 1.0
C      1  0.4551470000000  0.4751960000000  0.5028430000000 1.0
C      1  0.4986700000000  0.5387970000000  0.4791930000000 1.0
C      1  0.5016260000000  0.4588920000000  0.4785660000000 1.0
C      1  0.4992760000000  0.4592550000000  0.5201980000000 1.0
C      1  0.5420020000000  0.5000880000000  0.5169790000000 1.0
C      1  0.5068130000000  0.5252710000000  0.5483620000000 1.0
C      1  0.5202070000000  0.5405460000000  0.4986220000000 1.0
C      1  0.4494570000000  0.5079860000000  0.4792320000000 1.0
C      1  0.4562820000000  0.4997080000000  0.5181220000000 1.0
C      1  0.5469830000000  0.4986520000000  0.4761350000000 1.0
C      1  0.5020240000000  0.5209480000000  0.4554100000000 1.0
C      1  0.4925970000000  0.4750380000000  0.5459930000000 1.0
C      1  0.5067240000000  0.4779720000000  0.4536250000000 1.0
C      1  0.4790550000000  0.5425190000000  0.5003790000000 1.0
C      1  0.4797640000000  0.4598650000000  0.4987890000000 1.0
C      1  0.5210940000000  0.4602240000000  0.5002220000000 1.0
C      1  0.4254780000000  0.4718150000000  0.4513790000000 1.0
C      1  0.4510410000000  0.4273300000000  0.4741750000000 1.0
C      1  0.4719810000000  0.4511800000000  0.4262730000000 1.0
C      1  0.5741520000000  0.4721930000000  0.5478470000000 1.0
C      1  0.4257540000000  0.5252120000000  0.5492520000000 1.0
C      1  0.5754220000000  0.5286240000000  0.4506330000000 1.0
C      1  0.5494600000000  0.4283760000000  0.5256320000000 1.0
C      1  0.4549700000000  0.5672790000000  0.5261640000000 1.0
C      1  0.5470370000000  0.5737840000000  0.4715970000000 1.0
C      1  0.5287310000000  0.4527090000000  0.5740830000000 1.0
C      1  0.4706320000000  0.5466290000000  0.5753530000000 1.0
C      1  0.5257500000000  0.5482880000000  0.4249320000000 1.0
C      1  0.4511200000000  0.4717720000000  0.4258760000000 1.0
C      1  0.4735430000000  0.4308020000000  0.4544730000000 1.0
C      1  0.4254210000000  0.4512510000000  0.4728120000000 1.0
C      1  0.5494870000000  0.4724010000000  0.5740960000000 1.0
C      1  0.5481450000000  0.5279930000000  0.4252580000000 1.0
C      1  0.4506200000000  0.5254630000000  0.5748410000000 1.0
C      1  0.5270600000000  0.4322000000000  0.5454890000000 1.0
C      1  0.5252150000000  0.5736590000000  0.4523240000000 1.0
C      1  0.4733420000000  0.5707270000000  0.5496700000000 1.0
C      1  0.5745830000000  0.4515370000000  0.5266950000000 1.0
C      1  0.5756380000000  0.5489020000000  0.4710700000000 1.0
C      1  0.4262900000000  0.5472210000000  0.5275950000000 1.0
C      1  0.5869810000000  0.4520620000000  0.5668140000000 1.0
C      1  0.5659580000000  0.5874800000000  0.4522940000000 1.0
C      1  0.4513170000000  0.5672580000000  0.5872680000000 1.0
C      1  0.4130530000000  0.4514780000000  0.4328310000000 1.0
C      1  0.5875770000000  0.5480440000000  0.4313010000000 1.0
C      1  0.4126270000000  0.5470610000000  0.5662930000000 1.0
C      1  0.4356570000000  0.5857310000000  0.5423190000000 1.0
C      1  0.5653530000000  0.4122100000000  0.5462490000000 1.0
C      1  0.4349610000000  0.4116130000000  0.4539350000000 1.0
C      1  0.5449980000000  0.5672490000000  0.4122520000000 1.0
C      1  0.4538970000000  0.4301710000000  0.4139240000000 1.0
C      1  0.5458470000000  0.4312920000000  0.5858620000000 1.0
C      1  0.5663980000000  0.4512000000000  0.5867990000000 1.0
C      1  0.4527390000000  0.5864910000000  0.5660830000000 1.0
C      1  0.5874060000000  0.5684370000000  0.4518110000000 1.0
C      1  0.4338440000000  0.4507260000000  0.4130330000000 1.0
C      1  0.4321150000000  0.5456880000000  0.5874620000000 1.0
C      1  0.5665420000000  0.5478440000000  0.4117740000000 1.0
C      1  0.5441000000000  0.5873290000000  0.4332860000000 1.0
C      1  0.5420090000000  0.4126210000000  0.5638570000000 1.0
C      1  0.4581980000000  0.4117720000000  0.4361190000000 1.0
C      1  0.4131450000000  0.5676160000000  0.5461890000000 1.0
C      1  0.4139090000000  0.4311150000000  0.4532630000000 1.0
C      1  0.5865660000000  0.4313210000000  0.5468660000000 1.0
C      1  0.4080610000000  0.5041770000000  0.5393320000000 1.0
C      1  0.5395880000000  0.4103100000000  0.5042750000000 1.0
C      1  0.5036050000000  0.5337400000000  0.4111870000000 1.0
C      1  0.5918270000000  0.5063150000000  0.4598370000000 1.0
C      1  0.4088270000000  0.4947330000000  0.4598220000000 1.0
C      1  0.5917550000000  0.4935530000000  0.5383460000000 1.0
C      1  0.4601050000000  0.4096280000000  0.4964850000000 1.0
C      1  0.5404410000000  0.5894050000000  0.4955650000000 1.0
C      1  0.4602330000000  0.5908890000000  0.5093600000000 1.0
C      1  0.4936180000000  0.5391890000000  0.5918220000000 1.0
C      1  0.5079430000000  0.4616160000000  0.5910680000000 1.0
C      1  0.4938770000000  0.4583080000000  0.4081490000000 1.0
C      1  0.5409090000000  0.5037440000000  0.4100510000000 1.0
C      1  0.5075910000000  0.4109700000000  0.5405580000000 1.0
C      1  0.4098130000000  0.5387710000000  0.5046580000000 1.0
C      1  0.4632830000000  0.5017920000000  0.5849710000000 1.0
C      1  0.4607330000000  0.4931210000000  0.4085050000000 1.0
C      1  0.5408350000000  0.4947840000000  0.5911780000000 1.0
C      1  0.4923540000000  0.4090170000000  0.4593540000000 1.0
C      1  0.4944080000000  0.5904770000000  0.5422960000000 1.0
C      1  0.5034560000000  0.5847660000000  0.4669200000000 1.0
C      1  0.5923950000000  0.5395610000000  0.4930950000000 1.0
C      1  0.5916990000000  0.4602430000000  0.5046760000000 1.0
C      1  0.4075660000000  0.4605260000000  0.4948450000000 1.0
C      1  0.4140610000000  0.4830940000000  0.5596350000000 1.0
C      1  0.5622670000000  0.4170880000000  0.4869810000000 1.0
C      1  0.4805030000000  0.5673900000000  0.4169860000000 1.0
C      1  0.5847160000000  0.4875310000000  0.4387720000000 1.0
C      1  0.4196170000000  0.5122660000000  0.4398790000000 1.0
C      1  0.5836260000000  0.5113890000000  0.5599960000000 1.0
C      1  0.4368110000000  0.4186660000000  0.5130320000000 1.0
C      1  0.5634670000000  0.5819670000000  0.5123800000000 1.0
C      1  0.4391440000000  0.5837150000000  0.4900130000000 1.0
C      1  0.5107580000000  0.5611290000000  0.5849600000000 1.0
C      1  0.4900290000000  0.4402120000000  0.5840040000000 1.0
C      1  0.5120490000000  0.4381360000000  0.4173870000000 1.0
C      1  0.5626490000000  0.4860240000000  0.4181020000000 1.0
C      1  0.4889330000000  0.4193980000000  0.5616430000000 1.0
C      1  0.4201640000000  0.5595850000000  0.4872040000000 1.0
C      1  0.4276090000000  0.4829500000000  0.5845850000000 1.0
C      1  0.4401430000000  0.5121870000000  0.4180320000000 1.0
C      1  0.5630880000000  0.5118710000000  0.5832350000000 1.0
C      1  0.5105530000000  0.4165350000000  0.4376930000000 1.0
C      1  0.5129690000000  0.5820880000000  0.5636630000000 1.0
C      1  0.4740340000000  0.5890330000000  0.4268950000000 1.0
C      1  0.5833690000000  0.5599300000000  0.5111440000000 1.0
C      1  0.5844690000000  0.4379190000000  0.4876400000000 1.0
C      1  0.4177460000000  0.4409140000000  0.5131630000000 1.0
C      1  0.4051480000000  0.5097620000000  0.5103840000000 1.0
C      1  0.5105810000000  0.4070650000000  0.5096570000000 1.0
C      1  0.5117320000000  0.5062100000000  0.4058000000000 1.0
C      1  0.5955600000000  0.5101350000000  0.4886210000000 1.0
C      1  0.4048860000000  0.4896790000000  0.4891970000000 1.0
C      1  0.5952530000000  0.4890770000000  0.5091140000000 1.0
C      1  0.4895070000000  0.4069850000000  0.4896600000000 1.0
C      1  0.5110300000000  0.5915700000000  0.4937250000000 1.0
C      1  0.4899420000000  0.5949520000000  0.5138390000000 1.0
C      1  0.4904710000000  0.5099130000000  0.5924910000000 1.0
C      1  0.5118280000000  0.4903780000000  0.5948090000000 1.0
C      1  0.4896510000000  0.4870160000000  0.4044430000000 1.0
C      1  0.5172920000000  0.4959910000000  0.5208700000000 1.0
C      1  0.4949200000000  0.4981890000000  0.4907250000000 1.0
C      1  0.4959710000000  0.5084100000000  0.5159890000000 1.0
C      1  0.4743500000000  0.4945930000000  0.4734770000000 1.0
END
