TITL C-2441168-9922-503 0.0236399316722094 125000 -13740.5134306448 0 0 99 (C1) n - 1
REM
REM in /home/bkarasulu/work/CARBON/AIRSS/Generating-Clusters/ReaxFF-fromJPCA2015/Units_Real/with-SteepDescent/Higher-Symm
REM
REM
REM
REM
REM
REM ./C.cell (1df0a924f5614ab8850e4351716899ee)
REM
REM compiler GCC version 9.2.1 20190827 (Red Hat 9.2.1-1)
REM options -cpp -mtune=generic -march=x86-64 -g -O0 -fpre-include=/usr/include/finclude/math-vector-fortran.h
REM seed 392357409 1024976324 1062595048 -1017312026 -625604685 340951766 -2020466433 -1781820504 984735256 -308850398 1578020435 -1140597118 -1873844423 1298425775 -1463852171 1558639116 535266918 -1584238223 -1017059256 206468900 -1439490527 -1220883877 -1379673566 -1206964471 1891532930 -1997091774 679638362 -1692400472 123631425 1095005626 -1693890792 -206796152 -626836369
REM
CELL 1.54180   50.00000   50.00000   50.00000   90.00000   90.00000   90.00000
LATT -1
SFAC C  
C      1  0.4085340000000  0.4890570000000  0.5446700000000 1.0
C      1  0.4202010000000  0.4850520000000  0.4352140000000 1.0
C      1  0.5448740000000  0.4905400000000  0.4030730000000 1.0
C      1  0.6050870000000  0.4871190000000  0.5080480000000 1.0
C      1  0.5270580000000  0.4851990000000  0.5998950000000 1.0
C      1  0.4366970000000  0.5441180000000  0.4745210000000 1.0
C      1  0.5084540000000  0.5326680000000  0.4483490000000 1.0
C      1  0.5597540000000  0.5392160000000  0.4741620000000 1.0
C      1  0.5239000000000  0.5257950000000  0.5384940000000 1.0
C      1  0.4728990000000  0.5314100000000  0.5354670000000 1.0
C      1  0.4781340000000  0.5199990000000  0.5083860000000 1.0
C      1  0.4784230000000  0.5035550000000  0.4656990000000 1.0
C      1  0.5049510000000  0.5121100000000  0.4682250000000 1.0
C      1  0.5285320000000  0.5087990000000  0.5104250000000 1.0
C      1  0.4965830000000  0.5149470000000  0.5459630000000 1.0
C      1  0.5242790000000  0.4747570000000  0.5033710000000 1.0
C      1  0.5091380000000  0.4683750000000  0.5272140000000 1.0
C      1  0.4767390000000  0.4919640000000  0.5078660000000 1.0
C      1  0.4815720000000  0.4790820000000  0.4813740000000 1.0
C      1  0.5092620000000  0.4732360000000  0.4785460000000 1.0
C      1  0.4459110000000  0.4719110000000  0.5464060000000 1.0
C      1  0.4363370000000  0.4712500000000  0.4585550000000 1.0
C      1  0.5190710000000  0.4673140000000  0.4246480000000 1.0
C      1  0.5776250000000  0.4725480000000  0.4932810000000 1.0
C      1  0.5315030000000  0.4720370000000  0.5714140000000 1.0
C      1  0.4295570000000  0.5007450000000  0.5021110000000 1.0
C      1  0.4728110000000  0.4936630000000  0.4256550000000 1.0
C      1  0.5568380000000  0.4987900000000  0.4492000000000 1.0
C      1  0.5658530000000  0.4979850000000  0.5382150000000 1.0
C      1  0.4801660000000  0.4921340000000  0.5791140000000 1.0
C      1  0.5696060000000  0.4732530000000  0.5232320000000 1.0
C      1  0.4978090000000  0.4699370000000  0.5748000000000 1.0
C      1  0.4307580000000  0.4763290000000  0.5203440000000 1.0
C      1  0.4598170000000  0.4703210000000  0.4353870000000 1.0
C      1  0.5457740000000  0.4731530000000  0.4387070000000 1.0
C      1  0.4702240000000  0.4436550000000  0.5152080000000 1.0
C      1  0.4728620000000  0.4467040000000  0.4729470000000 1.0
C      1  0.5171910000000  0.4477590000000  0.4657510000000 1.0
C      1  0.5385920000000  0.4470780000000  0.5046630000000 1.0
C      1  0.5107060000000  0.4421290000000  0.5405770000000 1.0
C      1  0.5595430000000  0.4495130000000  0.4845900000000 1.0
C      1  0.5362230000000  0.4477600000000  0.5540350000000 1.0
C      1  0.4645100000000  0.4488290000000  0.5431250000000 1.0
C      1  0.4444010000000  0.4478080000000  0.4774540000000 1.0
C      1  0.5050970000000  0.4460060000000  0.4388940000000 1.0
C      1  0.4963240000000  0.5595360000000  0.4523630000000 1.0
C      1  0.5453260000000  0.5603370000000  0.4889970000000 1.0
C      1  0.5198790000000  0.5536610000000  0.5318730000000 1.0
C      1  0.4791120000000  0.5622980000000  0.5381190000000 1.0
C      1  0.4500180000000  0.5627820000000  0.4937640000000 1.0
C      1  0.5053890000000  0.5662650000000  0.5534900000000 1.0
C      1  0.4522230000000  0.5669080000000  0.5343060000000 1.0
C      1  0.4561470000000  0.5645000000000  0.4640100000000 1.0
C      1  0.5221260000000  0.5718030000000  0.4406500000000 1.0
C      1  0.5604120000000  0.5700390000000  0.5102670000000 1.0
C      1  0.5407100000000  0.5507530000000  0.4309960000000 1.0
C      1  0.5692950000000  0.5493490000000  0.5213140000000 1.0
C      1  0.5077290000000  0.5501460000000  0.5772940000000 1.0
C      1  0.4341020000000  0.5540240000000  0.5164170000000 1.0
C      1  0.4703010000000  0.5478670000000  0.4456380000000 1.0
C      1  0.4305290000000  0.4956800000000  0.4743190000000 1.0
C      1  0.5001920000000  0.4886100000000  0.4173240000000 1.0
C      1  0.5733470000000  0.4951630000000  0.4724540000000 1.0
C      1  0.5482780000000  0.4966520000000  0.5604430000000 1.0
C      1  0.4546770000000  0.4924420000000  0.5651910000000 1.0
C      1  0.5192150000000  0.5333080000000  0.4209950000000 1.0
C      1  0.5807540000000  0.5204670000000  0.4830140000000 1.0
C      1  0.5368300000000  0.5218280000000  0.5667890000000 1.0
C      1  0.4472840000000  0.5215940000000  0.5559290000000 1.0
C      1  0.4119960000000  0.5345620000000  0.4625840000000 1.0
C      1  0.5217140000000  0.5065710000000  0.4061300000000 1.0
C      1  0.5965220000000  0.5148820000000  0.5080690000000 1.0
C      1  0.5220370000000  0.5136050000000  0.5912210000000 1.0
C      1  0.4177990000000  0.5160730000000  0.5439350000000 1.0
C      1  0.4296060000000  0.5112970000000  0.4494840000000 1.0
C      1  0.5460120000000  0.4514030000000  0.4591520000000 1.0
C      1  0.5529580000000  0.4497400000000  0.5304030000000 1.0
C      1  0.4886420000000  0.4471540000000  0.5600590000000 1.0
C      1  0.4438500000000  0.4515980000000  0.5058230000000 1.0
C      1  0.4763520000000  0.4476250000000  0.4434920000000 1.0
C      1  0.4957240000000  0.5184150000000  0.5770980000000 1.0
C      1  0.4236570000000  0.5253880000000  0.5166690000000 1.0
C      1  0.4632910000000  0.5173990000000  0.4446630000000 1.0
C      1  0.5520530000000  0.5283890000000  0.4485400000000 1.0
C      1  0.5786130000000  0.5240610000000  0.5298260000000 1.0
C      1  0.5004310000000  0.3145050000000  0.4996230000000 1.0
C      1  0.4964610000000  0.6310250000000  0.4979340000000 1.0
C      1  0.5050880000000  0.5242540000000  0.4962120000000 1.0
C      1  0.5006630000000  0.4131000000000  0.5000850000000 1.0
C      1  0.4965320000000  0.6046530000000  0.4971140000000 1.0
C      1  0.5015290000000  0.6806420000000  0.5002260000000 1.0
C      1  0.4901170000000  0.4885630000000  0.5324460000000 1.0
C      1  0.5015230000000  0.3387650000000  0.4993740000000 1.0
C      1  0.5032490000000  0.3881060000000  0.4991620000000 1.0
C      1  0.5019850000000  0.5820390000000  0.4980850000000 1.0
C      1  0.4979220000000  0.4386250000000  0.5010450000000 1.0
C      1  0.5156730000000  0.5565780000000  0.5021980000000 1.0
C      1  0.4988430000000  0.6563970000000  0.4991050000000 1.0
C      1  0.5027420000000  0.3645990000000  0.4991610000000 1.0
END
