TITL C-2441164-471-927 0.0567911943458602 125000 -16752.0566946647 0 0 119 (C1) n - 1
REM
REM in /home/bkarasulu/work/CARBON/AIRSS/Generating-Clusters/ReaxFF-fromJPCA2015/Units_Real/with-SteepDescent/Higher-Symm
REM
REM
REM
REM
REM
REM ./C.cell (1df0a924f5614ab8850e4351716899ee)
REM
REM compiler GCC version 9.2.1 20190827 (Red Hat 9.2.1-1)
REM options -cpp -mtune=generic -march=x86-64 -g -O0 -fpre-include=/usr/include/finclude/math-vector-fortran.h
REM seed 147886610 1520185549 305412155 -1938631512 1082764402 -1200038970 -1841322044 -860046978 1693224421 1007810458 386039900 -924473729 1498147166 -1482093089 296418539 -1085522067 -705063150 785052964 -1755822579 1648614441 171871903 1582049870 -1343444265 950483544 -64403459 1389007342 -737096477 161555797 992885740 -490126942 1610370426 -726525048 -1145568300
REM
CELL 1.54180   50.00000   50.00000   50.00000   90.00000   90.00000   90.00000
LATT -1
SFAC C  
C      1  0.4539530000000  0.5159120000000  0.4867980000000 1.0
C      1  0.4631240000000  0.4786360000000  0.5229330000000 1.0
C      1  0.5410040000000  0.5193360000000  0.5132120000000 1.0
C      1  0.5391740000000  0.4797320000000  0.4876370000000 1.0
C      1  0.5213230000000  0.4440010000000  0.5467890000000 1.0
C      1  0.5200880000000  0.5538020000000  0.4553060000000 1.0
C      1  0.4817890000000  0.4411730000000  0.4548650000000 1.0
C      1  0.4804910000000  0.5486750000000  0.5405650000000 1.0
C      1  0.4575700000000  0.4360040000000  0.4712730000000 1.0
C      1  0.4577500000000  0.5621810000000  0.5303960000000 1.0
C      1  0.5447560000000  0.4431490000000  0.5281230000000 1.0
C      1  0.5466700000000  0.5568350000000  0.4729270000000 1.0
C      1  0.5556720000000  0.4675670000000  0.5067070000000 1.0
C      1  0.5567480000000  0.5351300000000  0.4953610000000 1.0
C      1  0.4506530000000  0.4720330000000  0.4973010000000 1.0
C      1  0.4261980000000  0.5171280000000  0.4997730000000 1.0
C      1  0.5291030000000  0.5909340000000  0.4975930000000 1.0
C      1  0.5043280000000  0.4090530000000  0.4844640000000 1.0
C      1  0.4755160000000  0.5892660000000  0.4989610000000 1.0
C      1  0.4811430000000  0.4039140000000  0.4970200000000 1.0
C      1  0.4501290000000  0.4253760000000  0.5202130000000 1.0
C      1  0.4557630000000  0.5772300000000  0.4808270000000 1.0
C      1  0.5514290000000  0.4231080000000  0.4822660000000 1.0
C      1  0.5413710000000  0.5771010000000  0.5208980000000 1.0
C      1  0.5056630000000  0.4242670000000  0.4608370000000 1.0
C      1  0.4958340000000  0.5722590000000  0.5430850000000 1.0
C      1  0.4981330000000  0.4304900000000  0.5366270000000 1.0
C      1  0.4987080000000  0.5738140000000  0.4609970000000 1.0
C      1  0.4424740000000  0.4617920000000  0.4349990000000 1.0
C      1  0.4421320000000  0.5384870000000  0.5685980000000 1.0
C      1  0.5599360000000  0.4641190000000  0.5664980000000 1.0
C      1  0.5594140000000  0.5371620000000  0.4348080000000 1.0
C      1  0.5696720000000  0.5469760000000  0.5437690000000 1.0
C      1  0.5739120000000  0.4546220000000  0.4547950000000 1.0
C      1  0.4284130000000  0.5493380000000  0.4545170000000 1.0
C      1  0.4269500000000  0.4531590000000  0.5476860000000 1.0
C      1  0.5459250000000  0.4952810000000  0.4611360000000 1.0
C      1  0.5469200000000  0.5051890000000  0.5404860000000 1.0
C      1  0.4534480000000  0.4956680000000  0.5446480000000 1.0
C      1  0.4537950000000  0.5046800000000  0.4600390000000 1.0
C      1  0.4949940000000  0.4845750000000  0.5464150000000 1.0
C      1  0.4948460000000  0.5114790000000  0.4555600000000 1.0
C      1  0.5071390000000  0.4870180000000  0.4528020000000 1.0
C      1  0.5051660000000  0.5100620000000  0.5423390000000 1.0
C      1  0.4953250000000  0.5325180000000  0.4149280000000 1.0
C      1  0.4952130000000  0.4660060000000  0.5872510000000 1.0
C      1  0.5032380000000  0.5384930000000  0.5857750000000 1.0
C      1  0.5057300000000  0.4668300000000  0.4152680000000 1.0
C      1  0.5689180000000  0.5657950000000  0.5213320000000 1.0
C      1  0.5772530000000  0.4382190000000  0.4786580000000 1.0
C      1  0.4300080000000  0.5632470000000  0.4815780000000 1.0
C      1  0.4247890000000  0.4395380000000  0.5214200000000 1.0
C      1  0.4130430000000  0.5467110000000  0.5312290000000 1.0
C      1  0.4122970000000  0.4573100000000  0.4718290000000 1.0
C      1  0.5902350000000  0.5476070000000  0.4718870000000 1.0
C      1  0.5907400000000  0.4541090000000  0.5303040000000 1.0
C      1  0.4682130000000  0.5338220000000  0.4215930000000 1.0
C      1  0.4682310000000  0.4650820000000  0.5796910000000 1.0
C      1  0.5291020000000  0.5350570000000  0.5763710000000 1.0
C      1  0.5330230000000  0.4656210000000  0.4212620000000 1.0
C      1  0.4745830000000  0.5862640000000  0.5279310000000 1.0
C      1  0.4583690000000  0.4186170000000  0.4935940000000 1.0
C      1  0.5507950000000  0.5876450000000  0.4779100000000 1.0
C      1  0.5447920000000  0.4173990000000  0.5094580000000 1.0
C      1  0.5262150000000  0.5064450000000  0.5628490000000 1.0
C      1  0.5299610000000  0.4934440000000  0.4351720000000 1.0
C      1  0.4729520000000  0.5066140000000  0.4368760000000 1.0
C      1  0.4737030000000  0.4925750000000  0.5656240000000 1.0
C      1  0.5322460000000  0.5437850000000  0.4269320000000 1.0
C      1  0.5315860000000  0.4563750000000  0.5721840000000 1.0
C      1  0.4659210000000  0.5398640000000  0.5835760000000 1.0
C      1  0.4692120000000  0.4548790000000  0.4268010000000 1.0
C      1  0.4928700000000  0.4709520000000  0.5223900000000 1.0
C      1  0.5093660000000  0.5305210000000  0.4709630000000 1.0
C      1  0.4937720000000  0.4660210000000  0.4662620000000 1.0
C      1  0.4896170000000  0.5281420000000  0.5271590000000 1.0
C      1  0.4242650000000  0.4579550000000  0.4980250000000 1.0
C      1  0.4188060000000  0.5468360000000  0.5029530000000 1.0
C      1  0.5815310000000  0.4550380000000  0.5025440000000 1.0
C      1  0.5813460000000  0.5496860000000  0.4996820000000 1.0
C      1  0.4344080000000  0.4882060000000  0.4462830000000 1.0
C      1  0.4334750000000  0.5127810000000  0.5556110000000 1.0
C      1  0.5679690000000  0.4894610000000  0.5527560000000 1.0
C      1  0.5660790000000  0.5122520000000  0.4500580000000 1.0
C      1  0.4340660000000  0.4444270000000  0.4571110000000 1.0
C      1  0.4344820000000  0.5576010000000  0.5471830000000 1.0
C      1  0.5691330000000  0.4450030000000  0.5473120000000 1.0
C      1  0.5698010000000  0.5574810000000  0.4534240000000 1.0
C      1  0.5928320000000  0.4830480000000  0.5366890000000 1.0
C      1  0.5915750000000  0.5188720000000  0.4649180000000 1.0
C      1  0.4090460000000  0.4847870000000  0.4605860000000 1.0
C      1  0.4088030000000  0.5183710000000  0.5410580000000 1.0
C      1  0.4704020000000  0.5688640000000  0.4570000000000 1.0
C      1  0.4687310000000  0.4327460000000  0.5414450000000 1.0
C      1  0.5254190000000  0.5698080000000  0.5432900000000 1.0
C      1  0.5326130000000  0.4325080000000  0.4593190000000 1.0
C      1  0.4143540000000  0.5262180000000  0.4607390000000 1.0
C      1  0.4160100000000  0.4772050000000  0.5376090000000 1.0
C      1  0.5848090000000  0.5239300000000  0.5340150000000 1.0
C      1  0.5872410000000  0.4772750000000  0.4664650000000 1.0
C      1  0.4091520000000  0.4980170000000  0.5202680000000 1.0
C      1  0.4043730000000  0.5078540000000  0.4785520000000 1.0
C      1  0.5950740000000  0.4977480000000  0.4844120000000 1.0
C      1  0.5948390000000  0.5036230000000  0.5164350000000 1.0
C      1  0.5433360000000  0.5521110000000  0.5577470000000 1.0
C      1  0.5467120000000  0.4495840000000  0.4416930000000 1.0
C      1  0.4546260000000  0.5520800000000  0.4397470000000 1.0
C      1  0.4541120000000  0.4479860000000  0.5606380000000 1.0
C      1  0.5158820000000  0.4790270000000  0.5062210000000 1.0
C      1  0.5193140000000  0.5183070000000  0.4938930000000 1.0
C      1  0.4756840000000  0.4774920000000  0.4835110000000 1.0
C      1  0.4766900000000  0.5185520000000  0.5039820000000 1.0
C      1  0.4830090000000  0.5191580000000  0.5849190000000 1.0
C      1  0.4814720000000  0.4791830000000  0.4187040000000 1.0
C      1  0.5196980000000  0.5202330000000  0.4170620000000 1.0
C      1  0.5182740000000  0.4800510000000  0.5823010000000 1.0
C      1  0.5014200000000  0.5867860000000  0.4860720000000 1.0
C      1  0.5018360000000  0.4146920000000  0.5125790000000 1.0
C      1  0.4968100000000  0.4998010000000  0.4958630000000 1.0
END
