TITL C-2441158-471-1262 0.00376961368132484 125000 -5267.48778952855 0 0 38 (D2h) n - 1
REM
REM in /home/bkarasulu/work/CARBON/AIRSS/Generating-Clusters/ReaxFF-fromJPCA2015/Units_Real/with-SteepDescent/Higher-Symm
REM
REM
REM
REM
REM
REM ./C.cell (1df0a924f5614ab8850e4351716899ee)
REM
REM compiler GCC version 9.2.1 20190827 (Red Hat 9.2.1-1)
REM options -cpp -mtune=generic -march=x86-64 -g -O0 -fpre-include=/usr/include/finclude/math-vector-fortran.h
REM seed -1921339617 -242373221 -1298960419 -1357719400 -1948637718 608763064 1599574131 91770845 1030657318 871723989 1420490477 -1405555430 807889997 -1531007292 -1752504599 229709421 -1049280482 137117418 1774684758 174210045 -1258385942 940983314 -641495360 1401588144 -1664552505 534687840 -982922783 851751337 828702017 195440350 -1879083296 2055286239 -956993796
REM
CELL 1.54180   50.00000   50.00000   50.00000   90.00000   90.00000   90.00000
LATT -1
SFAC C  
C      1  0.5131870000000  0.4368720000000  0.4712770000000 1.0
C      1  0.5131680000000  0.5631280000000  0.5287270000000 1.0
C      1  0.4835720000000  0.4368810000000  0.4712740000000 1.0
C      1  0.4835530000000  0.5631210000000  0.5287220000000 1.0
C      1  0.5131680000000  0.5631280000000  0.4712730000000 1.0
C      1  0.5131880000000  0.4368730000000  0.5287230000000 1.0
C      1  0.4835530000000  0.5631210000000  0.4712780000000 1.0
C      1  0.4835720000000  0.4368810000000  0.5287260000000 1.0
C      1  0.5341690000000  0.4845520000000  0.4520070000000 1.0
C      1  0.5341490000000  0.5154510000000  0.5480160000000 1.0
C      1  0.4626150000000  0.4845520000000  0.4519510000000 1.0
C      1  0.4625880000000  0.5154500000000  0.5480160000000 1.0
C      1  0.5341490000000  0.5154510000000  0.4519840000000 1.0
C      1  0.5341690000000  0.4845520000000  0.5479930000000 1.0
C      1  0.4625880000000  0.5154490000000  0.4519840000000 1.0
C      1  0.4626150000000  0.4845520000000  0.5480490000000 1.0
C      1  0.4353210000000  0.5245830000000  0.5422600000000 1.0
C      1  0.4353330000000  0.4754560000000  0.4577000000000 1.0
C      1  0.5614270000000  0.5245460000000  0.5422700000000 1.0
C      1  0.5614460000000  0.4754210000000  0.4577420000000 1.0
C      1  0.4353330000000  0.4754560000000  0.5423000000000 1.0
C      1  0.4353210000000  0.5245820000000  0.4577390000000 1.0
C      1  0.5614460000000  0.4754210000000  0.5422580000000 1.0
C      1  0.5614270000000  0.5245460000000  0.4577290000000 1.0
C      1  0.5122410000000  0.5337120000000  0.5405040000000 1.0
C      1  0.5122620000000  0.4662890000000  0.4595000000000 1.0
C      1  0.4844940000000  0.5337080000000  0.5405050000000 1.0
C      1  0.4845150000000  0.4662940000000  0.4594930000000 1.0
C      1  0.5122620000000  0.4662890000000  0.5405000000000 1.0
C      1  0.5122410000000  0.5337120000000  0.4594970000000 1.0
C      1  0.4845150000000  0.4662950000000  0.5405060000000 1.0
C      1  0.4844940000000  0.5337070000000  0.4594960000000 1.0
C      1  0.5733890000000  0.4999900000000  0.4724440000000 1.0
C      1  0.5733880000000  0.4999900000000  0.5275550000000 1.0
C      1  0.4233890000000  0.4999990000000  0.4724420000000 1.0
C      1  0.4233890000000  0.5000000000000  0.5275580000000 1.0
C      1  0.4233890000000  0.4999990000000  0.5000000000000 1.0
C      1  0.5733880000000  0.4999900000000  0.5000000000000 1.0
END
