TITL C-2441156-4686-614 0.00934680348268421 125000 -10839.5656824104 0 0 76 (C1) n - 1
REM
REM in /home/bkarasulu/work/CARBON/AIRSS/Generating-Clusters/ReaxFF-fromJPCA2015/Units_Real/with-SteepDescent/Higher-Symm
REM
REM
REM
REM
REM
REM ./C.cell (1df0a924f5614ab8850e4351716899ee)
REM
REM compiler GCC version 9.2.1 20190827 (Red Hat 9.2.1-1)
REM options -cpp -mtune=generic -march=x86-64 -g -O0 -fpre-include=/usr/include/finclude/math-vector-fortran.h
REM seed -2097401269 711135094 1270037151 1694353222 -649065602 -1361958221 -1772317411 -643110297 -1354712634 -440311974 954893666 1432641793 1339553954 -1301900104 -1346683352 1965307294 1583526567 288488378 -1051371435 -42754872 2113365239 1005463394 580413351 -1071433922 -257388604 -1159066807 1411804740 543619287 1995165792 -2067819862 -1564366742 -1903742830 2042875899
REM
CELL 1.54180   50.00000   50.00000   50.00000   90.00000   90.00000   90.00000
LATT -1
SFAC C  
C      1  0.4437930000000  0.4448460000000  0.4907110000000 1.0
C      1  0.5334530000000  0.5395360000000  0.4399160000000 1.0
C      1  0.4953280000000  0.5284960000000  0.5379360000000 1.0
C      1  0.5125000000000  0.4649030000000  0.4338530000000 1.0
C      1  0.4715690000000  0.4828850000000  0.4867590000000 1.0
C      1  0.5015700000000  0.4433890000000  0.5430990000000 1.0
C      1  0.4809920000000  0.4996020000000  0.5682980000000 1.0
C      1  0.4223520000000  0.4642110000000  0.4887110000000 1.0
C      1  0.4897920000000  0.5113230000000  0.4320910000000 1.0
C      1  0.5081400000000  0.5779680000000  0.5079150000000 1.0
C      1  0.4610010000000  0.4568600000000  0.4437140000000 1.0
C      1  0.5639040000000  0.5153130000000  0.4859920000000 1.0
C      1  0.5168130000000  0.4692200000000  0.4883790000000 1.0
C      1  0.5550460000000  0.4734170000000  0.5005500000000 1.0
C      1  0.5567420000000  0.4954620000000  0.5551120000000 1.0
C      1  0.5493880000000  0.4902400000000  0.4481040000000 1.0
C      1  0.5353720000000  0.4485600000000  0.4704750000000 1.0
C      1  0.4750300000000  0.4547100000000  0.5385540000000 1.0
C      1  0.4897790000000  0.4375640000000  0.4695450000000 1.0
C      1  0.5290090000000  0.4857560000000  0.5617260000000 1.0
C      1  0.4588670000000  0.5742330000000  0.4848600000000 1.0
C      1  0.5281010000000  0.4217350000000  0.5075570000000 1.0
C      1  0.4380750000000  0.4922230000000  0.5462120000000 1.0
C      1  0.5846270000000  0.4954490000000  0.5232690000000 1.0
C      1  0.4590420000000  0.4385760000000  0.4665400000000 1.0
C      1  0.4806120000000  0.5506750000000  0.5422610000000 1.0
C      1  0.4607270000000  0.5317630000000  0.4520990000000 1.0
C      1  0.4866680000000  0.5450610000000  0.4620120000000 1.0
C      1  0.5764630000000  0.4769880000000  0.5415500000000 1.0
C      1  0.4527640000000  0.4981050000000  0.5029820000000 1.0
C      1  0.4411000000000  0.4831900000000  0.5245240000000 1.0
C      1  0.4323430000000  0.5083360000000  0.4839310000000 1.0
C      1  0.5566790000000  0.5244000000000  0.5522490000000 1.0
C      1  0.5308780000000  0.5111770000000  0.4362580000000 1.0
C      1  0.5522940000000  0.4324830000000  0.5208700000000 1.0
C      1  0.4882180000000  0.5350490000000  0.4913510000000 1.0
C      1  0.5700620000000  0.4560070000000  0.5194210000000 1.0
C      1  0.5149810000000  0.5332050000000  0.5041710000000 1.0
C      1  0.4896550000000  0.4493520000000  0.4398500000000 1.0
C      1  0.4228980000000  0.4701370000000  0.5165660000000 1.0
C      1  0.4823600000000  0.5740070000000  0.4683400000000 1.0
C      1  0.5570780000000  0.5616340000000  0.5175060000000 1.0
C      1  0.5080170000000  0.4943480000000  0.4465310000000 1.0
C      1  0.5104860000000  0.5068780000000  0.5705870000000 1.0
C      1  0.4416860000000  0.5335670000000  0.4738830000000 1.0
C      1  0.5622250000000  0.4891140000000  0.4745400000000 1.0
C      1  0.5333970000000  0.5196950000000  0.4863240000000 1.0
C      1  0.5693760000000  0.5391600000000  0.5285730000000 1.0
C      1  0.4842100000000  0.5720600000000  0.5234930000000 1.0
C      1  0.4858710000000  0.5050490000000  0.5246070000000 1.0
C      1  0.5223460000000  0.4649270000000  0.5415520000000 1.0
C      1  0.4908320000000  0.5031220000000  0.4946320000000 1.0
C      1  0.5294240000000  0.5278120000000  0.5613370000000 1.0
C      1  0.4789230000000  0.4200890000000  0.5169200000000 1.0
C      1  0.4536930000000  0.5095700000000  0.5620710000000 1.0
C      1  0.4540610000000  0.5398010000000  0.5495860000000 1.0
C      1  0.5391240000000  0.4624750000000  0.4450660000000 1.0
C      1  0.5214700000000  0.5410620000000  0.4613310000000 1.0
C      1  0.4474420000000  0.4825930000000  0.4457780000000 1.0
C      1  0.4568840000000  0.5475700000000  0.4945970000000 1.0
C      1  0.4895570000000  0.4614240000000  0.4864930000000 1.0
C      1  0.5195990000000  0.4274510000000  0.4800570000000 1.0
C      1  0.4619560000000  0.5077570000000  0.4349430000000 1.0
C      1  0.4803860000000  0.4837450000000  0.5433860000000 1.0
C      1  0.4369510000000  0.5555790000000  0.5346830000000 1.0
C      1  0.5049120000000  0.4186570000000  0.5269850000000 1.0
C      1  0.4598900000000  0.4395920000000  0.5168670000000 1.0
C      1  0.4567110000000  0.5731240000000  0.5134890000000 1.0
C      1  0.5304410000000  0.4742050000000  0.5153180000000 1.0
C      1  0.5311300000000  0.5678900000000  0.5223390000000 1.0
C      1  0.5286100000000  0.5653430000000  0.4617810000000 1.0
C      1  0.4280220000000  0.4848530000000  0.4672650000000 1.0
C      1  0.5149760000000  0.4965420000000  0.4797570000000 1.0
C      1  0.5816910000000  0.5196590000000  0.5089740000000 1.0
C      1  0.5203580000000  0.5382120000000  0.5322980000000 1.0
C      1  0.5092750000000  0.5790290000000  0.4781410000000 1.0
END
