TITL C-2441160-1326-772 0.139558835544814 125000 -17184.8256848931 0 0 146 (C1) n - 1
REM
REM in /home/bkarasulu/work/CARBON/AIRSS/Generating-Clusters/ReaxFF-fromJPCA2015/Units_Real/with-SteepDescent/Higher-Symm
REM
REM
REM
REM
REM
REM ./C.cell (1df0a924f5614ab8850e4351716899ee)
REM
REM compiler GCC version 9.2.1 20190827 (Red Hat 9.2.1-1)
REM options -cpp -mtune=generic -march=x86-64 -g -O0 -fpre-include=/usr/include/finclude/math-vector-fortran.h
REM seed -170818426 195619155 95047089 1470652550 -969072953 2005673174 -25909514 164965157 1678540485 837118712 1060818507 609967493 -1363070358 -661798199 -1893338610 -1465610425 1191637176 -781258458 318533502 264955427 829776796 1156015549 -691906138 611082978 549420854 694112945 -789927209 1827541799 -340758541 -1358868864 1009953940 -989844530 -1189113224
REM
CELL 1.54180   50.00000   50.00000   50.00000   90.00000   90.00000   90.00000
LATT -1
SFAC C  
C      1  0.4144090000000  0.4748430000000  0.4744770000000 1.0
C      1  0.4137960000000  0.5218710000000  0.4874740000000 1.0
C      1  0.4151250000000  0.4904220000000  0.5288250000000 1.0
C      1  0.5805030000000  0.4763800000000  0.4778290000000 1.0
C      1  0.5832340000000  0.5251360000000  0.4905270000000 1.0
C      1  0.5899390000000  0.5017550000000  0.5238280000000 1.0
C      1  0.4069460000000  0.4775850000000  0.5036980000000 1.0
C      1  0.4149150000000  0.5388200000000  0.5087380000000 1.0
C      1  0.4129680000000  0.5016990000000  0.4691890000000 1.0
C      1  0.5834830000000  0.4746190000000  0.5215720000000 1.0
C      1  0.5900220000000  0.5285150000000  0.5196010000000 1.0
C      1  0.5889020000000  0.5034320000000  0.4711770000000 1.0
C      1  0.4661250000000  0.4043520000000  0.4836500000000 1.0
C      1  0.4651830000000  0.5628480000000  0.4235150000000 1.0
C      1  0.4638920000000  0.5343110000000  0.5912540000000 1.0
C      1  0.5344180000000  0.4032990000000  0.4854060000000 1.0
C      1  0.5327990000000  0.5608950000000  0.4233860000000 1.0
C      1  0.5314860000000  0.5334930000000  0.5902080000000 1.0
C      1  0.4648540000000  0.4039850000000  0.5150510000000 1.0
C      1  0.4662920000000  0.5612340000000  0.5763600000000 1.0
C      1  0.4642340000000  0.5354080000000  0.4082430000000 1.0
C      1  0.5322420000000  0.4045530000000  0.5155870000000 1.0
C      1  0.5337950000000  0.5611510000000  0.5766610000000 1.0
C      1  0.5318830000000  0.5334250000000  0.4096080000000 1.0
C      1  0.5147530000000  0.5480900000000  0.4434160000000 1.0
C      1  0.5121150000000  0.5235890000000  0.5708030000000 1.0
C      1  0.5157280000000  0.4262440000000  0.4863910000000 1.0
C      1  0.4864910000000  0.5531420000000  0.4404070000000 1.0
C      1  0.4830020000000  0.5263610000000  0.5704780000000 1.0
C      1  0.4868840000000  0.4250430000000  0.4838620000000 1.0
C      1  0.5154330000000  0.5482730000000  0.5571720000000 1.0
C      1  0.5124380000000  0.5234500000000  0.4288030000000 1.0
C      1  0.5125080000000  0.4262890000000  0.5141960000000 1.0
C      1  0.4866970000000  0.5514820000000  0.5578340000000 1.0
C      1  0.4839470000000  0.5285940000000  0.4285070000000 1.0
C      1  0.4847490000000  0.4247240000000  0.5117000000000 1.0
C      1  0.4462520000000  0.5141340000000  0.4488510000000 1.0
C      1  0.4437340000000  0.5392410000000  0.5384420000000 1.0
C      1  0.4449260000000  0.4469150000000  0.5147070000000 1.0
C      1  0.5516680000000  0.5133130000000  0.4477910000000 1.0
C      1  0.5486840000000  0.5485380000000  0.5384230000000 1.0
C      1  0.5547210000000  0.4408260000000  0.5118150000000 1.0
C      1  0.4467330000000  0.5219300000000  0.5578440000000 1.0
C      1  0.4454170000000  0.5393080000000  0.4607240000000 1.0
C      1  0.4427010000000  0.4440370000000  0.4872180000000 1.0
C      1  0.5634070000000  0.5080990000000  0.5579410000000 1.0
C      1  0.5510690000000  0.5400430000000  0.4566130000000 1.0
C      1  0.5485340000000  0.4444410000000  0.4852110000000 1.0
C      1  0.5226500000000  0.4778750000000  0.4320670000000 1.0
C      1  0.5148300000000  0.5719790000000  0.5121080000000 1.0
C      1  0.5211450000000  0.4537360000000  0.5498280000000 1.0
C      1  0.4811020000000  0.4810250000000  0.4357350000000 1.0
C      1  0.4822140000000  0.5707690000000  0.5135300000000 1.0
C      1  0.4819470000000  0.4547730000000  0.5475850000000 1.0
C      1  0.5189890000000  0.4793790000000  0.5642830000000 1.0
C      1  0.5161570000000  0.5734940000000  0.4871580000000 1.0
C      1  0.5157620000000  0.4519730000000  0.4423340000000 1.0
C      1  0.4794970000000  0.4796420000000  0.5628320000000 1.0
C      1  0.4828920000000  0.5693330000000  0.4852640000000 1.0
C      1  0.4825040000000  0.4537030000000  0.4446600000000 1.0
C      1  0.5469260000000  0.4669750000000  0.5175860000000 1.0
C      1  0.5351210000000  0.4914860000000  0.4567430000000 1.0
C      1  0.5405950000000  0.5311620000000  0.5181950000000 1.0
C      1  0.4533340000000  0.4709650000000  0.5183920000000 1.0
C      1  0.4581800000000  0.4954440000000  0.4678070000000 1.0
C      1  0.4610010000000  0.5325770000000  0.5149160000000 1.0
C      1  0.5398150000000  0.4711560000000  0.4800760000000 1.0
C      1  0.5457090000000  0.5093470000000  0.5352690000000 1.0
C      1  0.5559040000000  0.5366150000000  0.4871790000000 1.0
C      1  0.4616370000000  0.4682610000000  0.4770120000000 1.0
C      1  0.4545170000000  0.5027280000000  0.5418200000000 1.0
C      1  0.4602700000000  0.5344210000000  0.4858910000000 1.0
C      1  0.4857120000000  0.5011800000000  0.4591710000000 1.0
C      1  0.4869220000000  0.5217560000000  0.5246770000000 1.0
C      1  0.4784250000000  0.4656620000000  0.5200980000000 1.0
C      1  0.5116910000000  0.4986670000000  0.4731490000000 1.0
C      1  0.5128870000000  0.5255390000000  0.5130900000000 1.0
C      1  0.5201200000000  0.4715100000000  0.5235770000000 1.0
C      1  0.4805040000000  0.4993340000000  0.5410230000000 1.0
C      1  0.4860960000000  0.5305520000000  0.4750820000000 1.0
C      1  0.4859370000000  0.4664090000000  0.4926730000000 1.0
C      1  0.5222780000000  0.4956490000000  0.5382060000000 1.0
C      1  0.5103870000000  0.5240730000000  0.4856730000000 1.0
C      1  0.5129130000000  0.4749660000000  0.4904050000000 1.0
C      1  0.5819020000000  0.5296110000000  0.5689050000000 1.0
C      1  0.5781310000000  0.4309400000000  0.4809790000000 1.0
C      1  0.5764640000000  0.5446590000000  0.4425850000000 1.0
C      1  0.4175570000000  0.5274090000000  0.5692610000000 1.0
C      1  0.4177440000000  0.4315780000000  0.4919830000000 1.0
C      1  0.4171940000000  0.5476290000000  0.4500850000000 1.0
C      1  0.5805220000000  0.5098960000000  0.4431650000000 1.0
C      1  0.5822880000000  0.4264650000000  0.5099720000000 1.0
C      1  0.5786640000000  0.5455170000000  0.5437580000000 1.0
C      1  0.4171280000000  0.5212380000000  0.4350630000000 1.0
C      1  0.4186820000000  0.4364570000000  0.5189450000000 1.0
C      1  0.4161990000000  0.5437770000000  0.5453190000000 1.0
C      1  0.4306930000000  0.5675010000000  0.4843720000000 1.0
C      1  0.4264010000000  0.4792980000000  0.5562740000000 1.0
C      1  0.4300190000000  0.4561990000000  0.4507340000000 1.0
C      1  0.5657230000000  0.5662230000000  0.4851080000000 1.0
C      1  0.5662640000000  0.4800430000000  0.5674720000000 1.0
C      1  0.5687130000000  0.4615370000000  0.4538260000000 1.0
C      1  0.4281380000000  0.5647400000000  0.5122390000000 1.0
C      1  0.4300640000000  0.4805580000000  0.4365620000000 1.0
C      1  0.4319290000000  0.4528490000000  0.5507860000000 1.0
C      1  0.5699260000000  0.5689420000000  0.5127420000000 1.0
C      1  0.5707580000000  0.4809400000000  0.4329030000000 1.0
C      1  0.5713450000000  0.4610760000000  0.5466940000000 1.0
C      1  0.4577830000000  0.5811450000000  0.5548110000000 1.0
C      1  0.4604560000000  0.4112020000000  0.5431980000000 1.0
C      1  0.4591600000000  0.5073370000000  0.4015840000000 1.0
C      1  0.5374940000000  0.5823910000000  0.5569040000000 1.0
C      1  0.5402320000000  0.4139050000000  0.5434920000000 1.0
C      1  0.5400480000000  0.5064940000000  0.3989170000000 1.0
C      1  0.4582640000000  0.5829450000000  0.4446770000000 1.0
C      1  0.4582790000000  0.4119150000000  0.4555590000000 1.0
C      1  0.4587580000000  0.5040940000000  0.5938930000000 1.0
C      1  0.5388270000000  0.5821290000000  0.4431300000000 1.0
C      1  0.5384460000000  0.4130850000000  0.4570930000000 1.0
C      1  0.5387220000000  0.5060970000000  0.5999200000000 1.0
C      1  0.5138700000000  0.4097250000000  0.5521660000000 1.0
C      1  0.5133550000000  0.4986540000000  0.3948390000000 1.0
C      1  0.5109510000000  0.5896530000000  0.5557710000000 1.0
C      1  0.4871410000000  0.4097840000000  0.5515000000000 1.0
C      1  0.4859900000000  0.5002600000000  0.3966500000000 1.0
C      1  0.4842130000000  0.5914660000000  0.5535620000000 1.0
C      1  0.5123200000000  0.4103030000000  0.4462810000000 1.0
C      1  0.5117610000000  0.5003010000000  0.6061960000000 1.0
C      1  0.5121560000000  0.5911430000000  0.4456870000000 1.0
C      1  0.4847480000000  0.4089400000000  0.4458600000000 1.0
C      1  0.4850100000000  0.5008380000000  0.6030200000000 1.0
C      1  0.4849940000000  0.5920150000000  0.4469800000000 1.0
C      1  0.5440800000000  0.5747650000000  0.5279380000000 1.0
C      1  0.5483730000000  0.4419170000000  0.5512080000000 1.0
C      1  0.5466550000000  0.4828840000000  0.4152880000000 1.0
C      1  0.4565410000000  0.5752370000000  0.5265100000000 1.0
C      1  0.4568880000000  0.4389170000000  0.5543390000000 1.0
C      1  0.4550830000000  0.4851520000000  0.4211560000000 1.0
C      1  0.5417820000000  0.5782990000000  0.4722870000000 1.0
C      1  0.5422140000000  0.4405310000000  0.4466590000000 1.0
C      1  0.5415720000000  0.4816680000000  0.5837410000000 1.0
C      1  0.4557070000000  0.5774870000000  0.4736520000000 1.0
C      1  0.4559140000000  0.4398170000000  0.4465580000000 1.0
C      1  0.4507440000000  0.4821580000000  0.5740550000000 1.0
C      1  0.4415070000000  0.4970640000000  0.5169920000000 1.0
C      1  0.5599590000000  0.4847650000000  0.4989240000000 1.0
END
