TITL C-2441166-8118-1283 -0.00150511331442458 125000 -5963.40255772664 0 0 40 (C1) n - 1
REM
REM in /home/bkarasulu/work/CARBON/AIRSS/Generating-Clusters/ReaxFF-fromJPCA2015/Units_Real/with-SteepDescent/Higher-Symm
REM
REM
REM
REM
REM
REM ./C.cell (1df0a924f5614ab8850e4351716899ee)
REM
REM compiler GCC version 9.2.1 20190827 (Red Hat 9.2.1-1)
REM options -cpp -mtune=generic -march=x86-64 -g -O0 -fpre-include=/usr/include/finclude/math-vector-fortran.h
REM seed 992137461 845963882 -1415463949 290090418 -813921970 495631695 1023453154 -433456595 -949865284 956372777 754610017 -512891056 -907631517 426441182 1995746320 639949082 1182122022 1668569554 1395538558 1270906242 188534741 1423177002 256812888 1228370102 711682708 -1044320621 1460599805 -259756158 -1098876410 561164112 1008377689 -583178389 2090023768
REM
CELL 1.54180   50.00000   50.00000   50.00000   90.00000   90.00000   90.00000
LATT -1
SFAC C  
C      1  0.5838560000000  0.4793610000000  0.4854810000000 1.0
C      1  0.4212310000000  0.4739800000000  0.4991250000000 1.0
C      1  0.5794170000000  0.4816280000000  0.5158850000000 1.0
C      1  0.4155230000000  0.4911070000000  0.5234850000000 1.0
C      1  0.5737420000000  0.5097170000000  0.5255200000000 1.0
C      1  0.4180760000000  0.5207490000000  0.5148920000000 1.0
C      1  0.5782270000000  0.5266950000000  0.4998610000000 1.0
C      1  0.4205290000000  0.5190950000000  0.4841170000000 1.0
C      1  0.5829340000000  0.5086890000000  0.4757240000000 1.0
C      1  0.4260880000000  0.4911960000000  0.4738330000000 1.0
C      1  0.4459340000000  0.4663350000000  0.5065700000000 1.0
C      1  0.5542480000000  0.4726940000000  0.5229200000000 1.0
C      1  0.4361820000000  0.4944980000000  0.5425250000000 1.0
C      1  0.5466370000000  0.5133140000000  0.5318980000000 1.0
C      1  0.4415670000000  0.5316900000000  0.5251020000000 1.0
C      1  0.5541220000000  0.5355190000000  0.4914550000000 1.0
C      1  0.4454750000000  0.5285390000000  0.4771670000000 1.0
C      1  0.5608750000000  0.5028740000000  0.4591810000000 1.0
C      1  0.4531910000000  0.4884890000000  0.4665510000000 1.0
C      1  0.5621020000000  0.4650560000000  0.4757240000000 1.0
C      1  0.5273330000000  0.5404640000000  0.4860970000000 1.0
C      1  0.4725520000000  0.5362150000000  0.4797450000000 1.0
C      1  0.5328790000000  0.5019110000000  0.4516580000000 1.0
C      1  0.4811210000000  0.4868140000000  0.4642180000000 1.0
C      1  0.5354980000000  0.4564240000000  0.4698630000000 1.0
C      1  0.4728570000000  0.4621270000000  0.5107660000000 1.0
C      1  0.5266920000000  0.4668180000000  0.5209610000000 1.0
C      1  0.4636290000000  0.4937560000000  0.5517940000000 1.0
C      1  0.5188290000000  0.5170700000000  0.5338340000000 1.0
C      1  0.4684710000000  0.5376930000000  0.5323130000000 1.0
C      1  0.4902030000000  0.4661580000000  0.4866740000000 1.0
C      1  0.5161920000000  0.4567750000000  0.4939480000000 1.0
C      1  0.4828960000000  0.4755550000000  0.5365730000000 1.0
C      1  0.5092710000000  0.4865100000000  0.5347670000000 1.0
C      1  0.4816110000000  0.5153440000000  0.5457720000000 1.0
C      1  0.5112180000000  0.5370090000000  0.5109640000000 1.0
C      1  0.4842430000000  0.5431210000000  0.5068100000000 1.0
C      1  0.5162070000000  0.5246260000000  0.4628080000000 1.0
C      1  0.4892660000000  0.5170200000000  0.4645120000000 1.0
C      1  0.5190720000000  0.4773670000000  0.4589040000000 1.0
END
