TITL C-2441167-4473-58 0.0379777107305233 125000 -21597.7156140474 0 0 152 (C1) n - 1
REM
REM in /home/bkarasulu/work/CARBON/AIRSS/Generating-Clusters/ReaxFF-fromJPCA2015/Units_Real/with-SteepDescent/Higher-Symm
REM
REM
REM
REM
REM
REM ./C.cell (1df0a924f5614ab8850e4351716899ee)
REM
REM compiler GCC version 9.2.1 20190827 (Red Hat 9.2.1-1)
REM options -cpp -mtune=generic -march=x86-64 -g -O0 -fpre-include=/usr/include/finclude/math-vector-fortran.h
REM seed 263638652 -1093557462 1580896111 621565004 2046258448 1746806961 1710366223 -731157916 -2157676 1213643884 -2045813093 248191294 -1817653966 -1063608011 -858335666 -1022919389 142975496 2145173565 1975898433 -525609476 -1900899988 -698209393 1002276345 -273139986 -739858334 2079091262 1894594434 -1110179763 1388627527 1810249897 1942212618 505173560 273231708
REM
CELL 1.54180   50.00000   50.00000   50.00000   90.00000   90.00000   90.00000
LATT -1
SFAC C  
C      1  0.4226650000000  0.5204000000000  0.5803710000000 1.0
C      1  0.5642760000000  0.4731060000000  0.4171750000000 1.0
C      1  0.4554470000000  0.4563630000000  0.4842840000000 1.0
C      1  0.5431640000000  0.5380770000000  0.5149470000000 1.0
C      1  0.5000580000000  0.5053700000000  0.5128830000000 1.0
C      1  0.4849770000000  0.4918380000000  0.4721470000000 1.0
C      1  0.5273960000000  0.4556820000000  0.5250460000000 1.0
C      1  0.4695180000000  0.5487800000000  0.4733160000000 1.0
C      1  0.4525320000000  0.5461720000000  0.4278650000000 1.0
C      1  0.5442140000000  0.4591870000000  0.5693650000000 1.0
C      1  0.5687520000000  0.5270840000000  0.5554440000000 1.0
C      1  0.4337350000000  0.4750410000000  0.4445640000000 1.0
C      1  0.4228390000000  0.5040170000000  0.4516100000000 1.0
C      1  0.5764660000000  0.4969270000000  0.5494770000000 1.0
C      1  0.5192900000000  0.4544700000000  0.5874210000000 1.0
C      1  0.4799020000000  0.5506030000000  0.4119160000000 1.0
C      1  0.5280590000000  0.5488360000000  0.5844660000000 1.0
C      1  0.4728590000000  0.4629790000000  0.4138050000000 1.0
C      1  0.4443990000000  0.5056010000000  0.5472930000000 1.0
C      1  0.5564900000000  0.4939940000000  0.4524160000000 1.0
C      1  0.5958740000000  0.5023690000000  0.5223820000000 1.0
C      1  0.4024020000000  0.4976890000000  0.4733580000000 1.0
C      1  0.6066720000000  0.4535480000000  0.5205760000000 1.0
C      1  0.3923800000000  0.5453460000000  0.4835190000000 1.0
C      1  0.4238960000000  0.5503750000000  0.4781020000000 1.0
C      1  0.5748530000000  0.4507800000000  0.5217220000000 1.0
C      1  0.4467410000000  0.5120930000000  0.5001390000000 1.0
C      1  0.5526690000000  0.4829270000000  0.4997630000000 1.0
C      1  0.4229330000000  0.4475330000000  0.4571700000000 1.0
C      1  0.5840780000000  0.5498010000000  0.5386250000000 1.0
C      1  0.4862430000000  0.5797570000000  0.5666160000000 1.0
C      1  0.5207800000000  0.4137010000000  0.4380680000000 1.0
C      1  0.5342880000000  0.5349220000000  0.4664640000000 1.0
C      1  0.4610240000000  0.4667100000000  0.5323940000000 1.0
C      1  0.4706900000000  0.5151500000000  0.5801710000000 1.0
C      1  0.5228370000000  0.4799900000000  0.4185210000000 1.0
C      1  0.4266770000000  0.5297400000000  0.5524300000000 1.0
C      1  0.5710420000000  0.4692070000000  0.4459640000000 1.0
C      1  0.4927500000000  0.5973510000000  0.4626890000000 1.0
C      1  0.5076740000000  0.4032310000000  0.5396290000000 1.0
C      1  0.5120770000000  0.5498110000000  0.5468540000000 1.0
C      1  0.4898320000000  0.4396750000000  0.4549510000000 1.0
C      1  0.4922040000000  0.4427850000000  0.5028930000000 1.0
C      1  0.5034580000000  0.5577970000000  0.5022860000000 1.0
C      1  0.4774430000000  0.5880030000000  0.4388490000000 1.0
C      1  0.5227850000000  0.4135390000000  0.5625340000000 1.0
C      1  0.5595640000000  0.4810070000000  0.5291260000000 1.0
C      1  0.4385550000000  0.5201140000000  0.4717780000000 1.0
C      1  0.4521820000000  0.4169980000000  0.4551610000000 1.0
C      1  0.5498790000000  0.5843050000000  0.5415960000000 1.0
C      1  0.6037410000000  0.4801490000000  0.5058070000000 1.0
C      1  0.3971400000000  0.5177510000000  0.4943650000000 1.0
C      1  0.4860980000000  0.5128990000000  0.4526300000000 1.0
C      1  0.5070850000000  0.4965350000000  0.5427100000000 1.0
C      1  0.5428350000000  0.4118550000000  0.5031890000000 1.0
C      1  0.4575700000000  0.5844530000000  0.5036490000000 1.0
C      1  0.4828450000000  0.5934460000000  0.5158160000000 1.0
C      1  0.5168460000000  0.4033190000000  0.4902920000000 1.0
C      1  0.5630920000000  0.4218200000000  0.4846130000000 1.0
C      1  0.4391260000000  0.5732870000000  0.5234880000000 1.0
C      1  0.5236370000000  0.5570870000000  0.5214990000000 1.0
C      1  0.4773030000000  0.4384910000000  0.4802170000000 1.0
C      1  0.4602700000000  0.4735000000000  0.4607660000000 1.0
C      1  0.5444640000000  0.5236950000000  0.5391150000000 1.0
C      1  0.5413130000000  0.4332020000000  0.4303880000000 1.0
C      1  0.4653200000000  0.5615640000000  0.5751240000000 1.0
C      1  0.4836140000000  0.4715670000000  0.5499310000000 1.0
C      1  0.5104130000000  0.5300580000000  0.4492860000000 1.0
C      1  0.4915260000000  0.4137580000000  0.4406320000000 1.0
C      1  0.5156350000000  0.5729110000000  0.5648230000000 1.0
C      1  0.5838840000000  0.5537990000000  0.5095520000000 1.0
C      1  0.4229060000000  0.4483750000000  0.4885490000000 1.0
C      1  0.4870650000000  0.3992280000000  0.4895630000000 1.0
C      1  0.5130620000000  0.6000350000000  0.5149430000000 1.0
C      1  0.4232070000000  0.5609310000000  0.5047940000000 1.0
C      1  0.5782720000000  0.4433070000000  0.4939830000000 1.0
C      1  0.5609660000000  0.5446000000000  0.4635280000000 1.0
C      1  0.4320740000000  0.4636590000000  0.5340440000000 1.0
C      1  0.4749710000000  0.4943010000000  0.4999880000000 1.0
C      1  0.5256710000000  0.4992640000000  0.4938240000000 1.0
C      1  0.5261130000000  0.4175910000000  0.4667580000000 1.0
C      1  0.4789560000000  0.5768180000000  0.5388080000000 1.0
C      1  0.4536380000000  0.5726230000000  0.4440340000000 1.0
C      1  0.5453500000000  0.4303440000000  0.5563390000000 1.0
C      1  0.5511310000000  0.4290840000000  0.5280730000000 1.0
C      1  0.4490990000000  0.5711420000000  0.4727850000000 1.0
C      1  0.5160060000000  0.5019480000000  0.5943980000000 1.0
C      1  0.4824230000000  0.5057870000000  0.4033670000000 1.0
C      1  0.4191220000000  0.5129040000000  0.5164260000000 1.0
C      1  0.5815810000000  0.4817890000000  0.4832910000000 1.0
C      1  0.5257860000000  0.5938400000000  0.5401670000000 1.0
C      1  0.4749840000000  0.4015670000000  0.4621750000000 1.0
C      1  0.4788610000000  0.4612870000000  0.4422310000000 1.0
C      1  0.5187280000000  0.5216020000000  0.5522560000000 1.0
C      1  0.5243210000000  0.5677570000000  0.4264060000000 1.0
C      1  0.4769430000000  0.4330460000000  0.5732090000000 1.0
C      1  0.4373920000000  0.4317320000000  0.4414660000000 1.0
C      1  0.5707360000000  0.5732450000000  0.5431170000000 1.0
C      1  0.4946850000000  0.4806500000000  0.4054070000000 1.0
C      1  0.5071270000000  0.5309630000000  0.5943450000000 1.0
C      1  0.4640260000000  0.4167220000000  0.5524820000000 1.0
C      1  0.5376520000000  0.5778210000000  0.4495180000000 1.0
C      1  0.5303130000000  0.6031020000000  0.4913170000000 1.0
C      1  0.4688590000000  0.3993140000000  0.5127410000000 1.0
C      1  0.5353960000000  0.5244750000000  0.4915050000000 1.0
C      1  0.4710680000000  0.4665930000000  0.5075270000000 1.0
C      1  0.5609340000000  0.4841220000000  0.5718970000000 1.0
C      1  0.4368150000000  0.5207110000000  0.4269530000000 1.0
C      1  0.5493050000000  0.5834640000000  0.4753130000000 1.0
C      1  0.4494450000000  0.4194930000000  0.5252930000000 1.0
C      1  0.5255140000000  0.5381150000000  0.4185790000000 1.0
C      1  0.4755030000000  0.4633660000000  0.5803800000000 1.0
C      1  0.4952430000000  0.5732700000000  0.4206800000000 1.0
C      1  0.5049360000000  0.4298110000000  0.5801460000000 1.0
C      1  0.4064000000000  0.4754170000000  0.4916120000000 1.0
C      1  0.5941240000000  0.5253440000000  0.5042700000000 1.0
C      1  0.5031680000000  0.4514280000000  0.5407280000000 1.0
C      1  0.4943920000000  0.5518840000000  0.4611660000000 1.0
C      1  0.5038990000000  0.5727460000000  0.4768580000000 1.0
C      1  0.4986440000000  0.4280750000000  0.5265400000000 1.0
C      1  0.5414970000000  0.4555930000000  0.4120990000000 1.0
C      1  0.4787510000000  0.5409760000000  0.5908620000000 1.0
C      1  0.5681150000000  0.5208670000000  0.4470170000000 1.0
C      1  0.4337340000000  0.4801460000000  0.5591700000000 1.0
C      1  0.4913850000000  0.5325860000000  0.5057860000000 1.0
C      1  0.5137710000000  0.4853110000000  0.4719700000000 1.0
C      1  0.4980910000000  0.5300820000000  0.4050430000000 1.0
C      1  0.5027190000000  0.4763830000000  0.5937010000000 1.0
C      1  0.4442370000000  0.5558190000000  0.5511120000000 1.0
C      1  0.5577000000000  0.4429570000000  0.4537550000000 1.0
C      1  0.4708620000000  0.5173670000000  0.5508840000000 1.0
C      1  0.5282010000000  0.4886740000000  0.4477800000000 1.0
C      1  0.5684560000000  0.5625590000000  0.4855100000000 1.0
C      1  0.4301110000000  0.4381410000000  0.5159830000000 1.0
C      1  0.4135290000000  0.4847510000000  0.5174390000000 1.0
C      1  0.5868260000000  0.5096970000000  0.4817290000000 1.0
C      1  0.5490720000000  0.4968680000000  0.4092860000000 1.0
C      1  0.4448930000000  0.5034310000000  0.5918000000000 1.0
C      1  0.5341940000000  0.4772660000000  0.5422810000000 1.0
C      1  0.4617600000000  0.5280050000000  0.4566870000000 1.0
C      1  0.5452580000000  0.5033500000000  0.5871390000000 1.0
C      1  0.4516790000000  0.5025710000000  0.4112090000000 1.0
C      1  0.4481140000000  0.4754200000000  0.5835470000000 1.0
C      1  0.5516200000000  0.5226400000000  0.4216300000000 1.0
C      1  0.4795380000000  0.3948590000000  0.5399250000000 1.0
C      1  0.5181300000000  0.6093610000000  0.4664060000000 1.0
C      1  0.5507290000000  0.5313400000000  0.5810850000000 1.0
C      1  0.4463810000000  0.4749020000000  0.4172540000000 1.0
C      1  0.5345290000000  0.4603630000000  0.4962310000000 1.0
C      1  0.4630230000000  0.5368390000000  0.5062500000000 1.0
C      1  0.4672640000000  0.5442860000000  0.5364600000000 1.0
C      1  0.5337410000000  0.4459700000000  0.4711610000000 1.0
END
