TITL C-2441162-9305-1394 0.080204721441303 125000 -27018.3450243274 0 0 194 (C1) n - 1
REM
REM in /home/bkarasulu/work/CARBON/AIRSS/Generating-Clusters/ReaxFF-fromJPCA2015/Units_Real/with-SteepDescent/Higher-Symm
REM
REM
REM
REM
REM
REM ./C.cell (1df0a924f5614ab8850e4351716899ee)
REM
REM compiler GCC version 9.2.1 20190827 (Red Hat 9.2.1-1)
REM options -cpp -mtune=generic -march=x86-64 -g -O0 -fpre-include=/usr/include/finclude/math-vector-fortran.h
REM seed -100836127 -1204194662 -574608815 -948350167 400032589 184228881 -1634013031 660351169 -799305868 -209173953 -1888271174 -1153573726 567458352 861986970 502981315 -1314984648 -976834228 -1123046176 989097275 898638559 844941812 -40032950 1364956073 1802096250 1725936734 750239768 -2062147117 -279650602 2095474588 1126573411 1136316968 1179476412 1832807892
REM
CELL 1.54180   50.00000   50.00000   50.00000   90.00000   90.00000   90.00000
LATT -1
SFAC C  
C      1  0.4696720000000  0.5740900000000  0.5535400000000 1.0
C      1  0.5712140000000  0.5250480000000  0.5854980000000 1.0
C      1  0.4590420000000  0.5345500000000  0.5524940000000 1.0
C      1  0.5212800000000  0.4804920000000  0.3991600000000 1.0
C      1  0.4351840000000  0.5165160000000  0.4770500000000 1.0
C      1  0.5744780000000  0.5365020000000  0.4217710000000 1.0
C      1  0.5881040000000  0.5516690000000  0.4869850000000 1.0
C      1  0.5603200000000  0.5617250000000  0.5681770000000 1.0
C      1  0.3959600000000  0.4854580000000  0.5088080000000 1.0
C      1  0.5003110000000  0.6054500000000  0.5399650000000 1.0
C      1  0.4299140000000  0.5788200000000  0.4806470000000 1.0
C      1  0.5337650000000  0.4077920000000  0.4476810000000 1.0
C      1  0.5285010000000  0.4582380000000  0.5972480000000 1.0
C      1  0.5455170000000  0.5229820000000  0.5995570000000 1.0
C      1  0.4382350000000  0.5545620000000  0.4135030000000 1.0
C      1  0.4624470000000  0.5289600000000  0.4492420000000 1.0
C      1  0.4759110000000  0.5123900000000  0.4909150000000 1.0
C      1  0.5295950000000  0.4034270000000  0.5200480000000 1.0
C      1  0.4636890000000  0.4781010000000  0.6081100000000 1.0
C      1  0.4806110000000  0.4296530000000  0.4987080000000 1.0
C      1  0.4586880000000  0.5347180000000  0.4207400000000 1.0
C      1  0.5463590000000  0.5751520000000  0.5491260000000 1.0
C      1  0.4441210000000  0.4944100000000  0.5371640000000 1.0
C      1  0.5219700000000  0.5970700000000  0.5058940000000 1.0
C      1  0.4733970000000  0.5744400000000  0.4781340000000 1.0
C      1  0.5001240000000  0.4773000000000  0.5597200000000 1.0
C      1  0.4540120000000  0.4465450000000  0.5831220000000 1.0
C      1  0.5419020000000  0.5274770000000  0.5386780000000 1.0
C      1  0.4783040000000  0.5038980000000  0.6070790000000 1.0
C      1  0.4737880000000  0.4858650000000  0.4986280000000 1.0
C      1  0.5455810000000  0.6017650000000  0.4879770000000 1.0
C      1  0.4197390000000  0.5804170000000  0.5187130000000 1.0
C      1  0.4388760000000  0.4245570000000  0.5510810000000 1.0
C      1  0.4818380000000  0.5170830000000  0.5569150000000 1.0
C      1  0.4494820000000  0.4786940000000  0.5128120000000 1.0
C      1  0.4944520000000  0.4598780000000  0.4649910000000 1.0
C      1  0.5749890000000  0.5593030000000  0.4389310000000 1.0
C      1  0.4340260000000  0.4625290000000  0.4984160000000 1.0
C      1  0.5297470000000  0.5374160000000  0.3987100000000 1.0
C      1  0.5396980000000  0.4264510000000  0.4261030000000 1.0
C      1  0.5567430000000  0.5056980000000  0.5275610000000 1.0
C      1  0.4644730000000  0.4156610000000  0.5630470000000 1.0
C      1  0.4414140000000  0.4080250000000  0.5267410000000 1.0
C      1  0.4092940000000  0.4674440000000  0.5627590000000 1.0
C      1  0.5865450000000  0.5183250000000  0.4408260000000 1.0
C      1  0.5416570000000  0.4689530000000  0.4442280000000 1.0
C      1  0.5411590000000  0.5203720000000  0.4633140000000 1.0
C      1  0.5043270000000  0.4221030000000  0.4841020000000 1.0
C      1  0.5276810000000  0.4862970000000  0.5978760000000 1.0
C      1  0.4122540000000  0.4907630000000  0.4289790000000 1.0
C      1  0.5343990000000  0.3895800000000  0.4947210000000 1.0
C      1  0.5340750000000  0.5469850000000  0.4486140000000 1.0
C      1  0.4163950000000  0.5427900000000  0.5532690000000 1.0
C      1  0.5581190000000  0.5529880000000  0.4933000000000 1.0
C      1  0.3945750000000  0.4916110000000  0.4817210000000 1.0
C      1  0.4043810000000  0.5355750000000  0.5280800000000 1.0
C      1  0.5520630000000  0.4931830000000  0.3984330000000 1.0
C      1  0.4509990000000  0.5038870000000  0.4572890000000 1.0
C      1  0.5213830000000  0.5026520000000  0.4731290000000 1.0
C      1  0.4746490000000  0.4510890000000  0.6023950000000 1.0
C      1  0.4759070000000  0.5617830000000  0.5270250000000 1.0
C      1  0.6021530000000  0.5317730000000  0.5331580000000 1.0
C      1  0.5118420000000  0.4326860000000  0.5553120000000 1.0
C      1  0.4617160000000  0.3928390000000  0.4727990000000 1.0
C      1  0.4965010000000  0.5418550000000  0.5260230000000 1.0
C      1  0.3981380000000  0.5062940000000  0.5285410000000 1.0
C      1  0.5055970000000  0.4539220000000  0.4011040000000 1.0
C      1  0.5074410000000  0.3826030000000  0.4913580000000 1.0
C      1  0.6164920000000  0.5107970000000  0.4987220000000 1.0
C      1  0.4644950000000  0.5586200000000  0.5007540000000 1.0
C      1  0.5582590000000  0.4777630000000  0.5667090000000 1.0
C      1  0.5079550000000  0.4541920000000  0.5757210000000 1.0
C      1  0.6013050000000  0.4468910000000  0.4655700000000 1.0
C      1  0.4877160000000  0.3835360000000  0.4705350000000 1.0
C      1  0.5716540000000  0.5801740000000  0.4586320000000 1.0
C      1  0.4204510000000  0.5097660000000  0.4118880000000 1.0
C      1  0.5957510000000  0.4774310000000  0.5369320000000 1.0
C      1  0.5743660000000  0.4834330000000  0.4832950000000 1.0
C      1  0.4479940000000  0.5370080000000  0.5796480000000 1.0
C      1  0.5194490000000  0.5662660000000  0.5547730000000 1.0
C      1  0.5263140000000  0.4908550000000  0.5687220000000 1.0
C      1  0.4219100000000  0.5705280000000  0.5467390000000 1.0
C      1  0.4476870000000  0.5222340000000  0.5293410000000 1.0
C      1  0.4778590000000  0.4547810000000  0.4107040000000 1.0
C      1  0.4073310000000  0.5216570000000  0.4738680000000 1.0
C      1  0.6108240000000  0.4577910000000  0.4926490000000 1.0
C      1  0.4835820000000  0.4325450000000  0.5494860000000 1.0
C      1  0.4154670000000  0.5374230000000  0.4220350000000 1.0
C      1  0.5145790000000  0.4471470000000  0.4777130000000 1.0
C      1  0.4110620000000  0.4567550000000  0.5153230000000 1.0
C      1  0.4530620000000  0.5958650000000  0.4834630000000 1.0
C      1  0.4680230000000  0.4909220000000  0.5615870000000 1.0
C      1  0.5504890000000  0.4017980000000  0.4707450000000 1.0
C      1  0.5123810000000  0.4308060000000  0.4157850000000 1.0
C      1  0.4780060000000  0.4751100000000  0.4319960000000 1.0
C      1  0.5728850000000  0.5906830000000  0.4877160000000 1.0
C      1  0.5446180000000  0.4296330000000  0.5205370000000 1.0
C      1  0.6092290000000  0.5372970000000  0.5051040000000 1.0
C      1  0.4059930000000  0.4324430000000  0.5006790000000 1.0
C      1  0.5281210000000  0.5200700000000  0.5615710000000 1.0
C      1  0.4240610000000  0.5197590000000  0.5745700000000 1.0
C      1  0.5848780000000  0.4892250000000  0.4351550000000 1.0
C      1  0.4442220000000  0.5882790000000  0.5512580000000 1.0
C      1  0.4799660000000  0.4424070000000  0.5241380000000 1.0
C      1  0.5251110000000  0.4862780000000  0.4287090000000 1.0
C      1  0.4720830000000  0.4466120000000  0.4772180000000 1.0
C      1  0.5565140000000  0.4513960000000  0.4270110000000 1.0
C      1  0.5942570000000  0.4551650000000  0.5171710000000 1.0
C      1  0.5765680000000  0.5110670000000  0.4876230000000 1.0
C      1  0.5889620000000  0.4734030000000  0.4593670000000 1.0
C      1  0.4759870000000  0.5848450000000  0.4290500000000 1.0
C      1  0.5921160000000  0.5572610000000  0.5414110000000 1.0
C      1  0.4635360000000  0.3860530000000  0.5267660000000 1.0
C      1  0.6166460000000  0.4852600000000  0.4949100000000 1.0
C      1  0.4985340000000  0.4989580000000  0.3863280000000 1.0
C      1  0.5118320000000  0.4992840000000  0.5151630000000 1.0
C      1  0.5583880000000  0.4291390000000  0.4772870000000 1.0
C      1  0.5458680000000  0.5669250000000  0.4666380000000 1.0
C      1  0.5697840000000  0.4753300000000  0.4134520000000 1.0
C      1  0.4983660000000  0.4961810000000  0.4367470000000 1.0
C      1  0.4530850000000  0.5294000000000  0.4992110000000 1.0
C      1  0.5819980000000  0.4274930000000  0.4690850000000 1.0
C      1  0.4648740000000  0.6075880000000  0.5076940000000 1.0
C      1  0.4912110000000  0.5288810000000  0.4428960000000 1.0
C      1  0.5664800000000  0.4803610000000  0.5387830000000 1.0
C      1  0.5040220000000  0.5187710000000  0.4908380000000 1.0
C      1  0.5846220000000  0.5769800000000  0.5191160000000 1.0
C      1  0.5082700000000  0.5492250000000  0.4853110000000 1.0
C      1  0.4861040000000  0.5365430000000  0.4150720000000 1.0
C      1  0.5016240000000  0.4614710000000  0.5300690000000 1.0
C      1  0.5400690000000  0.4563980000000  0.4744530000000 1.0
C      1  0.4444100000000  0.4966940000000  0.5777660000000 1.0
C      1  0.5807070000000  0.5017820000000  0.5708620000000 1.0
C      1  0.5259330000000  0.5573900000000  0.4189390000000 1.0
C      1  0.4260020000000  0.4117340000000  0.5030710000000 1.0
C      1  0.5905670000000  0.5285030000000  0.4688300000000 1.0
C      1  0.5194350000000  0.5678080000000  0.5039630000000 1.0
C      1  0.4888680000000  0.6046370000000  0.4463530000000 1.0
C      1  0.4701710000000  0.5299800000000  0.5981700000000 1.0
C      1  0.5503230000000  0.4739990000000  0.4941120000000 1.0
C      1  0.4472080000000  0.4934620000000  0.4070100000000 1.0
C      1  0.5088350000000  0.5048160000000  0.6107900000000 1.0
C      1  0.4284150000000  0.5678040000000  0.4549780000000 1.0
C      1  0.4134660000000  0.4962890000000  0.5515420000000 1.0
C      1  0.5110690000000  0.5418300000000  0.5688950000000 1.0
C      1  0.5257270000000  0.4077110000000  0.5656750000000 1.0
C      1  0.5020400000000  0.5273720000000  0.3925080000000 1.0
C      1  0.5567790000000  0.5734050000000  0.5211950000000 1.0
C      1  0.4980060000000  0.4777740000000  0.5094570000000 1.0
C      1  0.5260040000000  0.4459830000000  0.5342970000000 1.0
C      1  0.5040570000000  0.4075510000000  0.4557330000000 1.0
C      1  0.4453710000000  0.4549270000000  0.4730980000000 1.0
C      1  0.5515050000000  0.4196580000000  0.5714750000000 1.0
C      1  0.4015150000000  0.5422580000000  0.4879650000000 1.0
C      1  0.4862170000000  0.5746690000000  0.5774390000000 1.0
C      1  0.4961740000000  0.5160190000000  0.5330540000000 1.0
C      1  0.5200840000000  0.5307410000000  0.6072390000000 1.0
C      1  0.4648180000000  0.4352340000000  0.4278820000000 1.0
C      1  0.5065310000000  0.5786120000000  0.4185660000000 1.0
C      1  0.4945230000000  0.5484610000000  0.5931030000000 1.0
C      1  0.5720130000000  0.4325690000000  0.5558500000000 1.0
C      1  0.4489610000000  0.5751360000000  0.4310960000000 1.0
C      1  0.5071540000000  0.5470380000000  0.4572070000000 1.0
C      1  0.5584660000000  0.4488270000000  0.5780960000000 1.0
C      1  0.5162410000000  0.5996190000000  0.4363770000000 1.0
C      1  0.5260970000000  0.5905460000000  0.4651760000000 1.0
C      1  0.5733240000000  0.4354990000000  0.5267260000000 1.0
C      1  0.4217770000000  0.4486880000000  0.5447200000000 1.0
C      1  0.4120940000000  0.5546650000000  0.5070450000000 1.0
C      1  0.5127820000000  0.3945790000000  0.5436910000000 1.0
C      1  0.4406430000000  0.4715320000000  0.5906760000000 1.0
C      1  0.5979150000000  0.5050140000000  0.5480200000000 1.0
C      1  0.4962400000000  0.5913510000000  0.4717650000000 1.0
C      1  0.3970750000000  0.4676640000000  0.4653410000000 1.0
C      1  0.4021650000000  0.4387850000000  0.4731260000000 1.0
C      1  0.4944350000000  0.6109800000000  0.5141080000000 1.0
C      1  0.4826610000000  0.3928440000000  0.5474000000000 1.0
C      1  0.4526730000000  0.4852520000000  0.4353000000000 1.0
C      1  0.4381810000000  0.4448830000000  0.4458110000000 1.0
C      1  0.4142400000000  0.4681430000000  0.4418040000000 1.0
C      1  0.5048860000000  0.5927180000000  0.5648620000000 1.0
C      1  0.5383600000000  0.4909490000000  0.5125630000000 1.0
C      1  0.5829010000000  0.5502340000000  0.5703310000000 1.0
C      1  0.4359070000000  0.4032930000000  0.4756980000000 1.0
C      1  0.5027290000000  0.4862850000000  0.4618690000000 1.0
C      1  0.5537580000000  0.5215730000000  0.4036900000000 1.0
C      1  0.4429640000000  0.5984770000000  0.5244130000000 1.0
C      1  0.4723030000000  0.4971190000000  0.3943760000000 1.0
C      1  0.5225430000000  0.5514420000000  0.5284920000000 1.0
C      1  0.4220380000000  0.4235160000000  0.4584570000000 1.0
C      1  0.5525250000000  0.5257130000000  0.4893140000000 1.0
C      1  0.4107840000000  0.5450640000000  0.4493480000000 1.0
C      1  0.4887080000000  0.4204080000000  0.4316340000000 1.0
C      1  0.5036270000000  0.4452030000000  0.6024680000000 1.0
END
