TITL C-2441160-1326-1285 0.0149323112550572 125000 -10786.6660926403 0 0 73 (Cs) n - 1
REM
REM in /home/bkarasulu/work/CARBON/AIRSS/Generating-Clusters/ReaxFF-fromJPCA2015/Units_Real/with-SteepDescent/Higher-Symm
REM
REM
REM
REM
REM
REM ./C.cell (1df0a924f5614ab8850e4351716899ee)
REM
REM compiler GCC version 9.2.1 20190827 (Red Hat 9.2.1-1)
REM options -cpp -mtune=generic -march=x86-64 -g -O0 -fpre-include=/usr/include/finclude/math-vector-fortran.h
REM seed -1432072739 1719287898 -1113763056 -2099363775 -1489424701 770014105 825766701 -1013752780 1332800649 939392618 2110040825 1833447566 1254683878 1995562367 -351593661 -120043308 -60919622 -649905253 -959218479 684938344 -2051208842 1050650591 2046109467 114406101 -153482643 804857292 -1006825012 1047236371 -619518446 93163919 -1319343817 1399069179 -792429423
REM
CELL 1.54180   50.00000   50.00000   50.00000   90.00000   90.00000   90.00000
LATT -1
SFAC C  
C      1  0.5373710000000  0.4846920000000  0.4271100000000 1.0
C      1  0.4628280000000  0.4842600000000  0.5721110000000 1.0
C      1  0.5373320000000  0.5143630000000  0.4270130000000 1.0
C      1  0.4622030000000  0.5138520000000  0.5727410000000 1.0
C      1  0.5373660000000  0.4842910000000  0.5722220000000 1.0
C      1  0.4628730000000  0.4846430000000  0.4270240000000 1.0
C      1  0.5376610000000  0.5139120000000  0.5726390000000 1.0
C      1  0.4628860000000  0.5143360000000  0.4269890000000 1.0
C      1  0.5593630000000  0.4848200000000  0.4472830000000 1.0
C      1  0.4423830000000  0.4845200000000  0.5502470000000 1.0
C      1  0.5597530000000  0.5142380000000  0.4468990000000 1.0
C      1  0.4428010000000  0.5140660000000  0.5501980000000 1.0
C      1  0.5579580000000  0.4846550000000  0.5504750000000 1.0
C      1  0.4408000000000  0.4848090000000  0.4472030000000 1.0
C      1  0.5570730000000  0.5142170000000  0.5501890000000 1.0
C      1  0.4404300000000  0.5142130000000  0.4468100000000 1.0
C      1  0.5324120000000  0.4343930000000  0.4715460000000 1.0
C      1  0.4685800000000  0.4337850000000  0.5281320000000 1.0
C      1  0.5321650000000  0.5646640000000  0.4714890000000 1.0
C      1  0.4687260000000  0.5646700000000  0.5281000000000 1.0
C      1  0.5312530000000  0.4330080000000  0.5275170000000 1.0
C      1  0.4679450000000  0.4341960000000  0.4718190000000 1.0
C      1  0.5317300000000  0.5646660000000  0.5282490000000 1.0
C      1  0.4681450000000  0.5647380000000  0.4714890000000 1.0
C      1  0.4498780000000  0.4740510000000  0.5238450000000 1.0
C      1  0.5551960000000  0.4736070000000  0.4746040000000 1.0
C      1  0.4514740000000  0.5253790000000  0.5244640000000 1.0
C      1  0.5557350000000  0.5254040000000  0.4740130000000 1.0
C      1  0.4450760000000  0.4736190000000  0.4744360000000 1.0
C      1  0.5510390000000  0.4741210000000  0.5238640000000 1.0
C      1  0.4443220000000  0.5254740000000  0.4738890000000 1.0
C      1  0.5479140000000  0.5256500000000  0.5245730000000 1.0
C      1  0.5142690000000  0.4682340000000  0.5653690000000 1.0
C      1  0.4861500000000  0.4695530000000  0.4351170000000 1.0
C      1  0.5149010000000  0.5306090000000  0.5665930000000 1.0
C      1  0.4861580000000  0.5295520000000  0.4348590000000 1.0
C      1  0.5140520000000  0.4695470000000  0.4353560000000 1.0
C      1  0.4860740000000  0.4682080000000  0.5652870000000 1.0
C      1  0.5140380000000  0.5295550000000  0.4348370000000 1.0
C      1  0.4853270000000  0.5305090000000  0.5665050000000 1.0
C      1  0.5152110000000  0.4156230000000  0.4850380000000 1.0
C      1  0.4859190000000  0.4155710000000  0.5141760000000 1.0
C      1  0.5151240000000  0.5837190000000  0.4845120000000 1.0
C      1  0.4857820000000  0.5822740000000  0.5135960000000 1.0
C      1  0.5143120000000  0.4160690000000  0.5133370000000 1.0
C      1  0.4853150000000  0.4157280000000  0.4848380000000 1.0
C      1  0.5146050000000  0.5823440000000  0.5137070000000 1.0
C      1  0.4851570000000  0.5836900000000  0.4845320000000 1.0
C      1  0.5540780000000  0.5521400000000  0.5143190000000 1.0
C      1  0.4452060000000  0.5531810000000  0.4846510000000 1.0
C      1  0.5535760000000  0.4463070000000  0.5146190000000 1.0
C      1  0.4447270000000  0.4454460000000  0.4848170000000 1.0
C      1  0.5550540000000  0.5531680000000  0.4846480000000 1.0
C      1  0.4465030000000  0.5522460000000  0.5144030000000 1.0
C      1  0.5558340000000  0.4454700000000  0.4849910000000 1.0
C      1  0.4465340000000  0.4465150000000  0.5146450000000 1.0
C      1  0.5284720000000  0.5206300000000  0.4824080000000 1.0
C      1  0.4770310000000  0.5203300000000  0.5105400000000 1.0
C      1  0.5282670000000  0.4779090000000  0.4852260000000 1.0
C      1  0.4777070000000  0.4780170000000  0.5133910000000 1.0
C      1  0.5224940000000  0.5199570000000  0.5103350000000 1.0
C      1  0.4715020000000  0.5207760000000  0.4824450000000 1.0
C      1  0.5230760000000  0.4773010000000  0.5138950000000 1.0
C      1  0.4718280000000  0.4780640000000  0.4847200000000 1.0
C      1  0.5155160000000  0.5400650000000  0.4629930000000 1.0
C      1  0.4859760000000  0.5506770000000  0.5455280000000 1.0
C      1  0.5150110000000  0.4583380000000  0.4628830000000 1.0
C      1  0.4856650000000  0.4543170000000  0.5388930000000 1.0
C      1  0.5143710000000  0.5507500000000  0.5458310000000 1.0
C      1  0.4846130000000  0.5401000000000  0.4630130000000 1.0
C      1  0.5144880000000  0.4542210000000  0.5385590000000 1.0
C      1  0.4849970000000  0.4583100000000  0.4630680000000 1.0
C      1  0.4994060000000  0.5041000000000  0.5202480000000 1.0
END
