TITL C-2441154-10-373 0.046575602097519 125000 -20367.4437101603 0 0 145 (C1) n - 1
REM
REM in /home/bkarasulu/work/CARBON/AIRSS/Generating-Clusters/ReaxFF-fromJPCA2015/Units_Real/with-SteepDescent/Higher-Symm
REM
REM
REM
REM
REM
REM ./C.cell (1df0a924f5614ab8850e4351716899ee)
REM
REM compiler GCC version 9.2.1 20190827 (Red Hat 9.2.1-1)
REM options -cpp -mtune=generic -march=x86-64 -g -O0 -fpre-include=/usr/include/finclude/math-vector-fortran.h
REM seed 353652462 1068882892 -293501514 1039241318 -642405277 247387504 1248098871 1754556467 2126560414 1144445191 -1565769169 -2098455991 35496844 -1245846642 -845137455 -2098058575 198015369 2122981381 534872990 -496622712 -2127394159 1776131338 -1473786675 -305679802 990851992 295897404 109862247 1150191528 -2083654825 -35890698 -1896729786 1331616883 -100584917
REM
CELL 1.54180   50.00000   50.00000   50.00000   90.00000   90.00000   90.00000
LATT -1
SFAC C  
C      1  0.5244810000000  0.5315610000000  0.6016070000000 1.0
C      1  0.5031140000000  0.5004270000000  0.5020350000000 1.0
C      1  0.4696300000000  0.5254640000000  0.4722450000000 1.0
C      1  0.4669890000000  0.5904570000000  0.4947420000000 1.0
C      1  0.5378610000000  0.5731880000000  0.4524890000000 1.0
C      1  0.5004270000000  0.4811430000000  0.4603450000000 1.0
C      1  0.4458220000000  0.5472010000000  0.5371130000000 1.0
C      1  0.5156870000000  0.4199460000000  0.4353920000000 1.0
C      1  0.5335760000000  0.5363050000000  0.5311220000000 1.0
C      1  0.5055180000000  0.4943510000000  0.3944470000000 1.0
C      1  0.4804570000000  0.4085070000000  0.4614020000000 1.0
C      1  0.5309120000000  0.4163740000000  0.5264520000000 1.0
C      1  0.4860410000000  0.4773880000000  0.4362870000000 1.0
C      1  0.4046050000000  0.4513340000000  0.4849490000000 1.0
C      1  0.4711660000000  0.4280860000000  0.4435010000000 1.0
C      1  0.4913990000000  0.5217530000000  0.5664340000000 1.0
C      1  0.5290950000000  0.4643100000000  0.4248120000000 1.0
C      1  0.4314300000000  0.5224100000000  0.5546960000000 1.0
C      1  0.4918370000000  0.4598060000000  0.5056810000000 1.0
C      1  0.5235150000000  0.4628670000000  0.4612380000000 1.0
C      1  0.5536550000000  0.4562310000000  0.5570580000000 1.0
C      1  0.4289440000000  0.5679450000000  0.4906930000000 1.0
C      1  0.5024830000000  0.4714470000000  0.4122830000000 1.0
C      1  0.4531190000000  0.4782590000000  0.4938410000000 1.0
C      1  0.5793070000000  0.5277750000000  0.4341160000000 1.0
C      1  0.4392960000000  0.5701310000000  0.5201000000000 1.0
C      1  0.5606070000000  0.5788910000000  0.5193480000000 1.0
C      1  0.4567110000000  0.5938090000000  0.5216090000000 1.0
C      1  0.4564750000000  0.5238850000000  0.5004310000000 1.0
C      1  0.4618650000000  0.5191850000000  0.4070890000000 1.0
C      1  0.5605950000000  0.4771500000000  0.5780820000000 1.0
C      1  0.4837780000000  0.4819780000000  0.4874160000000 1.0
C      1  0.4850270000000  0.5987700000000  0.5307620000000 1.0
C      1  0.4008580000000  0.5136770000000  0.4809330000000 1.0
C      1  0.5152780000000  0.3986690000000  0.5086390000000 1.0
C      1  0.4234420000000  0.4943230000000  0.5522390000000 1.0
C      1  0.5989970000000  0.5211730000000  0.4838430000000 1.0
C      1  0.5205960000000  0.4207610000000  0.5533520000000 1.0
C      1  0.4789220000000  0.5070960000000  0.5448390000000 1.0
C      1  0.4475930000000  0.4772120000000  0.5218440000000 1.0
C      1  0.5072420000000  0.5990350000000  0.5123310000000 1.0
C      1  0.5625830000000  0.5647000000000  0.5424760000000 1.0
C      1  0.5493090000000  0.4882590000000  0.4287290000000 1.0
C      1  0.6034450000000  0.4988640000000  0.5265730000000 1.0
C      1  0.5305870000000  0.5024670000000  0.4529730000000 1.0
C      1  0.5425010000000  0.4383610000000  0.5098810000000 1.0
C      1  0.5703760000000  0.5619700000000  0.4942930000000 1.0
C      1  0.5302980000000  0.5353120000000  0.4210470000000 1.0
C      1  0.4410330000000  0.4771560000000  0.5673240000000 1.0
C      1  0.4953320000000  0.5490540000000  0.5110360000000 1.0
C      1  0.4629430000000  0.4391230000000  0.4173690000000 1.0
C      1  0.4291350000000  0.4394220000000  0.5263630000000 1.0
C      1  0.5368930000000  0.4780430000000  0.5944270000000 1.0
C      1  0.4446220000000  0.4924500000000  0.4092220000000 1.0
C      1  0.5285540000000  0.4968040000000  0.5410970000000 1.0
C      1  0.4771340000000  0.4143720000000  0.4883230000000 1.0
C      1  0.4955400000000  0.5618760000000  0.5562220000000 1.0
C      1  0.5620400000000  0.5469520000000  0.5649230000000 1.0
C      1  0.4523130000000  0.4651260000000  0.4120510000000 1.0
C      1  0.5188380000000  0.4552910000000  0.5888260000000 1.0
C      1  0.5340240000000  0.4372300000000  0.5719660000000 1.0
C      1  0.4891260000000  0.5635480000000  0.4353510000000 1.0
C      1  0.5422500000000  0.4175880000000  0.4716500000000 1.0
C      1  0.5455780000000  0.5456450000000  0.4878680000000 1.0
C      1  0.4061950000000  0.5577130000000  0.4750440000000 1.0
C      1  0.4636780000000  0.4751580000000  0.5467650000000 1.0
C      1  0.5284150000000  0.4893290000000  0.4976820000000 1.0
C      1  0.4015090000000  0.5254810000000  0.5097500000000 1.0
C      1  0.4196640000000  0.4713100000000  0.5288100000000 1.0
C      1  0.5922220000000  0.4790970000000  0.5450170000000 1.0
C      1  0.5021190000000  0.4987600000000  0.5305460000000 1.0
C      1  0.4316680000000  0.5215760000000  0.5133520000000 1.0
C      1  0.5140290000000  0.5390040000000  0.5589580000000 1.0
C      1  0.4260120000000  0.5174620000000  0.4419620000000 1.0
C      1  0.5793390000000  0.4954380000000  0.5658060000000 1.0
C      1  0.4849010000000  0.5696470000000  0.4938390000000 1.0
C      1  0.5697380000000  0.4361560000000  0.5013180000000 1.0
C      1  0.4629890000000  0.5942110000000  0.4655960000000 1.0
C      1  0.4787180000000  0.4843030000000  0.5975230000000 1.0
C      1  0.4055880000000  0.5309300000000  0.4597870000000 1.0
C      1  0.5769460000000  0.5231900000000  0.5551250000000 1.0
C      1  0.5311750000000  0.5865300000000  0.5234830000000 1.0
C      1  0.4947440000000  0.5314430000000  0.6058620000000 1.0
C      1  0.4491660000000  0.5533370000000  0.4431090000000 1.0
C      1  0.4524290000000  0.4941160000000  0.5886130000000 1.0
C      1  0.4966680000000  0.5337910000000  0.4656350000000 1.0
C      1  0.5706080000000  0.5533160000000  0.4411760000000 1.0
C      1  0.4897210000000  0.5875940000000  0.5578670000000 1.0
C      1  0.4037230000000  0.4742320000000  0.5031220000000 1.0
C      1  0.4604090000000  0.4831730000000  0.4477530000000 1.0
C      1  0.5200360000000  0.5598610000000  0.5247800000000 1.0
C      1  0.5100010000000  0.5190780000000  0.4093860000000 1.0
C      1  0.5072680000000  0.4017000000000  0.4568700000000 1.0
C      1  0.5062500000000  0.5289310000000  0.4914430000000 1.0
C      1  0.4396660000000  0.4627900000000  0.4538870000000 1.0
C      1  0.4163480000000  0.4903100000000  0.4834200000000 1.0
C      1  0.5702240000000  0.4708780000000  0.4411690000000 1.0
C      1  0.5835530000000  0.4855280000000  0.4601110000000 1.0
C      1  0.5452430000000  0.5260940000000  0.5092560000000 1.0
C      1  0.3831920000000  0.5208220000000  0.5292100000000 1.0
C      1  0.4736490000000  0.4510360000000  0.5633870000000 1.0
C      1  0.4924940000000  0.4340720000000  0.4247680000000 1.0
C      1  0.5633180000000  0.4436090000000  0.4475630000000 1.0
C      1  0.5657670000000  0.5712230000000  0.4616540000000 1.0
C      1  0.6027160000000  0.4956950000000  0.4979090000000 1.0
C      1  0.5693250000000  0.4286290000000  0.4734100000000 1.0
C      1  0.4961640000000  0.5031180000000  0.6090180000000 1.0
C      1  0.5460990000000  0.4963930000000  0.5167790000000 1.0
C      1  0.5262230000000  0.4686920000000  0.5445810000000 1.0
C      1  0.5908090000000  0.5254190000000  0.5293770000000 1.0
C      1  0.4923790000000  0.4321730000000  0.5496330000000 1.0
C      1  0.5746860000000  0.4586240000000  0.5342810000000 1.0
C      1  0.5540610000000  0.5181200000000  0.4217470000000 1.0
C      1  0.5810450000000  0.4785530000000  0.4880030000000 1.0
C      1  0.4952000000000  0.4367900000000  0.4891920000000 1.0
C      1  0.4756220000000  0.5671160000000  0.5728350000000 1.0
C      1  0.4863330000000  0.4001440000000  0.5120220000000 1.0
C      1  0.5358660000000  0.5444910000000  0.5788000000000 1.0
C      1  0.4461090000000  0.4523250000000  0.4810890000000 1.0
C      1  0.5643730000000  0.4719060000000  0.5114110000000 1.0
C      1  0.5054820000000  0.5857810000000  0.4826640000000 1.0
C      1  0.4440790000000  0.5717620000000  0.4636970000000 1.0
C      1  0.4697780000000  0.5327530000000  0.5263370000000 1.0
C      1  0.5155250000000  0.5511840000000  0.4423790000000 1.0
C      1  0.4476170000000  0.5204980000000  0.5783310000000 1.0
C      1  0.5283690000000  0.5673100000000  0.4787590000000 1.0
C      1  0.4646020000000  0.5427970000000  0.4244210000000 1.0
C      1  0.5422060000000  0.4825640000000  0.4741290000000 1.0
C      1  0.5887020000000  0.5395470000000  0.5036000000000 1.0
C      1  0.4858670000000  0.5162730000000  0.3917630000000 1.0
C      1  0.4118140000000  0.4704580000000  0.4625060000000 1.0
C      1  0.5243050000000  0.3968120000000  0.4806100000000 1.0
C      1  0.4515580000000  0.4278760000000  0.5360050000000 1.0
C      1  0.4873640000000  0.5852560000000  0.4538050000000 1.0
C      1  0.5389020000000  0.4375360000000  0.4325110000000 1.0
C      1  0.4268960000000  0.4366030000000  0.4970300000000 1.0
C      1  0.4246210000000  0.4910420000000  0.4296890000000 1.0
C      1  0.5240900000000  0.5020190000000  0.6045830000000 1.0
C      1  0.4898320000000  0.4606360000000  0.5854910000000 1.0
C      1  0.4533220000000  0.5111620000000  0.4525960000000 1.0
C      1  0.5041380000000  0.4568290000000  0.5315670000000 1.0
C      1  0.5895220000000  0.5126200000000  0.4575430000000 1.0
C      1  0.4740360000000  0.4119530000000  0.5360860000000 1.0
C      1  0.5237080000000  0.4399650000000  0.4816890000000 1.0
C      1  0.4744670000000  0.5384540000000  0.5838920000000 1.0
END
