TITL C-2441162-9305-339 0.0671767538518003 125000 -21489.4985797963 0 0 153 (C1) n - 1
REM
REM in /home/bkarasulu/work/CARBON/AIRSS/Generating-Clusters/ReaxFF-fromJPCA2015/Units_Real/with-SteepDescent/Higher-Symm
REM
REM
REM
REM
REM
REM ./C.cell (1df0a924f5614ab8850e4351716899ee)
REM
REM compiler GCC version 9.2.1 20190827 (Red Hat 9.2.1-1)
REM options -cpp -mtune=generic -march=x86-64 -g -O0 -fpre-include=/usr/include/finclude/math-vector-fortran.h
REM seed -1302434833 786214737 596239382 984091221 -331691734 1982613613 -1185635151 -2126571640 1668370928 -889493885 -2111751037 1388634766 -1132649744 51074707 524090818 1836509016 797225635 -1706716056 -952692793 500808247 1917537834 -163898992 1710522133 599337382 466974102 -1755797116 -1215401613 -1542711651 -2070432406 878393881 -992012224 -2049297722 -690618412
REM
CELL 1.54180   50.00000   50.00000   50.00000   90.00000   90.00000   90.00000
LATT -1
SFAC C  
C      1  0.4868410000000  0.4130700000000  0.4965070000000 1.0
C      1  0.5777280000000  0.4559660000000  0.4979560000000 1.0
C      1  0.5680600000000  0.5604660000000  0.4971200000000 1.0
C      1  0.4614360000000  0.5806710000000  0.4946320000000 1.0
C      1  0.4101840000000  0.4875700000000  0.4922090000000 1.0
C      1  0.5162800000000  0.4103440000000  0.5010660000000 1.0
C      1  0.4206200000000  0.4560550000000  0.4984080000000 1.0
C      1  0.4336910000000  0.5616360000000  0.5067270000000 1.0
C      1  0.5460460000000  0.5826150000000  0.5055910000000 1.0
C      1  0.5843190000000  0.4883520000000  0.5036360000000 1.0
C      1  0.5182540000000  0.4005270000000  0.5284700000000 1.0
C      1  0.5883580000000  0.4908170000000  0.5329840000000 1.0
C      1  0.5421360000000  0.5878940000000  0.5363460000000 1.0
C      1  0.4242480000000  0.5601730000000  0.5349120000000 1.0
C      1  0.4124930000000  0.4506690000000  0.5269390000000 1.0
C      1  0.4871800000000  0.4023120000000  0.4697110000000 1.0
C      1  0.4002990000000  0.4908890000000  0.4640040000000 1.0
C      1  0.4648320000000  0.5927470000000  0.4667050000000 1.0
C      1  0.5740280000000  0.5638260000000  0.4675040000000 1.0
C      1  0.5896940000000  0.4505130000000  0.4701010000000 1.0
C      1  0.5933210000000  0.4786710000000  0.4627800000000 1.0
C      1  0.5483640000000  0.5738210000000  0.4585990000000 1.0
C      1  0.4288400000000  0.5628370000000  0.4586390000000 1.0
C      1  0.4255380000000  0.4489470000000  0.4492550000000 1.0
C      1  0.5142800000000  0.4053930000000  0.4580620000000 1.0
C      1  0.4127960000000  0.4779250000000  0.5373620000000 1.0
C      1  0.4644390000000  0.5841590000000  0.5444680000000 1.0
C      1  0.5712790000000  0.5594790000000  0.5439800000000 1.0
C      1  0.5712260000000  0.4566740000000  0.5483770000000 1.0
C      1  0.4935140000000  0.4109010000000  0.5400420000000 1.0
C      1  0.5104600000000  0.6012720000000  0.4822040000000 1.0
C      1  0.4031840000000  0.5326690000000  0.4863560000000 1.0
C      1  0.4395130000000  0.4153840000000  0.4858190000000 1.0
C      1  0.5592140000000  0.4146890000000  0.4838060000000 1.0
C      1  0.6034360000000  0.5256800000000  0.4853690000000 1.0
C      1  0.5019330000000  0.5903860000000  0.5124230000000 1.0
C      1  0.6016780000000  0.5359280000000  0.5132310000000 1.0
C      1  0.5656220000000  0.4161310000000  0.5162340000000 1.0
C      1  0.4452790000000  0.4130210000000  0.5149420000000 1.0
C      1  0.3967010000000  0.5236850000000  0.5172280000000 1.0
C      1  0.5731480000000  0.4301420000000  0.4579250000000 1.0
C      1  0.5852300000000  0.5373650000000  0.4652600000000 1.0
C      1  0.4933070000000  0.5957600000000  0.4594210000000 1.0
C      1  0.4026730000000  0.5187020000000  0.4581440000000 1.0
C      1  0.4607800000000  0.4117930000000  0.4654230000000 1.0
C      1  0.4335330000000  0.4320400000000  0.5346580000000 1.0
C      1  0.4114510000000  0.5346380000000  0.5393590000000 1.0
C      1  0.5137320000000  0.5881450000000  0.5392730000000 1.0
C      1  0.5943100000000  0.5189470000000  0.5357240000000 1.0
C      1  0.5444500000000  0.4102310000000  0.5347440000000 1.0
C      1  0.4749180000000  0.4974720000000  0.5103590000000 1.0
C      1  0.4931220000000  0.4633030000000  0.5166850000000 1.0
C      1  0.5341130000000  0.4804870000000  0.5133190000000 1.0
C      1  0.5295850000000  0.5383170000000  0.5117690000000 1.0
C      1  0.4858530000000  0.5397410000000  0.5038030000000 1.0
C      1  0.5404560000000  0.4907650000000  0.4888200000000 1.0
C      1  0.5164200000000  0.4617010000000  0.5056760000000 1.0
C      1  0.4605270000000  0.4813900000000  0.4913180000000 1.0
C      1  0.4668890000000  0.5228160000000  0.5065950000000 1.0
C      1  0.5077360000000  0.5243870000000  0.4933290000000 1.0
C      1  0.4156410000000  0.5596900000000  0.4837030000000 1.0
C      1  0.4227740000000  0.4364730000000  0.4757100000000 1.0
C      1  0.5333850000000  0.4008950000000  0.4786320000000 1.0
C      1  0.6044830000000  0.4969460000000  0.4827460000000 1.0
C      1  0.5371260000000  0.5939840000000  0.4779260000000 1.0
C      1  0.5865420000000  0.5594300000000  0.5190460000000 1.0
C      1  0.5775630000000  0.4401620000000  0.5242950000000 1.0
C      1  0.4721780000000  0.4050750000000  0.5204560000000 1.0
C      1  0.3973890000000  0.4955230000000  0.5188060000000 1.0
C      1  0.4734840000000  0.5916550000000  0.5183050000000 1.0
C      1  0.4364690000000  0.4801650000000  0.5714930000000 1.0
C      1  0.4950380000000  0.4339330000000  0.5745840000000 1.0
C      1  0.5668070000000  0.4956910000000  0.5739250000000 1.0
C      1  0.5253400000000  0.5588840000000  0.5712580000000 1.0
C      1  0.4612720000000  0.5561990000000  0.5747530000000 1.0
C      1  0.5533570000000  0.4684520000000  0.4349340000000 1.0
C      1  0.5011150000000  0.4385180000000  0.4290200000000 1.0
C      1  0.4342120000000  0.4954800000000  0.4325580000000 1.0
C      1  0.4573370000000  0.5524460000000  0.4295950000000 1.0
C      1  0.5431720000000  0.5476720000000  0.4258760000000 1.0
C      1  0.5655630000000  0.4841730000000  0.5478480000000 1.0
C      1  0.5484330000000  0.5708280000000  0.5578680000000 1.0
C      1  0.4467130000000  0.5628270000000  0.5503150000000 1.0
C      1  0.4411340000000  0.4882770000000  0.5422990000000 1.0
C      1  0.5048040000000  0.4375930000000  0.5470680000000 1.0
C      1  0.4166490000000  0.4761180000000  0.4450800000000 1.0
C      1  0.4572350000000  0.5682580000000  0.4551390000000 1.0
C      1  0.5288830000000  0.5520480000000  0.4520990000000 1.0
C      1  0.5659940000000  0.4872800000000  0.4543810000000 1.0
C      1  0.4935660000000  0.4486470000000  0.4550780000000 1.0
C      1  0.4966890000000  0.5245770000000  0.5936290000000 1.0
C      1  0.4511370000000  0.5110810000000  0.5939240000000 1.0
C      1  0.4825460000000  0.4716100000000  0.5904290000000 1.0
C      1  0.5333200000000  0.4653320000000  0.5850180000000 1.0
C      1  0.5421850000000  0.5211940000000  0.5940730000000 1.0
C      1  0.5025720000000  0.5505700000000  0.4081090000000 1.0
C      1  0.5451660000000  0.5093570000000  0.4100520000000 1.0
C      1  0.5139870000000  0.4774710000000  0.4049520000000 1.0
C      1  0.4639180000000  0.4644720000000  0.4149240000000 1.0
C      1  0.4759450000000  0.5104440000000  0.4079300000000 1.0
C      1  0.5272840000000  0.4914690000000  0.5394740000000 1.0
C      1  0.5206580000000  0.5201590000000  0.5369260000000 1.0
C      1  0.4934500000000  0.5270480000000  0.5402590000000 1.0
C      1  0.4810740000000  0.5004700000000  0.5423560000000 1.0
C      1  0.4994360000000  0.4774650000000  0.5420980000000 1.0
C      1  0.4746650000000  0.4879290000000  0.4665490000000 1.0
C      1  0.4834240000000  0.5145220000000  0.4568300000000 1.0
C      1  0.5129050000000  0.5197810000000  0.4611500000000 1.0
C      1  0.5251080000000  0.4921110000000  0.4635090000000 1.0
C      1  0.5004480000000  0.4756320000000  0.4613460000000 1.0
C      1  0.4761020000000  0.5391990000000  0.4126910000000 1.0
C      1  0.4553150000000  0.4908950000000  0.4145780000000 1.0
C      1  0.4921080000000  0.4592150000000  0.4104450000000 1.0
C      1  0.5416410000000  0.4811830000000  0.4122140000000 1.0
C      1  0.5268400000000  0.5321130000000  0.4062580000000 1.0
C      1  0.5213910000000  0.5390680000000  0.5906060000000 1.0
C      1  0.5449020000000  0.4914830000000  0.5922480000000 1.0
C      1  0.5072920000000  0.4541520000000  0.5929000000000 1.0
C      1  0.4554040000000  0.4831640000000  0.5945630000000 1.0
C      1  0.4688690000000  0.5323360000000  0.5896340000000 1.0
C      1  0.5511460000000  0.4432400000000  0.4891260000000 1.0
C      1  0.5544250000000  0.5335820000000  0.4992810000000 1.0
C      1  0.4788630000000  0.5599230000000  0.4862290000000 1.0
C      1  0.4281980000000  0.5139960000000  0.4894200000000 1.0
C      1  0.4763350000000  0.4450200000000  0.5017910000000 1.0
C      1  0.4518720000000  0.4585290000000  0.5066440000000 1.0
C      1  0.4407070000000  0.5300190000000  0.5100530000000 1.0
C      1  0.5215480000000  0.5664750000000  0.5063760000000 1.0
C      1  0.5618960000000  0.5073690000000  0.4956340000000 1.0
C      1  0.5267510000000  0.4386020000000  0.4983660000000 1.0
C      1  0.5014240000000  0.5713300000000  0.4276980000000 1.0
C      1  0.4319510000000  0.5421350000000  0.4385610000000 1.0
C      1  0.4493860000000  0.4470600000000  0.4328240000000 1.0
C      1  0.5247440000000  0.4251840000000  0.4387380000000 1.0
C      1  0.5623240000000  0.5252430000000  0.4271630000000 1.0
C      1  0.4814010000000  0.5759430000000  0.5670100000000 1.0
C      1  0.5659790000000  0.5238380000000  0.5781080000000 1.0
C      1  0.5491640000000  0.4498030000000  0.5661960000000 1.0
C      1  0.4699910000000  0.4471630000000  0.5689330000000 1.0
C      1  0.4299170000000  0.5092990000000  0.5761910000000 1.0
C      1  0.5505880000000  0.4398300000000  0.4416840000000 1.0
C      1  0.5672340000000  0.5166780000000  0.4542770000000 1.0
C      1  0.4996380000000  0.5659810000000  0.4553710000000 1.0
C      1  0.4306500000000  0.5175390000000  0.4498530000000 1.0
C      1  0.4670590000000  0.4370660000000  0.4528890000000 1.0
C      1  0.4521860000000  0.4503360000000  0.5475900000000 1.0
C      1  0.4342010000000  0.5171030000000  0.5481530000000 1.0
C      1  0.5033430000000  0.5625010000000  0.5520500000000 1.0
C      1  0.5754390000000  0.5328950000000  0.5525350000000 1.0
C      1  0.5333630000000  0.4320580000000  0.5505560000000 1.0
C      1  0.5016720000000  0.4958860000000  0.5924400000000 1.0
C      1  0.5003060000000  0.4995350000000  0.4058260000000 1.0
C      1  0.5012330000000  0.4965540000000  0.4967350000000 1.0
END
