TITL C-2441168-9922-403 0.019313988308247 125000 -7981.68386796103 0 0 56 (C1) n - 1
REM
REM in /home/bkarasulu/work/CARBON/AIRSS/Generating-Clusters/ReaxFF-fromJPCA2015/Units_Real/with-SteepDescent/Higher-Symm
REM
REM
REM
REM
REM
REM ./C.cell (1df0a924f5614ab8850e4351716899ee)
REM
REM compiler GCC version 9.2.1 20190827 (Red Hat 9.2.1-1)
REM options -cpp -mtune=generic -march=x86-64 -g -O0 -fpre-include=/usr/include/finclude/math-vector-fortran.h
REM seed 1825918206 1101465579 -1734646079 -1098969378 845972610 255151723 1361664829 287315619 -827369529 1799749741 1442905395 -755735120 1495277268 1152914065 -468971644 -1057856338 660650184 600668959 -1376389877 -1979333444 -1612523518 -90779102 166416681 -996725839 -1453573912 169258073 1886268137 468845420 1190200521 -1131668174 110527085 1896800713 625452516
REM
CELL 1.54180   50.00000   50.00000   50.00000   90.00000   90.00000   90.00000
LATT -1
SFAC C  
C      1  0.5234690000000  0.4419330000000  0.5227520000000 1.0
C      1  0.5408820000000  0.4532750000000  0.5037010000000 1.0
C      1  0.5160130000000  0.4423860000000  0.4574740000000 1.0
C      1  0.4885180000000  0.4463730000000  0.4551500000000 1.0
C      1  0.4550720000000  0.4460080000000  0.4921940000000 1.0
C      1  0.4582650000000  0.4478920000000  0.5199750000000 1.0
C      1  0.4993160000000  0.4439800000000  0.5379550000000 1.0
C      1  0.4656100000000  0.4568830000000  0.4682790000000 1.0
C      1  0.4331810000000  0.4525720000000  0.5087460000000 1.0
C      1  0.4759080000000  0.4590600000000  0.5386130000000 1.0
C      1  0.5243260000000  0.4489040000000  0.5530130000000 1.0
C      1  0.5649620000000  0.4700870000000  0.5106350000000 1.0
C      1  0.5392550000000  0.4504020000000  0.4742070000000 1.0
C      1  0.5059560000000  0.4561920000000  0.4353450000000 1.0
C      1  0.4159140000000  0.4762670000000  0.5111690000000 1.0
C      1  0.4683130000000  0.4798200000000  0.5587870000000 1.0
C      1  0.5195450000000  0.4722970000000  0.5666310000000 1.0
C      1  0.5670120000000  0.4833870000000  0.5350940000000 1.0
C      1  0.5584590000000  0.4681400000000  0.4633650000000 1.0
C      1  0.5110830000000  0.4829380000000  0.4238770000000 1.0
C      1  0.4500930000000  0.4766720000000  0.4530140000000 1.0
C      1  0.4851450000000  0.5672830000000  0.4695270000000 1.0
C      1  0.4681720000000  0.5641410000000  0.4919690000000 1.0
C      1  0.4763600000000  0.5575170000000  0.5192690000000 1.0
C      1  0.5004600000000  0.5680880000000  0.5322780000000 1.0
C      1  0.5279870000000  0.5664090000000  0.5208250000000 1.0
C      1  0.5324760000000  0.5645430000000  0.4910780000000 1.0
C      1  0.5116480000000  0.5591610000000  0.4703630000000 1.0
C      1  0.4494550000000  0.5152180000000  0.5163830000000 1.0
C      1  0.4861820000000  0.5267550000000  0.5533170000000 1.0
C      1  0.5437000000000  0.5178650000000  0.5431810000000 1.0
C      1  0.5478570000000  0.5137490000000  0.4911390000000 1.0
C      1  0.5353850000000  0.5159470000000  0.4640260000000 1.0
C      1  0.4894180000000  0.5276210000000  0.4442590000000 1.0
C      1  0.4510670000000  0.5166480000000  0.4872870000000 1.0
C      1  0.4702840000000  0.5481560000000  0.4539120000000 1.0
C      1  0.4526700000000  0.5440470000000  0.4772020000000 1.0
C      1  0.4676920000000  0.5330280000000  0.5313370000000 1.0
C      1  0.5071630000000  0.5479180000000  0.5526000000000 1.0
C      1  0.5346230000000  0.5455960000000  0.5415950000000 1.0
C      1  0.5474500000000  0.5413160000000  0.4946370000000 1.0
C      1  0.5137800000000  0.5345940000000  0.4574260000000 1.0
C      1  0.4180860000000  0.4920870000000  0.4883550000000 1.0
C      1  0.4442760000000  0.4905360000000  0.5489420000000 1.0
C      1  0.5138970000000  0.4955370000000  0.5794080000000 1.0
C      1  0.5637340000000  0.4990860000000  0.5575160000000 1.0
C      1  0.5749210000000  0.4901310000000  0.4644560000000 1.0
C      1  0.5363360000000  0.4935210000000  0.4297330000000 1.0
C      1  0.4650520000000  0.4941940000000  0.4378210000000 1.0
C      1  0.5393230000000  0.5099940000000  0.5708640000000 1.0
C      1  0.5708710000000  0.4940950000000  0.4936550000000 1.0
C      1  0.5563760000000  0.5058100000000  0.4448940000000 1.0
C      1  0.4879860000000  0.5037190000000  0.4264860000000 1.0
C      1  0.4353170000000  0.4993880000000  0.4675420000000 1.0
C      1  0.4268690000000  0.4989220000000  0.5290910000000 1.0
C      1  0.4868290000000  0.5019090000000  0.5676510000000 1.0
END
