TITL C-2441165-58-1215 0.0668496093026202 125000 -15471.152291263 0 0 121 (C1) n - 1
REM
REM in /home/bkarasulu/work/CARBON/AIRSS/Generating-Clusters/ReaxFF-fromJPCA2015/Units_Real/with-SteepDescent/Higher-Symm
REM
REM
REM
REM
REM
REM ./C.cell (1df0a924f5614ab8850e4351716899ee)
REM
REM compiler GCC version 9.2.1 20190827 (Red Hat 9.2.1-1)
REM options -cpp -mtune=generic -march=x86-64 -g -O0 -fpre-include=/usr/include/finclude/math-vector-fortran.h
REM seed 10219505 1760309295 972199053 487018932 -568110283 1719386255 -812154789 -872596533 -1807401838 1192872166 -2096203027 1310120143 730202127 639938429 -1781275806 -2041512652 -167318169 2099718595 1563147342 1835695613 295629031 1183812012 -1522855401 -1661000089 -1885288685 -1403909143 1585337530 998558452 -1702838468 1750997363 18502371 -1290167551 1965991526
REM
CELL 1.54180   50.00000   50.00000   50.00000   90.00000   90.00000   90.00000
LATT -1
SFAC C  
C      1  0.4024760000000  0.5083140000000  0.4674800000000 1.0
C      1  0.4053250000000  0.4628430000000  0.4878870000000 1.0
C      1  0.4062620000000  0.4925210000000  0.5341580000000 1.0
C      1  0.4104520000000  0.5350570000000  0.5050200000000 1.0
C      1  0.5904460000000  0.5065960000000  0.4630480000000 1.0
C      1  0.5924180000000  0.4620260000000  0.4892880000000 1.0
C      1  0.5894300000000  0.4887280000000  0.5294860000000 1.0
C      1  0.5869330000000  0.5336880000000  0.5024060000000 1.0
C      1  0.4853460000000  0.4651570000000  0.4175620000000 1.0
C      1  0.4846380000000  0.4202770000000  0.5354920000000 1.0
C      1  0.4847340000000  0.5368830000000  0.5853500000000 1.0
C      1  0.4845260000000  0.5818140000000  0.4646370000000 1.0
C      1  0.5148720000000  0.4646790000000  0.4146820000000 1.0
C      1  0.5137260000000  0.4170320000000  0.5362050000000 1.0
C      1  0.5149040000000  0.5369200000000  0.5830470000000 1.0
C      1  0.5146300000000  0.5866420000000  0.4626520000000 1.0
C      1  0.4107780000000  0.5344730000000  0.4752450000000 1.0
C      1  0.4071520000000  0.4805550000000  0.4640770000000 1.0
C      1  0.4092930000000  0.4701200000000  0.5165100000000 1.0
C      1  0.4139850000000  0.5211280000000  0.5304040000000 1.0
C      1  0.5860320000000  0.5317940000000  0.4748590000000 1.0
C      1  0.5942480000000  0.4786530000000  0.4666680000000 1.0
C      1  0.5799460000000  0.4641010000000  0.5156440000000 1.0
C      1  0.5852440000000  0.5180700000000  0.5276070000000 1.0
C      1  0.4369730000000  0.5455880000000  0.5084950000000 1.0
C      1  0.4411180000000  0.5067020000000  0.4562330000000 1.0
C      1  0.4444680000000  0.4571600000000  0.4925410000000 1.0
C      1  0.4448320000000  0.4901400000000  0.5444040000000 1.0
C      1  0.5602780000000  0.5438420000000  0.5084460000000 1.0
C      1  0.5603690000000  0.5081600000000  0.4549820000000 1.0
C      1  0.5557660000000  0.4483070000000  0.4857670000000 1.0
C      1  0.5562860000000  0.4889030000000  0.5516170000000 1.0
C      1  0.4591360000000  0.5499770000000  0.4447580000000 1.0
C      1  0.4628360000000  0.4450310000000  0.4525460000000 1.0
C      1  0.4520030000000  0.4487100000000  0.5572140000000 1.0
C      1  0.4592530000000  0.5541970000000  0.5500330000000 1.0
C      1  0.5386190000000  0.5503640000000  0.4465560000000 1.0
C      1  0.5376620000000  0.4442290000000  0.4510720000000 1.0
C      1  0.5387990000000  0.4509270000000  0.5564940000000 1.0
C      1  0.5508270000000  0.5554360000000  0.5558670000000 1.0
C      1  0.4598320000000  0.5212660000000  0.5022790000000 1.0
C      1  0.4617390000000  0.5017830000000  0.4784020000000 1.0
C      1  0.4629370000000  0.4773380000000  0.4977830000000 1.0
C      1  0.4624330000000  0.4972440000000  0.5233790000000 1.0
C      1  0.5404000000000  0.5215720000000  0.5030570000000 1.0
C      1  0.5404170000000  0.5025500000000  0.4795930000000 1.0
C      1  0.5383960000000  0.4800420000000  0.4993720000000 1.0
C      1  0.5394710000000  0.4982310000000  0.5231200000000 1.0
C      1  0.5637800000000  0.5372560000000  0.4579320000000 1.0
C      1  0.5740480000000  0.4571570000000  0.4662480000000 1.0
C      1  0.5738840000000  0.4688800000000  0.5445790000000 1.0
C      1  0.5689200000000  0.5397400000000  0.5390150000000 1.0
C      1  0.4335660000000  0.5346530000000  0.4563840000000 1.0
C      1  0.4282350000000  0.4587110000000  0.4703070000000 1.0
C      1  0.4268990000000  0.4691980000000  0.5414220000000 1.0
C      1  0.4337790000000  0.5410720000000  0.5381580000000 1.0
C      1  0.4763880000000  0.5090440000000  0.5715080000000 1.0
C      1  0.4747850000000  0.5693920000000  0.4926430000000 1.0
C      1  0.4770580000000  0.4932380000000  0.4303960000000 1.0
C      1  0.4774060000000  0.4324690000000  0.5097030000000 1.0
C      1  0.5232150000000  0.5101090000000  0.5713180000000 1.0
C      1  0.5239120000000  0.5745910000000  0.4880350000000 1.0
C      1  0.5246320000000  0.4898350000000  0.4264930000000 1.0
C      1  0.5242390000000  0.4294380000000  0.5094700000000 1.0
C      1  0.4809970000000  0.5893330000000  0.5160050000000 1.0
C      1  0.4791830000000  0.5156470000000  0.4103760000000 1.0
C      1  0.4836990000000  0.4074560000000  0.4844920000000 1.0
C      1  0.4734290000000  0.4837720000000  0.5900900000000 1.0
C      1  0.5170820000000  0.5899170000000  0.5097820000000 1.0
C      1  0.5202420000000  0.5148810000000  0.4112430000000 1.0
C      1  0.5134220000000  0.4141420000000  0.4854640000000 1.0
C      1  0.5265820000000  0.4853920000000  0.5916240000000 1.0
C      1  0.4488190000000  0.4319960000000  0.5036400000000 1.0
C      1  0.4461520000000  0.5063740000000  0.5679340000000 1.0
C      1  0.4463710000000  0.5706470000000  0.4970710000000 1.0
C      1  0.4483020000000  0.4960540000000  0.4300050000000 1.0
C      1  0.5543760000000  0.4325590000000  0.5085360000000 1.0
C      1  0.5523790000000  0.5100850000000  0.5685560000000 1.0
C      1  0.5506820000000  0.5707450000000  0.4983690000000 1.0
C      1  0.5514650000000  0.4969070000000  0.4302730000000 1.0
C      1  0.5419650000000  0.5854430000000  0.5220230000000 1.0
C      1  0.5505110000000  0.5175960000000  0.4106770000000 1.0
C      1  0.5549020000000  0.4179600000000  0.4830590000000 1.0
C      1  0.5547560000000  0.4874800000000  0.5855490000000 1.0
C      1  0.4504420000000  0.5913760000000  0.5164760000000 1.0
C      1  0.4499810000000  0.5162040000000  0.4094480000000 1.0
C      1  0.4532400000000  0.4100360000000  0.4851450000000 1.0
C      1  0.4457170000000  0.4858740000000  0.5875050000000 1.0
C      1  0.4745880000000  0.4593090000000  0.5723820000000 1.0
C      1  0.4647340000000  0.5825980000000  0.5395430000000 1.0
C      1  0.4640910000000  0.5400610000000  0.4169020000000 1.0
C      1  0.4663710000000  0.4170000000000  0.4609880000000 1.0
C      1  0.5273310000000  0.4592140000000  0.5816250000000 1.0
C      1  0.5287520000000  0.5702870000000  0.5426250000000 1.0
C      1  0.5339420000000  0.5397070000000  0.4186430000000 1.0
C      1  0.5328640000000  0.4170670000000  0.4643880000000 1.0
C      1  0.4855910000000  0.5349690000000  0.4562110000000 1.0
C      1  0.4866380000000  0.4569600000000  0.4660350000000 1.0
C      1  0.4882420000000  0.4660330000000  0.5470420000000 1.0
C      1  0.4839920000000  0.5437200000000  0.5336760000000 1.0
C      1  0.5125990000000  0.5371960000000  0.4594820000000 1.0
C      1  0.5147410000000  0.4580590000000  0.4653120000000 1.0
C      1  0.5167090000000  0.4664510000000  0.5427430000000 1.0
C      1  0.5115520000000  0.5468940000000  0.5357240000000 1.0
C      1  0.4641790000000  0.5822320000000  0.4449670000000 1.0
C      1  0.4648020000000  0.4448740000000  0.4213850000000 1.0
C      1  0.4604950000000  0.4206820000000  0.5544150000000 1.0
C      1  0.4648790000000  0.5565830000000  0.5826230000000 1.0
C      1  0.5347650000000  0.5829160000000  0.4430290000000 1.0
C      1  0.5349840000000  0.4433190000000  0.4211260000000 1.0
C      1  0.5347420000000  0.4200540000000  0.5563850000000 1.0
C      1  0.5382240000000  0.5548900000000  0.5837990000000 1.0
C      1  0.4864690000000  0.4592990000000  0.4968980000000 1.0
C      1  0.4867360000000  0.4960730000000  0.5423460000000 1.0
C      1  0.4810780000000  0.5419280000000  0.5038130000000 1.0
C      1  0.4845800000000  0.5045510000000  0.4588120000000 1.0
C      1  0.5162070000000  0.4601080000000  0.4956210000000 1.0
C      1  0.5156860000000  0.4966110000000  0.5416410000000 1.0
C      1  0.5137530000000  0.5324780000000  0.5083110000000 1.0
C      1  0.5124780000000  0.5078990000000  0.4693520000000 1.0
C      1  0.5014010000000  0.5067820000000  0.4989190000000 1.0
END
