TITL C-2441158-471-1427 0.048799308583728 125000 -16102.0198377074 0 0 116 (C1) n - 1
REM
REM in /home/bkarasulu/work/CARBON/AIRSS/Generating-Clusters/ReaxFF-fromJPCA2015/Units_Real/with-SteepDescent/Higher-Symm
REM
REM
REM
REM
REM
REM ./C.cell (1df0a924f5614ab8850e4351716899ee)
REM
REM compiler GCC version 9.2.1 20190827 (Red Hat 9.2.1-1)
REM options -cpp -mtune=generic -march=x86-64 -g -O0 -fpre-include=/usr/include/finclude/math-vector-fortran.h
REM seed 107885789 392568835 732651178 -731710866 -599289972 832643851 1351774947 -728010858 -200035883 -908097211 1629556508 1640804872 -18857786 636654398 1654599091 -1485858634 -1499666747 -557475740 -372163827 -514548649 1491557238 882250085 -1901461156 1923960232 1748263296 -246657221 -1190684733 -446844521 -1014319073 -75691654 -1786719870 375889614 1212506123
REM
CELL 1.54180   50.00000   50.00000   50.00000   90.00000   90.00000   90.00000
LATT -1
SFAC C  
C      1  0.4184920000000  0.4827250000000  0.5427770000000 1.0
C      1  0.5163800000000  0.4180530000000  0.5432390000000 1.0
C      1  0.5861660000000  0.5175580000000  0.5430260000000 1.0
C      1  0.4830200000000  0.5854780000000  0.5408480000000 1.0
C      1  0.4565370000000  0.4211390000000  0.5221370000000 1.0
C      1  0.5788950000000  0.4574050000000  0.5218150000000 1.0
C      1  0.5410150000000  0.5662420000000  0.5093360000000 1.0
C      1  0.4207570000000  0.5431170000000  0.5223850000000 1.0
C      1  0.5085410000000  0.4164130000000  0.5142250000000 1.0
C      1  0.5839470000000  0.5090680000000  0.5147130000000 1.0
C      1  0.4934610000000  0.5851970000000  0.5112630000000 1.0
C      1  0.4174090000000  0.4914440000000  0.5140240000000 1.0
C      1  0.4330200000000  0.5570840000000  0.4743590000000 1.0
C      1  0.4419140000000  0.4302640000000  0.4725840000000 1.0
C      1  0.5698490000000  0.4416360000000  0.4722020000000 1.0
C      1  0.5601440000000  0.5705500000000  0.4720920000000 1.0
C      1  0.4539930000000  0.4567030000000  0.4265460000000 1.0
C      1  0.5432200000000  0.4545620000000  0.4258390000000 1.0
C      1  0.5455280000000  0.5434420000000  0.4269390000000 1.0
C      1  0.4568100000000  0.5457960000000  0.4266440000000 1.0
C      1  0.4829130000000  0.5315940000000  0.4722720000000 1.0
C      1  0.4613800000000  0.4795170000000  0.4822770000000 1.0
C      1  0.5223900000000  0.4612400000000  0.4791660000000 1.0
C      1  0.5348330000000  0.5231740000000  0.4766230000000 1.0
C      1  0.4922860000000  0.4789680000000  0.5462110000000 1.0
C      1  0.5152150000000  0.4897330000000  0.5608760000000 1.0
C      1  0.5074790000000  0.5164640000000  0.5577510000000 1.0
C      1  0.4815160000000  0.5058290000000  0.5483430000000 1.0
C      1  0.4401700000000  0.4833630000000  0.4601990000000 1.0
C      1  0.5156730000000  0.4403950000000  0.4582970000000 1.0
C      1  0.5580750000000  0.5167990000000  0.4595990000000 1.0
C      1  0.4861410000000  0.5613220000000  0.4569320000000 1.0
C      1  0.5836850000000  0.4582210000000  0.4924540000000 1.0
C      1  0.5429970000000  0.5871510000000  0.4895610000000 1.0
C      1  0.4173950000000  0.5412900000000  0.4935260000000 1.0
C      1  0.4583900000000  0.4170350000000  0.4929870000000 1.0
C      1  0.4800620000000  0.4646210000000  0.5815830000000 1.0
C      1  0.5316700000000  0.4751160000000  0.5798440000000 1.0
C      1  0.5122890000000  0.5334490000000  0.5825910000000 1.0
C      1  0.4644830000000  0.5187950000000  0.5817760000000 1.0
C      1  0.5173700000000  0.5010150000000  0.5147810000000 1.0
C      1  0.5011830000000  0.5233670000000  0.5191590000000 1.0
C      1  0.4749170000000  0.5133940000000  0.5222520000000 1.0
C      1  0.5056520000000  0.4763880000000  0.5211200000000 1.0
C      1  0.5096420000000  0.4017840000000  0.4879020000000 1.0
C      1  0.5983480000000  0.5074760000000  0.4881450000000 1.0
C      1  0.4910630000000  0.5982500000000  0.4870240000000 1.0
C      1  0.4017810000000  0.4904870000000  0.4883560000000 1.0
C      1  0.4319030000000  0.5653480000000  0.5383650000000 1.0
C      1  0.4376270000000  0.4337920000000  0.5387470000000 1.0
C      1  0.5656780000000  0.4393340000000  0.5389700000000 1.0
C      1  0.5595550000000  0.5620560000000  0.5314670000000 1.0
C      1  0.5191190000000  0.5061680000000  0.4343130000000 1.0
C      1  0.4933260000000  0.5196610000000  0.4402690000000 1.0
C      1  0.4794160000000  0.4947720000000  0.4331800000000 1.0
C      1  0.5047320000000  0.4817230000000  0.4314670000000 1.0
C      1  0.4621250000000  0.4888760000000  0.5788350000000 1.0
C      1  0.5091470000000  0.4562810000000  0.5828250000000 1.0
C      1  0.5482320000000  0.5283950000000  0.5688920000000 1.0
C      1  0.4836490000000  0.5420880000000  0.5794700000000 1.0
C      1  0.5502960000000  0.4225130000000  0.4828880000000 1.0
C      1  0.5729520000000  0.5470030000000  0.4861320000000 1.0
C      1  0.4547200000000  0.5717430000000  0.4869900000000 1.0
C      1  0.4230500000000  0.4498140000000  0.4827950000000 1.0
C      1  0.5421650000000  0.4794480000000  0.4807890000000 1.0
C      1  0.5244850000000  0.5481710000000  0.4872930000000 1.0
C      1  0.4576120000000  0.5208890000000  0.4798460000000 1.0
C      1  0.4784100000000  0.4584980000000  0.4826550000000 1.0
C      1  0.5516810000000  0.5665060000000  0.4438980000000 1.0
C      1  0.4346170000000  0.5509540000000  0.4452620000000 1.0
C      1  0.4487260000000  0.4333400000000  0.4438940000000 1.0
C      1  0.5664790000000  0.4489160000000  0.4435200000000 1.0
C      1  0.5850470000000  0.5464610000000  0.5371930000000 1.0
C      1  0.4558580000000  0.5794020000000  0.5394810000000 1.0
C      1  0.4197040000000  0.4552140000000  0.5335770000000 1.0
C      1  0.5441570000000  0.4211360000000  0.5346310000000 1.0
C      1  0.5863640000000  0.5272350000000  0.4703220000000 1.0
C      1  0.4728870000000  0.5852800000000  0.4693920000000 1.0
C      1  0.4136580000000  0.4727910000000  0.4687490000000 1.0
C      1  0.5273790000000  0.4138360000000  0.4683770000000 1.0
C      1  0.5907230000000  0.4818530000000  0.4779290000000 1.0
C      1  0.5167130000000  0.5937170000000  0.4778640000000 1.0
C      1  0.4099080000000  0.5166980000000  0.4807290000000 1.0
C      1  0.4833880000000  0.4102610000000  0.4805790000000 1.0
C      1  0.4756940000000  0.4406820000000  0.5655440000000 1.0
C      1  0.5567500000000  0.4792320000000  0.5656100000000 1.0
C      1  0.5204880000000  0.5603050000000  0.5711570000000 1.0
C      1  0.4404610000000  0.5217490000000  0.5652330000000 1.0
C      1  0.4750570000000  0.5631200000000  0.5071270000000 1.0
C      1  0.4273950000000  0.4645990000000  0.5076040000000 1.0
C      1  0.5352180000000  0.4271170000000  0.5081330000000 1.0
C      1  0.5631400000000  0.5267250000000  0.5051280000000 1.0
C      1  0.4968710000000  0.5410160000000  0.4971910000000 1.0
C      1  0.4604750000000  0.5014790000000  0.5005510000000 1.0
C      1  0.5018050000000  0.4601420000000  0.4983870000000 1.0
C      1  0.5387030000000  0.5034310000000  0.4968700000000 1.0
C      1  0.4356410000000  0.5127940000000  0.4624440000000 1.0
C      1  0.4861160000000  0.4369700000000  0.4632650000000 1.0
C      1  0.5631820000000  0.4869420000000  0.4625330000000 1.0
C      1  0.5142260000000  0.5667590000000  0.4635530000000 1.0
C      1  0.5240750000000  0.5610720000000  0.4360980000000 1.0
C      1  0.4386380000000  0.5241730000000  0.4346030000000 1.0
C      1  0.4757000000000  0.4389980000000  0.4348090000000 1.0
C      1  0.5613330000000  0.4759980000000  0.4343090000000 1.0
C      1  0.4375520000000  0.4926330000000  0.5628790000000 1.0
C      1  0.5036010000000  0.4346860000000  0.5640540000000 1.0
C      1  0.5653930000000  0.5071940000000  0.5633180000000 1.0
C      1  0.4926570000000  0.5640410000000  0.5613590000000 1.0
C      1  0.5453900000000  0.5525090000000  0.5568150000000 1.0
C      1  0.4389270000000  0.5374830000000  0.5416420000000 1.0
C      1  0.4632210000000  0.4413320000000  0.5411190000000 1.0
C      1  0.5593490000000  0.4654820000000  0.5407090000000 1.0
C      1  0.5466110000000  0.5146610000000  0.4323310000000 1.0
C      1  0.4854620000000  0.5470360000000  0.4315970000000 1.0
C      1  0.4525730000000  0.4851570000000  0.4327940000000 1.0
C      1  0.5147100000000  0.4541940000000  0.4310470000000 1.0
END
