TITL C-2441159-1093-1170 0.0427985959088384 125000 -14423.401262423 0 0 107 (C1) n - 1
REM
REM in /home/bkarasulu/work/CARBON/AIRSS/Generating-Clusters/ReaxFF-fromJPCA2015/Units_Real/with-SteepDescent/Higher-Symm
REM
REM
REM
REM
REM
REM ./C.cell (1df0a924f5614ab8850e4351716899ee)
REM
REM compiler GCC version 9.2.1 20190827 (Red Hat 9.2.1-1)
REM options -cpp -mtune=generic -march=x86-64 -g -O0 -fpre-include=/usr/include/finclude/math-vector-fortran.h
REM seed 1385173908 1318433698 -1231083570 280970270 -627395543 153840508 595426337 1065294043 657388810 1180096706 -29765722 -348137609 -330968536 88069397 -1119893976 1086665619 -162111245 -892175526 -1025779084 -1409548036 1604737750 61474051 2094223628 -701444849 -1969547306 -1575705624 -257142528 644215707 -812469128 455495626 2094518131 -399398363 122726797
REM
CELL 1.54180   50.00000   50.00000   50.00000   90.00000   90.00000   90.00000
LATT -1
SFAC C  
C      1  0.5369940000000  0.4886390000000  0.5622190000000 1.0
C      1  0.5289360000000  0.5176020000000  0.5598510000000 1.0
C      1  0.4897790000000  0.4843400000000  0.4041360000000 1.0
C      1  0.4903340000000  0.5153210000000  0.4037940000000 1.0
C      1  0.4736850000000  0.4853180000000  0.5541180000000 1.0
C      1  0.4730210000000  0.5152230000000  0.5538630000000 1.0
C      1  0.4854730000000  0.5861270000000  0.5040940000000 1.0
C      1  0.4854320000000  0.4136880000000  0.5015250000000 1.0
C      1  0.4936300000000  0.5585600000000  0.5081180000000 1.0
C      1  0.4930900000000  0.4444390000000  0.5039210000000 1.0
C      1  0.5354260000000  0.5734780000000  0.5032360000000 1.0
C      1  0.5359250000000  0.4262480000000  0.5036070000000 1.0
C      1  0.4673370000000  0.4209340000000  0.4685420000000 1.0
C      1  0.4743640000000  0.5828490000000  0.4773510000000 1.0
C      1  0.5505410000000  0.4878310000000  0.4740680000000 1.0
C      1  0.5505810000000  0.5135200000000  0.4744080000000 1.0
C      1  0.4368270000000  0.5536180000000  0.5463480000000 1.0
C      1  0.4368950000000  0.4444710000000  0.5443920000000 1.0
C      1  0.4209510000000  0.4744500000000  0.4544390000000 1.0
C      1  0.4210130000000  0.5261980000000  0.4550220000000 1.0
C      1  0.4228930000000  0.5303280000000  0.5386080000000 1.0
C      1  0.4230540000000  0.4686350000000  0.5376580000000 1.0
C      1  0.4610770000000  0.5396340000000  0.4828350000000 1.0
C      1  0.4601550000000  0.4641130000000  0.4811580000000 1.0
C      1  0.5769200000000  0.4577830000000  0.4974810000000 1.0
C      1  0.5761340000000  0.5420660000000  0.4981500000000 1.0
C      1  0.5380830000000  0.4861270000000  0.5121280000000 1.0
C      1  0.5371560000000  0.5148120000000  0.5115200000000 1.0
C      1  0.5256080000000  0.5737780000000  0.4756470000000 1.0
C      1  0.5271290000000  0.4251110000000  0.4755240000000 1.0
C      1  0.4136810000000  0.4857340000000  0.4789570000000 1.0
C      1  0.4132720000000  0.5151110000000  0.4796120000000 1.0
C      1  0.4596960000000  0.5792520000000  0.5186050000000 1.0
C      1  0.4590170000000  0.4234340000000  0.5179690000000 1.0
C      1  0.4872240000000  0.4865590000000  0.5804290000000 1.0
C      1  0.4868370000000  0.5151760000000  0.5798810000000 1.0
C      1  0.4528600000000  0.5342580000000  0.4561800000000 1.0
C      1  0.4530150000000  0.4661720000000  0.4541870000000 1.0
C      1  0.4260780000000  0.4722200000000  0.5071260000000 1.0
C      1  0.4256990000000  0.5286550000000  0.5075180000000 1.0
C      1  0.5706310000000  0.4802170000000  0.5151040000000 1.0
C      1  0.5690930000000  0.5196910000000  0.5156050000000 1.0
C      1  0.5039820000000  0.5121200000000  0.4640000000000 1.0
C      1  0.5045230000000  0.4875830000000  0.4651560000000 1.0
C      1  0.4998040000000  0.4339800000000  0.4673760000000 1.0
C      1  0.4967750000000  0.5698040000000  0.4639060000000 1.0
C      1  0.4660780000000  0.4857490000000  0.4207800000000 1.0
C      1  0.4657360000000  0.5146160000000  0.4193210000000 1.0
C      1  0.5447400000000  0.5503730000000  0.4486620000000 1.0
C      1  0.5454160000000  0.4497900000000  0.4490920000000 1.0
C      1  0.5729450000000  0.4729030000000  0.5433870000000 1.0
C      1  0.5698770000000  0.5246370000000  0.5443630000000 1.0
C      1  0.5217370000000  0.4743920000000  0.5333420000000 1.0
C      1  0.5207580000000  0.5263790000000  0.5319480000000 1.0
C      1  0.5170720000000  0.4412780000000  0.5218010000000 1.0
C      1  0.5169780000000  0.5601400000000  0.5222560000000 1.0
C      1  0.4737720000000  0.4855610000000  0.4487790000000 1.0
C      1  0.4742040000000  0.5144670000000  0.4496970000000 1.0
C      1  0.4939050000000  0.4458700000000  0.4414750000000 1.0
C      1  0.4930260000000  0.5552230000000  0.4381120000000 1.0
C      1  0.5117590000000  0.4301930000000  0.5496790000000 1.0
C      1  0.5119460000000  0.5704740000000  0.5494210000000 1.0
C      1  0.5771590000000  0.5153480000000  0.4454410000000 1.0
C      1  0.5774140000000  0.4853650000000  0.4452870000000 1.0
C      1  0.5597370000000  0.5618180000000  0.5132620000000 1.0
C      1  0.5604180000000  0.4374450000000  0.5130870000000 1.0
C      1  0.4647270000000  0.5594850000000  0.4380800000000 1.0
C      1  0.4654200000000  0.4382090000000  0.4454000000000 1.0
C      1  0.4933210000000  0.5146120000000  0.5281010000000 1.0
C      1  0.4948120000000  0.4852150000000  0.5300050000000 1.0
C      1  0.4363470000000  0.5514990000000  0.4912830000000 1.0
C      1  0.4368370000000  0.4501480000000  0.4904170000000 1.0
C      1  0.5061110000000  0.4677340000000  0.4221900000000 1.0
C      1  0.5072750000000  0.5317540000000  0.4200370000000 1.0
C      1  0.5298500000000  0.4844570000000  0.4240530000000 1.0
C      1  0.5303640000000  0.5150110000000  0.4235080000000 1.0
C      1  0.4604090000000  0.5647310000000  0.5568820000000 1.0
C      1  0.4608160000000  0.4372090000000  0.5576180000000 1.0
C      1  0.4398910000000  0.4851820000000  0.5541760000000 1.0
C      1  0.4398900000000  0.5131420000000  0.5549370000000 1.0
C      1  0.5543140000000  0.4701130000000  0.4323460000000 1.0
C      1  0.5547300000000  0.5297290000000  0.4325230000000 1.0
C      1  0.5371390000000  0.4403380000000  0.5596040000000 1.0
C      1  0.5372970000000  0.5612710000000  0.5595470000000 1.0
C      1  0.4885020000000  0.5619720000000  0.5645280000000 1.0
C      1  0.4889140000000  0.4390490000000  0.5652400000000 1.0
C      1  0.4994870000000  0.5411260000000  0.5825010000000 1.0
C      1  0.5011780000000  0.4612630000000  0.5819280000000 1.0
C      1  0.4751200000000  0.4832660000000  0.4958090000000 1.0
C      1  0.4772280000000  0.5161870000000  0.4977750000000 1.0
C      1  0.5361770000000  0.4495440000000  0.4716210000000 1.0
C      1  0.5344500000000  0.5504680000000  0.4704050000000 1.0
C      1  0.5586750000000  0.5522040000000  0.5415360000000 1.0
C      1  0.5596240000000  0.4464650000000  0.5411090000000 1.0
C      1  0.5292540000000  0.4626690000000  0.5766940000000 1.0
C      1  0.5282500000000  0.5401320000000  0.5780830000000 1.0
C      1  0.5767090000000  0.5263480000000  0.4728640000000 1.0
C      1  0.5769690000000  0.4742910000000  0.4734590000000 1.0
C      1  0.5257620000000  0.5243670000000  0.4832200000000 1.0
C      1  0.5260340000000  0.4756570000000  0.4828360000000 1.0
C      1  0.4474050000000  0.5781390000000  0.4913470000000 1.0
C      1  0.4465470000000  0.4228510000000  0.4902840000000 1.0
C      1  0.4529800000000  0.5144100000000  0.5142840000000 1.0
C      1  0.4538530000000  0.4843910000000  0.5150550000000 1.0
C      1  0.4685060000000  0.5512440000000  0.5204400000000 1.0
C      1  0.4700330000000  0.4503900000000  0.5204290000000 1.0
C      1  0.5655790000000  0.4978600000000  0.5573070000000 1.0
END
