TITL C-2441164-471-1486 0.0471532623556112 125000 -18470.553545338 0 0 138 (C1) n - 1
REM
REM in /home/bkarasulu/work/CARBON/AIRSS/Generating-Clusters/ReaxFF-fromJPCA2015/Units_Real/with-SteepDescent/Higher-Symm
REM
REM
REM
REM
REM
REM ./C.cell (1df0a924f5614ab8850e4351716899ee)
REM
REM compiler GCC version 9.2.1 20190827 (Red Hat 9.2.1-1)
REM options -cpp -mtune=generic -march=x86-64 -g -O0 -fpre-include=/usr/include/finclude/math-vector-fortran.h
REM seed -788412904 1583750674 300554291 -1984442594 302448098 1766239481 -1737921110 1343243457 450419713 396766403 -1272436279 1849029649 -1003415237 -857076446 -1945318492 -1607048684 1238844621 -765485589 1761134758 -1058236931 -108004985 559125870 -127256521 669856803 877637365 -1887569571 1337344439 136388221 -1849221944 1347464735 -1347729010 -2094424201 -1552602969
REM
CELL 1.54180   50.00000   50.00000   50.00000   90.00000   90.00000   90.00000
LATT -1
SFAC C  
C      1  0.5443060000000  0.4838030000000  0.4711660000000 1.0
C      1  0.4967950000000  0.5466580000000  0.4731090000000 1.0
C      1  0.4624480000000  0.4745160000000  0.4723120000000 1.0
C      1  0.5092670000000  0.4296470000000  0.4496120000000 1.0
C      1  0.5578540000000  0.5469320000000  0.4502180000000 1.0
C      1  0.4316650000000  0.5259870000000  0.4481140000000 1.0
C      1  0.5194160000000  0.5491420000000  0.4190670000000 1.0
C      1  0.4456000000000  0.4887990000000  0.4185110000000 1.0
C      1  0.5287220000000  0.4584130000000  0.4155030000000 1.0
C      1  0.5173780000000  0.5441130000000  0.5228020000000 1.0
C      1  0.4509770000000  0.4899750000000  0.5201930000000 1.0
C      1  0.5321640000000  0.4629540000000  0.5207480000000 1.0
C      1  0.5284720000000  0.5940500000000  0.4778370000000 1.0
C      1  0.4037590000000  0.4766020000000  0.4785370000000 1.0
C      1  0.5672230000000  0.4280610000000  0.4764520000000 1.0
C      1  0.4321710000000  0.4716470000000  0.4376250000000 1.0
C      1  0.5521040000000  0.4559680000000  0.4328520000000 1.0
C      1  0.5109680000000  0.5710390000000  0.4352870000000 1.0
C      1  0.4820720000000  0.4059640000000  0.5151320000000 1.0
C      1  0.5928040000000  0.5321720000000  0.5147140000000 1.0
C      1  0.4283300000000  0.5624400000000  0.5158330000000 1.0
C      1  0.4520960000000  0.4318070000000  0.4913960000000 1.0
C      1  0.5824400000000  0.4924490000000  0.4908760000000 1.0
C      1  0.4632840000000  0.5742380000000  0.4915540000000 1.0
C      1  0.5320290000000  0.5764860000000  0.4548210000000 1.0
C      1  0.4178140000000  0.4889460000000  0.4561720000000 1.0
C      1  0.5494600000000  0.4368000000000  0.4540560000000 1.0
C      1  0.4259660000000  0.5381970000000  0.5332410000000 1.0
C      1  0.5048050000000  0.4160250000000  0.5323820000000 1.0
C      1  0.5696420000000  0.5474140000000  0.5280340000000 1.0
C      1  0.4585590000000  0.5417330000000  0.4202760000000 1.0
C      1  0.4794950000000  0.4459340000000  0.4201790000000 1.0
C      1  0.5627510000000  0.5168800000000  0.4203580000000 1.0
C      1  0.4755410000000  0.5174490000000  0.5956010000000 1.0
C      1  0.4957980000000  0.4714720000000  0.5894900000000 1.0
C      1  0.5274460000000  0.5115460000000  0.5880730000000 1.0
C      1  0.5157170000000  0.4826160000000  0.4028540000000 1.0
C      1  0.5140120000000  0.5101780000000  0.4117790000000 1.0
C      1  0.4891240000000  0.4946720000000  0.4058220000000 1.0
C      1  0.4506260000000  0.5818660000000  0.5168980000000 1.0
C      1  0.4548350000000  0.4159060000000  0.5161160000000 1.0
C      1  0.5947760000000  0.5022120000000  0.5154730000000 1.0
C      1  0.5299380000000  0.4577410000000  0.4731020000000 1.0
C      1  0.5250120000000  0.5501550000000  0.4728370000000 1.0
C      1  0.4445950000000  0.4972540000000  0.4733470000000 1.0
C      1  0.5476490000000  0.5433960000000  0.4228020000000 1.0
C      1  0.4410160000000  0.5183920000000  0.4213580000000 1.0
C      1  0.5078510000000  0.4390490000000  0.4213630000000 1.0
C      1  0.4405240000000  0.5051940000000  0.5009870000000 1.0
C      1  0.5262090000000  0.4470690000000  0.4999360000000 1.0
C      1  0.5333980000000  0.5504540000000  0.5004120000000 1.0
C      1  0.4370330000000  0.4286750000000  0.5359490000000 1.0
C      1  0.5927370000000  0.4809740000000  0.5360960000000 1.0
C      1  0.4725970000000  0.5908420000000  0.5349370000000 1.0
C      1  0.4245540000000  0.4526400000000  0.5248070000000 1.0
C      1  0.5790260000000  0.4573550000000  0.5275430000000 1.0
C      1  0.5004410000000  0.5880690000000  0.5247320000000 1.0
C      1  0.4063010000000  0.4890490000000  0.5296080000000 1.0
C      1  0.5558040000000  0.4229000000000  0.5292810000000 1.0
C      1  0.5364080000000  0.5900820000000  0.5272690000000 1.0
C      1  0.4567510000000  0.5352230000000  0.5421710000000 1.0
C      1  0.4905080000000  0.4431070000000  0.5410750000000 1.0
C      1  0.5555080000000  0.5198950000000  0.5381720000000 1.0
C      1  0.4849490000000  0.5592980000000  0.4479440000000 1.0
C      1  0.4527750000000  0.4550990000000  0.4528490000000 1.0
C      1  0.5622690000000  0.4823420000000  0.4469180000000 1.0
C      1  0.5438900000000  0.5347830000000  0.5813650000000 1.0
C      1  0.4480660000000  0.5231390000000  0.5849280000000 1.0
C      1  0.5057860000000  0.4437690000000  0.5831530000000 1.0
C      1  0.4969510000000  0.5631570000000  0.5669710000000 1.0
C      1  0.4453740000000  0.4666720000000  0.5655820000000 1.0
C      1  0.5562910000000  0.4689120000000  0.5665040000000 1.0
C      1  0.5234210000000  0.4183340000000  0.5025340000000 1.0
C      1  0.5594730000000  0.5618420000000  0.5035060000000 1.0
C      1  0.4162350000000  0.5210470000000  0.5028240000000 1.0
C      1  0.5543680000000  0.5061320000000  0.4872050000000 1.0
C      1  0.4569590000000  0.5443380000000  0.4893070000000 1.0
C      1  0.4841540000000  0.4414960000000  0.4883920000000 1.0
C      1  0.4684140000000  0.5354900000000  0.5152170000000 1.0
C      1  0.4849960000000  0.4537110000000  0.5149580000000 1.0
C      1  0.5442540000000  0.5084870000000  0.5147360000000 1.0
C      1  0.5162880000000  0.4566160000000  0.5597200000000 1.0
C      1  0.5359950000000  0.5339670000000  0.5524940000000 1.0
C      1  0.4548790000000  0.5081140000000  0.5630790000000 1.0
C      1  0.4861610000000  0.4137910000000  0.4579010000000 1.0
C      1  0.5846750000000  0.5329300000000  0.4585170000000 1.0
C      1  0.4305950000000  0.5537970000000  0.4573410000000 1.0
C      1  0.5067010000000  0.4953750000000  0.4801140000000 1.0
C      1  0.4987470000000  0.5223040000000  0.4862090000000 1.0
C      1  0.4825570000000  0.4837940000000  0.4896300000000 1.0
C      1  0.5776520000000  0.4538090000000  0.4777840000000 1.0
C      1  0.4982100000000  0.5952920000000  0.4800270000000 1.0
C      1  0.4199890000000  0.4538600000000  0.4801650000000 1.0
C      1  0.5323200000000  0.4185990000000  0.5455470000000 1.0
C      1  0.5523320000000  0.5718020000000  0.5434240000000 1.0
C      1  0.4136970000000  0.5128650000000  0.5449490000000 1.0
C      1  0.5532800000000  0.4540140000000  0.5391850000000 1.0
C      1  0.5083730000000  0.5646610000000  0.5399750000000 1.0
C      1  0.4345620000000  0.4762880000000  0.5383490000000 1.0
C      1  0.5008760000000  0.4905530000000  0.4515390000000 1.0
C      1  0.5242590000000  0.5066090000000  0.4395890000000 1.0
C      1  0.4813010000000  0.5121020000000  0.4463140000000 1.0
C      1  0.5573980000000  0.4984060000000  0.5651330000000 1.0
C      1  0.4691180000000  0.5528650000000  0.5651580000000 1.0
C      1  0.4697780000000  0.4501230000000  0.5655390000000 1.0
C      1  0.4878010000000  0.4938730000000  0.5400380000000 1.0
C      1  0.5130980000000  0.4944750000000  0.5466100000000 1.0
C      1  0.4956630000000  0.5177610000000  0.5525650000000 1.0
C      1  0.4678230000000  0.4308520000000  0.4427400000000 1.0
C      1  0.5807260000000  0.5099940000000  0.4413940000000 1.0
C      1  0.4533760000000  0.5609410000000  0.4413700000000 1.0
C      1  0.5009370000000  0.4542860000000  0.4645890000000 1.0
C      1  0.5405010000000  0.5263260000000  0.4622040000000 1.0
C      1  0.4581310000000  0.5210780000000  0.4625390000000 1.0
C      1  0.4735030000000  0.5813700000000  0.5623530000000 1.0
C      1  0.4436390000000  0.4375480000000  0.5630640000000 1.0
C      1  0.5819720000000  0.4830450000000  0.5634510000000 1.0
C      1  0.5746510000000  0.4671710000000  0.5014070000000 1.0
C      1  0.4916950000000  0.5720980000000  0.4988550000000 1.0
C      1  0.4360290000000  0.4508330000000  0.4988330000000 1.0
C      1  0.5467870000000  0.4956490000000  0.4295780000000 1.0
C      1  0.4866710000000  0.5355470000000  0.4288640000000 1.0
C      1  0.4705900000000  0.4742200000000  0.4141320000000 1.0
C      1  0.4007210000000  0.4956480000000  0.5018890000000 1.0
C      1  0.5526180000000  0.4159130000000  0.5011790000000 1.0
C      1  0.5477270000000  0.5892270000000  0.5009370000000 1.0
C      1  0.4258750000000  0.5503710000000  0.4885520000000 1.0
C      1  0.4927300000000  0.4107990000000  0.4876580000000 1.0
C      1  0.5924180000000  0.5324300000000  0.4864610000000 1.0
C      1  0.5179200000000  0.4832220000000  0.5735360000000 1.0
C      1  0.5013120000000  0.5229150000000  0.5812260000000 1.0
C      1  0.4736800000000  0.4903690000000  0.5871560000000 1.0
C      1  0.5253520000000  0.4896120000000  0.5209960000000 1.0
C      1  0.4957340000000  0.5274260000000  0.5134490000000 1.0
C      1  0.4774480000000  0.4822010000000  0.5168400000000 1.0
C      1  0.5319680000000  0.4363670000000  0.5692850000000 1.0
C      1  0.5386570000000  0.5606930000000  0.5667250000000 1.0
C      1  0.4293090000000  0.5039350000000  0.5680890000000 1.0
END
