TITL C-2441167-4473-726 0.175031748683742 125000 -22614.9238492164 0 0 185 (C1) n - 1
REM
REM in /home/bkarasulu/work/CARBON/AIRSS/Generating-Clusters/ReaxFF-fromJPCA2015/Units_Real/with-SteepDescent/Higher-Symm
REM
REM
REM
REM
REM
REM ./C.cell (1df0a924f5614ab8850e4351716899ee)
REM
REM compiler GCC version 9.2.1 20190827 (Red Hat 9.2.1-1)
REM options -cpp -mtune=generic -march=x86-64 -g -O0 -fpre-include=/usr/include/finclude/math-vector-fortran.h
REM seed -487965114 -1668343579 -1104845265 -309255406 1211083467 -883425411 835297529 1580978361 -454488419 1689298554 -885599424 -773024283 832420139 170897046 -1815608460 -437970893 1225303377 1002809481 -1281538588 -1223061121 2120937044 -1653923005 -530919052 -1714002646 -2054887567 -1328617575 -710296783 248817916 1273541816 1503976039 -1494772934 745922067 245711736
REM
CELL 1.54180   50.00000   50.00000   50.00000   90.00000   90.00000   90.00000
LATT -1
SFAC C  
C      1  0.4010280000000  0.5378790000000  0.5324300000000 1.0
C      1  0.4404410000000  0.5841440000000  0.5292970000000 1.0
C      1  0.4761710000000  0.6040350000000  0.5353970000000 1.0
C      1  0.5442230000000  0.5999600000000  0.5336000000000 1.0
C      1  0.5906160000000  0.5585310000000  0.5298820000000 1.0
C      1  0.6001030000000  0.5032780000000  0.5452330000000 1.0
C      1  0.5823010000000  0.4389940000000  0.5315370000000 1.0
C      1  0.5409070000000  0.4013430000000  0.5223250000000 1.0
C      1  0.4771640000000  0.3980270000000  0.5319280000000 1.0
C      1  0.4374180000000  0.4178000000000  0.5389050000000 1.0
C      1  0.3960970000000  0.4682810000000  0.5338130000000 1.0
C      1  0.4187570000000  0.5479260000000  0.5534070000000 1.0
C      1  0.4567790000000  0.5905050000000  0.5534500000000 1.0
C      1  0.5102770000000  0.5916920000000  0.5545710000000 1.0
C      1  0.5579530000000  0.5748590000000  0.5500690000000 1.0
C      1  0.5908980000000  0.5309640000000  0.5499860000000 1.0
C      1  0.5888490000000  0.4759370000000  0.5536440000000 1.0
C      1  0.5640550000000  0.4332850000000  0.5544860000000 1.0
C      1  0.5158780000000  0.4094460000000  0.5532230000000 1.0
C      1  0.4617270000000  0.4097760000000  0.5547750000000 1.0
C      1  0.4250250000000  0.4443520000000  0.5513270000000 1.0
C      1  0.4018270000000  0.4938460000000  0.5521810000000 1.0
C      1  0.6045410000000  0.5023220000000  0.4728790000000 1.0
C      1  0.5909400000000  0.4479950000000  0.4739390000000 1.0
C      1  0.5476050000000  0.4055280000000  0.4764690000000 1.0
C      1  0.4854420000000  0.3952930000000  0.4778290000000 1.0
C      1  0.4307100000000  0.4152170000000  0.4843520000000 1.0
C      1  0.3978500000000  0.4660610000000  0.4831540000000 1.0
C      1  0.3981470000000  0.5257530000000  0.4709670000000 1.0
C      1  0.4303010000000  0.5783960000000  0.4787350000000 1.0
C      1  0.4804390000000  0.6064820000000  0.4842640000000 1.0
C      1  0.5430010000000  0.5976030000000  0.4827800000000 1.0
C      1  0.5869980000000  0.5593430000000  0.4764430000000 1.0
C      1  0.5596000000000  0.5798810000000  0.4983430000000 1.0
C      1  0.5942520000000  0.5361670000000  0.4928030000000 1.0
C      1  0.5960610000000  0.4814090000000  0.4972180000000 1.0
C      1  0.5733770000000  0.4268260000000  0.5042610000000 1.0
C      1  0.5214360000000  0.4010220000000  0.4966990000000 1.0
C      1  0.4661210000000  0.3954330000000  0.5049130000000 1.0
C      1  0.4234260000000  0.4404440000000  0.5011420000000 1.0
C      1  0.3997540000000  0.4928860000000  0.4955440000000 1.0
C      1  0.4082920000000  0.5494180000000  0.5043960000000 1.0
C      1  0.4450160000000  0.5924540000000  0.5027910000000 1.0
C      1  0.5057440000000  0.5970160000000  0.4989040000000 1.0
C      1  0.4128010000000  0.5112920000000  0.5305770000000 1.0
C      1  0.4369420000000  0.5567150000000  0.5330060000000 1.0
C      1  0.4869020000000  0.5827200000000  0.5190340000000 1.0
C      1  0.5235420000000  0.5803070000000  0.5324340000000 1.0
C      1  0.5625140000000  0.5527480000000  0.5304490000000 1.0
C      1  0.5881560000000  0.5032380000000  0.5194640000000 1.0
C      1  0.5736070000000  0.4660200000000  0.5311080000000 1.0
C      1  0.5404860000000  0.4272470000000  0.5358320000000 1.0
C      1  0.5005360000000  0.4152090000000  0.5299480000000 1.0
C      1  0.4463490000000  0.4374580000000  0.5188210000000 1.0
C      1  0.4250080000000  0.4670240000000  0.5335370000000 1.0
C      1  0.4534090000000  0.4290600000000  0.4735660000000 1.0
C      1  0.4266620000000  0.4651700000000  0.4761620000000 1.0
C      1  0.4195980000000  0.5097580000000  0.4823010000000 1.0
C      1  0.4346920000000  0.5506060000000  0.4868950000000 1.0
C      1  0.4756230000000  0.5798700000000  0.4743010000000 1.0
C      1  0.5200410000000  0.5787640000000  0.4789620000000 1.0
C      1  0.5579650000000  0.5561380000000  0.4813830000000 1.0
C      1  0.5792370000000  0.5156700000000  0.4788820000000 1.0
C      1  0.5734820000000  0.4688020000000  0.4841330000000 1.0
C      1  0.5515610000000  0.4337490000000  0.4843330000000 1.0
C      1  0.5020530000000  0.4185060000000  0.4834350000000 1.0
C      1  0.4728430000000  0.4204450000000  0.4309570000000 1.0
C      1  0.4339250000000  0.4492260000000  0.4320230000000 1.0
C      1  0.4172670000000  0.4945560000000  0.4334850000000 1.0
C      1  0.4273250000000  0.5411750000000  0.4334710000000 1.0
C      1  0.4579550000000  0.5728980000000  0.4325740000000 1.0
C      1  0.5058600000000  0.5813700000000  0.4330330000000 1.0
C      1  0.5517800000000  0.5683010000000  0.4353150000000 1.0
C      1  0.5798920000000  0.5288790000000  0.4330190000000 1.0
C      1  0.5821090000000  0.4798220000000  0.4331660000000 1.0
C      1  0.5588000000000  0.4395440000000  0.4345400000000 1.0
C      1  0.5180040000000  0.4163250000000  0.4353170000000 1.0
C      1  0.4464450000000  0.5292480000000  0.4153020000000 1.0
C      1  0.4713540000000  0.5477010000000  0.4187720000000 1.0
C      1  0.5027360000000  0.5589470000000  0.4164460000000 1.0
C      1  0.5305470000000  0.5484020000000  0.4206460000000 1.0
C      1  0.5549850000000  0.5232480000000  0.4196320000000 1.0
C      1  0.5557080000000  0.4819690000000  0.4174930000000 1.0
C      1  0.5435130000000  0.4552470000000  0.4157360000000 1.0
C      1  0.5143070000000  0.4438960000000  0.4188120000000 1.0
C      1  0.4811490000000  0.4428920000000  0.4154840000000 1.0
C      1  0.4582490000000  0.4615010000000  0.4183430000000 1.0
C      1  0.4420160000000  0.5000700000000  0.4173510000000 1.0
C      1  0.5878240000000  0.5739240000000  0.5049780000000 1.0
C      1  0.6199950000000  0.5229640000000  0.4929560000000 1.0
C      1  0.6133380000000  0.4558480000000  0.4926730000000 1.0
C      1  0.5631880000000  0.3996730000000  0.5036880000000 1.0
C      1  0.5039160000000  0.3759030000000  0.4918280000000 1.0
C      1  0.4385870000000  0.4005470000000  0.5086830000000 1.0
C      1  0.3965750000000  0.4524240000000  0.5088340000000 1.0
C      1  0.3778570000000  0.5120540000000  0.4906770000000 1.0
C      1  0.4010130000000  0.5752240000000  0.4939080000000 1.0
C      1  0.4638080000000  0.6129130000000  0.5081270000000 1.0
C      1  0.5342270000000  0.6097190000000  0.5078440000000 1.0
C      1  0.5580970000000  0.5039390000000  0.5155760000000 1.0
C      1  0.5446150000000  0.4739720000000  0.5266540000000 1.0
C      1  0.5268570000000  0.4519760000000  0.5186300000000 1.0
C      1  0.4956610000000  0.4445340000000  0.5266010000000 1.0
C      1  0.4706460000000  0.4467940000000  0.5146360000000 1.0
C      1  0.4465560000000  0.4843890000000  0.5195010000000 1.0
C      1  0.4386780000000  0.5108160000000  0.5209110000000 1.0
C      1  0.4541940000000  0.5343510000000  0.5222240000000 1.0
C      1  0.4915550000000  0.5592920000000  0.5278550000000 1.0
C      1  0.5171390000000  0.5536400000000  0.5227570000000 1.0
C      1  0.5512140000000  0.5276290000000  0.5273110000000 1.0
C      1  0.4669610000000  0.4688990000000  0.4458990000000 1.0
C      1  0.4576870000000  0.4943430000000  0.4416490000000 1.0
C      1  0.4606540000000  0.5149200000000  0.4568050000000 1.0
C      1  0.4749220000000  0.5340900000000  0.4447900000000 1.0
C      1  0.4969640000000  0.5395930000000  0.4594410000000 1.0
C      1  0.5219450000000  0.5379840000000  0.4468540000000 1.0
C      1  0.5420310000000  0.5187290000000  0.4449310000000 1.0
C      1  0.5406680000000  0.4921810000000  0.4403790000000 1.0
C      1  0.5331240000000  0.4743360000000  0.4561370000000 1.0
C      1  0.5141800000000  0.4594100000000  0.4442010000000 1.0
C      1  0.4909860000000  0.4588380000000  0.4560150000000 1.0
C      1  0.4856220000000  0.5515250000000  0.4835620000000 1.0
C      1  0.5159370000000  0.5503970000000  0.4931640000000 1.0
C      1  0.5392090000000  0.5350950000000  0.4850900000000 1.0
C      1  0.5518720000000  0.5087290000000  0.4869460000000 1.0
C      1  0.5451840000000  0.4761640000000  0.4809700000000 1.0
C      1  0.5287450000000  0.4525910000000  0.4903350000000 1.0
C      1  0.4979070000000  0.4474890000000  0.4806130000000 1.0
C      1  0.4689830000000  0.4530860000000  0.4885030000000 1.0
C      1  0.4515010000000  0.4790410000000  0.4895860000000 1.0
C      1  0.4511210000000  0.5091820000000  0.4816110000000 1.0
C      1  0.4605110000000  0.5362380000000  0.4930710000000 1.0
C      1  0.4461180000000  0.4264790000000  0.4460370000000 1.0
C      1  0.4174660000000  0.4680060000000  0.4470800000000 1.0
C      1  0.4078740000000  0.5200960000000  0.4433280000000 1.0
C      1  0.4349570000000  0.5661770000000  0.4475520000000 1.0
C      1  0.4785990000000  0.5881440000000  0.4469900000000 1.0
C      1  0.5314750000000  0.5847650000000  0.4471720000000 1.0
C      1  0.5759870000000  0.5559010000000  0.4452900000000 1.0
C      1  0.5944210000000  0.5042130000000  0.4433300000000 1.0
C      1  0.5823900000000  0.4536260000000  0.4451700000000 1.0
C      1  0.5439400000000  0.4169460000000  0.4478010000000 1.0
C      1  0.4933350000000  0.4058730000000  0.4455840000000 1.0
C      1  0.4773730000000  0.4265450000000  0.5725950000000 1.0
C      1  0.4444160000000  0.4541910000000  0.5714610000000 1.0
C      1  0.4202890000000  0.4910640000000  0.5748260000000 1.0
C      1  0.4335340000000  0.5300630000000  0.5733230000000 1.0
C      1  0.4606980000000  0.5704430000000  0.5748150000000 1.0
C      1  0.5016960000000  0.5764780000000  0.5766840000000 1.0
C      1  0.5458760000000  0.5615310000000  0.5717390000000 1.0
C      1  0.5732330000000  0.5299820000000  0.5741190000000 1.0
C      1  0.5707610000000  0.4884660000000  0.5736470000000 1.0
C      1  0.5559500000000  0.4492610000000  0.5767800000000 1.0
C      1  0.5191530000000  0.4300660000000  0.5733420000000 1.0
C      1  0.5397480000000  0.4609920000000  0.5954760000000 1.0
C      1  0.5096790000000  0.4438840000000  0.5979950000000 1.0
C      1  0.4804300000000  0.4468740000000  0.5938330000000 1.0
C      1  0.4558780000000  0.4666520000000  0.5958060000000 1.0
C      1  0.4441020000000  0.4936890000000  0.5923560000000 1.0
C      1  0.4525820000000  0.5279970000000  0.5954350000000 1.0
C      1  0.4725640000000  0.5494020000000  0.5916250000000 1.0
C      1  0.5050460000000  0.5537220000000  0.5931310000000 1.0
C      1  0.5336260000000  0.5440020000000  0.5901040000000 1.0
C      1  0.5523460000000  0.5200270000000  0.5919590000000 1.0
C      1  0.5544480000000  0.4858920000000  0.5980010000000 1.0
C      1  0.4700090000000  0.5309040000000  0.5466350000000 1.0
C      1  0.4914630000000  0.5467010000000  0.5529830000000 1.0
C      1  0.5164210000000  0.5353710000000  0.5460980000000 1.0
C      1  0.5375540000000  0.5200440000000  0.5493090000000 1.0
C      1  0.5451810000000  0.4962830000000  0.5612340000000 1.0
C      1  0.5334100000000  0.4748410000000  0.5516640000000 1.0
C      1  0.5151550000000  0.4569150000000  0.5607710000000 1.0
C      1  0.4883750000000  0.4512130000000  0.5535530000000 1.0
C      1  0.4660990000000  0.4659760000000  0.5560940000000 1.0
C      1  0.4656830000000  0.4886970000000  0.5433380000000 1.0
C      1  0.4547350000000  0.5124490000000  0.5584910000000 1.0
C      1  0.5009170000000  0.4990770000000  0.5133230000000 1.0
C      1  0.5003320000000  0.4991600000000  0.5678120000000 1.0
C      1  0.5011930000000  0.4998910000000  0.4874060000000 1.0
C      1  0.4996930000000  0.4997310000000  0.4075580000000 1.0
C      1  0.5000290000000  0.4998650000000  0.4338680000000 1.0
C      1  0.5014910000000  0.5008620000000  0.5924760000000 1.0
C      1  0.4943840000000  0.4953320000000  0.5399490000000 1.0
C      1  0.5004320000000  0.4998580000000  0.4608360000000 1.0
C      1  0.4996820000000  0.4996460000000  0.3829520000000 1.0
END
