TITL C-2441168-9922-1335 0.0639701378291862 125000 -16975.6987034045 0 0 126 (C1) n - 1
REM
REM in /home/bkarasulu/work/CARBON/AIRSS/Generating-Clusters/ReaxFF-fromJPCA2015/Units_Real/with-SteepDescent/Higher-Symm
REM
REM
REM
REM
REM
REM ./C.cell (1df0a924f5614ab8850e4351716899ee)
REM
REM compiler GCC version 9.2.1 20190827 (Red Hat 9.2.1-1)
REM options -cpp -mtune=generic -march=x86-64 -g -O0 -fpre-include=/usr/include/finclude/math-vector-fortran.h
REM seed -687335160 1948134908 354394702 1484045502 1796553286 1692168823 109987909 106125210 1305851935 -321068660 945970158 939522900 831363317 174511488 474467388 777079203 956162850 1458769170 -1518872245 1339324721 -1765766891 -1604639235 472513168 -1507071709 -1756387282 -1364129896 -456674577 1248715743 320726571 -1618929000 641352336 -1695395409 1761086520
REM
CELL 1.54180   50.00000   50.00000   50.00000   90.00000   90.00000   90.00000
LATT -1
SFAC C  
C      1  0.5156400000000  0.4259350000000  0.4508120000000 1.0
C      1  0.5650230000000  0.4363950000000  0.4846080000000 1.0
C      1  0.5385000000000  0.4307660000000  0.5320230000000 1.0
C      1  0.4865320000000  0.4232420000000  0.5455420000000 1.0
C      1  0.4363960000000  0.4362130000000  0.5156580000000 1.0
C      1  0.4619480000000  0.4304890000000  0.4681310000000 1.0
C      1  0.5116210000000  0.4353110000000  0.5489390000000 1.0
C      1  0.5643280000000  0.4371080000000  0.5150780000000 1.0
C      1  0.5370460000000  0.4315820000000  0.4696620000000 1.0
C      1  0.4870420000000  0.4350910000000  0.4493250000000 1.0
C      1  0.4353870000000  0.4367920000000  0.4856940000000 1.0
C      1  0.4628870000000  0.4348220000000  0.5359200000000 1.0
C      1  0.5658160000000  0.5527650000000  0.4791090000000 1.0
C      1  0.5505660000000  0.5511380000000  0.5446300000000 1.0
C      1  0.4858520000000  0.5549870000000  0.5688670000000 1.0
C      1  0.4347360000000  0.5523200000000  0.5204890000000 1.0
C      1  0.4496620000000  0.5514110000000  0.4550080000000 1.0
C      1  0.5130450000000  0.5523200000000  0.4323120000000 1.0
C      1  0.5654250000000  0.5524050000000  0.5210360000000 1.0
C      1  0.5525000000000  0.5524700000000  0.4549020000000 1.0
C      1  0.4858220000000  0.5554880000000  0.4297540000000 1.0
C      1  0.4352830000000  0.5521980000000  0.4788470000000 1.0
C      1  0.4495780000000  0.5507900000000  0.5440450000000 1.0
C      1  0.5134990000000  0.5543440000000  0.5679990000000 1.0
C      1  0.4094870000000  0.5372910000000  0.4761890000000 1.0
C      1  0.4742870000000  0.5389330000000  0.4081350000000 1.0
C      1  0.5671710000000  0.5376710000000  0.4337080000000 1.0
C      1  0.5910140000000  0.5373820000000  0.5239710000000 1.0
C      1  0.5249510000000  0.5386230000000  0.5906150000000 1.0
C      1  0.4335520000000  0.5373250000000  0.5653490000000 1.0
C      1  0.4091190000000  0.5373010000000  0.5234740000000 1.0
C      1  0.4749080000000  0.5393420000000  0.5917270000000 1.0
C      1  0.5661380000000  0.5372000000000  0.5656620000000 1.0
C      1  0.5912720000000  0.5374200000000  0.4764790000000 1.0
C      1  0.5246910000000  0.5388470000000  0.4057350000000 1.0
C      1  0.4337660000000  0.5371880000000  0.4343960000000 1.0
C      1  0.5145680000000  0.4113970000000  0.4232780000000 1.0
C      1  0.5769440000000  0.4102190000000  0.4721600000000 1.0
C      1  0.5551240000000  0.4109220000000  0.5486440000000 1.0
C      1  0.4847120000000  0.4108390000000  0.5739900000000 1.0
C      1  0.4246320000000  0.4099360000000  0.5282730000000 1.0
C      1  0.4447680000000  0.4107550000000  0.4518370000000 1.0
C      1  0.5133530000000  0.4164740000000  0.5761460000000 1.0
C      1  0.5761100000000  0.4107370000000  0.5276320000000 1.0
C      1  0.5554740000000  0.4110850000000  0.4522150000000 1.0
C      1  0.4855660000000  0.4161660000000  0.4229880000000 1.0
C      1  0.4238320000000  0.4106240000000  0.4728770000000 1.0
C      1  0.4426030000000  0.4137790000000  0.5508230000000 1.0
C      1  0.4611780000000  0.4633930000000  0.5439440000000 1.0
C      1  0.4463830000000  0.4774590000000  0.4781290000000 1.0
C      1  0.4863150000000  0.4663340000000  0.4420450000000 1.0
C      1  0.5385480000000  0.4627210000000  0.4566560000000 1.0
C      1  0.5522240000000  0.4787820000000  0.5224570000000 1.0
C      1  0.5134270000000  0.4632800000000  0.5571090000000 1.0
C      1  0.4585620000000  0.4625270000000  0.4574520000000 1.0
C      1  0.4486030000000  0.4775870000000  0.5225640000000 1.0
C      1  0.4863240000000  0.4760850000000  0.5562010000000 1.0
C      1  0.5403780000000  0.4632990000000  0.5435230000000 1.0
C      1  0.5516580000000  0.4770140000000  0.4784750000000 1.0
C      1  0.5146640000000  0.4710140000000  0.4415790000000 1.0
C      1  0.4097700000000  0.5085730000000  0.4660830000000 1.0
C      1  0.4854410000000  0.5104700000000  0.4050140000000 1.0
C      1  0.5752990000000  0.5092300000000  0.4404330000000 1.0
C      1  0.5900790000000  0.5085740000000  0.5340210000000 1.0
C      1  0.5144080000000  0.5101280000000  0.5948990000000 1.0
C      1  0.4246600000000  0.5086990000000  0.5594660000000 1.0
C      1  0.4104330000000  0.5084710000000  0.5337320000000 1.0
C      1  0.4848040000000  0.5105760000000  0.5961450000000 1.0
C      1  0.5752380000000  0.5086230000000  0.5593560000000 1.0
C      1  0.5897630000000  0.5086540000000  0.4660030000000 1.0
C      1  0.5152360000000  0.5108460000000  0.4034360000000 1.0
C      1  0.4245560000000  0.5085680000000  0.4407730000000 1.0
C      1  0.4461190000000  0.5787160000000  0.4857950000000 1.0
C      1  0.4857900000000  0.5794640000000  0.4451530000000 1.0
C      1  0.5396350000000  0.5782480000000  0.4605590000000 1.0
C      1  0.5548330000000  0.5790040000000  0.5145950000000 1.0
C      1  0.5148400000000  0.5803230000000  0.5544950000000 1.0
C      1  0.4618730000000  0.5767080000000  0.5392840000000 1.0
C      1  0.4456420000000  0.5789350000000  0.5142960000000 1.0
C      1  0.4850570000000  0.5807490000000  0.5549540000000 1.0
C      1  0.5386050000000  0.5772900000000  0.5396250000000 1.0
C      1  0.5546780000000  0.5789250000000  0.4863000000000 1.0
C      1  0.5148960000000  0.5785130000000  0.4466100000000 1.0
C      1  0.4616940000000  0.5775450000000  0.4602000000000 1.0
C      1  0.5150580000000  0.4693070000000  0.4132960000000 1.0
C      1  0.5773820000000  0.4653070000000  0.4705280000000 1.0
C      1  0.5668410000000  0.4660250000000  0.5581940000000 1.0
C      1  0.4853150000000  0.4699440000000  0.5861290000000 1.0
C      1  0.4229800000000  0.4651690000000  0.5293140000000 1.0
C      1  0.4329020000000  0.4658740000000  0.4420720000000 1.0
C      1  0.5146020000000  0.4680980000000  0.5879430000000 1.0
C      1  0.5777390000000  0.4657140000000  0.5286930000000 1.0
C      1  0.5660570000000  0.4663040000000  0.4418990000000 1.0
C      1  0.4852480000000  0.4688430000000  0.4113320000000 1.0
C      1  0.4208280000000  0.4649190000000  0.4716180000000 1.0
C      1  0.4331080000000  0.4663040000000  0.5584550000000 1.0
C      1  0.4651670000000  0.4896550000000  0.5918380000000 1.0
C      1  0.4065980000000  0.4870470000000  0.5149170000000 1.0
C      1  0.4387650000000  0.4884660000000  0.4252270000000 1.0
C      1  0.5347990000000  0.4901020000000  0.4085950000000 1.0
C      1  0.5934250000000  0.4874000000000  0.4851340000000 1.0
C      1  0.5610220000000  0.4885750000000  0.5750110000000 1.0
C      1  0.4658080000000  0.4896800000000  0.4091860000000 1.0
C      1  0.4056360000000  0.4872200000000  0.4854830000000 1.0
C      1  0.4386100000000  0.4886010000000  0.5754220000000 1.0
C      1  0.5338800000000  0.4891620000000  0.5904920000000 1.0
C      1  0.5939610000000  0.4874140000000  0.5145230000000 1.0
C      1  0.5608940000000  0.4888630000000  0.4249260000000 1.0
C      1  0.5148500000000  0.5256570000000  0.4524210000000 1.0
C      1  0.5498720000000  0.5048360000000  0.4849860000000 1.0
C      1  0.5280610000000  0.5147210000000  0.5278100000000 1.0
C      1  0.4863920000000  0.5077140000000  0.5503500000000 1.0
C      1  0.4506330000000  0.5055460000000  0.5156740000000 1.0
C      1  0.4706390000000  0.5113800000000  0.4731380000000 1.0
C      1  0.5088900000000  0.5218570000000  0.5393690000000 1.0
C      1  0.5494050000000  0.5065200000000  0.5148790000000 1.0
C      1  0.5319120000000  0.5156850000000  0.4681730000000 1.0
C      1  0.4903910000000  0.5168750000000  0.4619440000000 1.0
C      1  0.4484910000000  0.5052210000000  0.4856960000000 1.0
C      1  0.4720390000000  0.5159070000000  0.5290730000000 1.0
C      1  0.5511600000000  0.5394540000000  0.4112130000000 1.0
C      1  0.3947370000000  0.5399680000000  0.4997570000000 1.0
C      1  0.6055400000000  0.5397290000000  0.5002630000000 1.0
C      1  0.4473510000000  0.5396550000000  0.5892300000000 1.0
C      1  0.5527070000000  0.5393290000000  0.5899030000000 1.0
C      1  0.4465150000000  0.5393370000000  0.4098460000000 1.0
END
