TITL C-2441164-471-1108 0.0287569369120537 125000 -5179.67856591706 0 0 43 (C1) n - 1
REM
REM in /home/bkarasulu/work/CARBON/AIRSS/Generating-Clusters/ReaxFF-fromJPCA2015/Units_Real/with-SteepDescent/Higher-Symm
REM
REM
REM
REM
REM
REM ./C.cell (1df0a924f5614ab8850e4351716899ee)
REM
REM compiler GCC version 9.2.1 20190827 (Red Hat 9.2.1-1)
REM options -cpp -mtune=generic -march=x86-64 -g -O0 -fpre-include=/usr/include/finclude/math-vector-fortran.h
REM seed 1655860441 -511231079 -321356087 1269505446 -2006194407 918555577 376299761 -1314319139 1031372710 111018982 -1799188620 -196154450 -1897420978 -761376171 1555150484 1209051969 -1569613192 -971499558 548597774 900155400 693214922 1736389334 1638675536 1246801467 -1952345757 -1532321667 1006415240 -1646469558 750504315 -965458077 -948358417 2137575149 -710731013
REM
CELL 1.54180   50.00000   50.00000   50.00000   90.00000   90.00000   90.00000
LATT -1
SFAC C  
C      1  0.5018220000000  0.5517430000000  0.4548310000000 1.0
C      1  0.5377660000000  0.5524920000000  0.5243940000000 1.0
C      1  0.4595810000000  0.5528530000000  0.5207440000000 1.0
C      1  0.4710300000000  0.4455560000000  0.4990380000000 1.0
C      1  0.5149970000000  0.4457730000000  0.4754140000000 1.0
C      1  0.5136690000000  0.4450810000000  0.5251950000000 1.0
C      1  0.4545680000000  0.5282270000000  0.5306680000000 1.0
C      1  0.4962170000000  0.5265430000000  0.4459960000000 1.0
C      1  0.5491320000000  0.5280370000000  0.5244730000000 1.0
C      1  0.4868410000000  0.5023890000000  0.4706430000000 1.0
C      1  0.5311460000000  0.5021340000000  0.5029180000000 1.0
C      1  0.4822660000000  0.5015700000000  0.5255520000000 1.0
C      1  0.5495350000000  0.5097260000000  0.4802840000000 1.0
C      1  0.4925840000000  0.5098110000000  0.5526710000000 1.0
C      1  0.4575440000000  0.5096080000000  0.4669590000000 1.0
C      1  0.5398100000000  0.5093860000000  0.4526430000000 1.0
C      1  0.5214530000000  0.5097440000000  0.5574750000000 1.0
C      1  0.4391400000000  0.5096460000000  0.4896920000000 1.0
C      1  0.5288890000000  0.4503370000000  0.5008600000000 1.0
C      1  0.4846570000000  0.4500370000000  0.5244710000000 1.0
C      1  0.4861420000000  0.4504180000000  0.4743010000000 1.0
C      1  0.4497500000000  0.4858890000000  0.5030180000000 1.0
C      1  0.5225590000000  0.4857230000000  0.4546000000000 1.0
C      1  0.5275050000000  0.4858360000000  0.5420900000000 1.0
C      1  0.4758870000000  0.4873000000000  0.5647230000000 1.0
C      1  0.4557290000000  0.4871890000000  0.4464470000000 1.0
C      1  0.5680100000000  0.4868310000000  0.4883690000000 1.0
C      1  0.4862280000000  0.5459170000000  0.5188450000000 1.0
C      1  0.4897610000000  0.5467960000000  0.4784970000000 1.0
C      1  0.5224900000000  0.5461210000000  0.5024580000000 1.0
C      1  0.5443850000000  0.5097720000000  0.5418230000000 1.0
C      1  0.4417200000000  0.5101370000000  0.5174520000000 1.0
C      1  0.5154260000000  0.5096350000000  0.4394860000000 1.0
C      1  0.5285490000000  0.4570610000000  0.5489990000000 1.0
C      1  0.4427920000000  0.4573140000000  0.5000710000000 1.0
C      1  0.5284150000000  0.4570210000000  0.4503400000000 1.0
C      1  0.5456900000000  0.4749480000000  0.5045230000000 1.0
C      1  0.4735570000000  0.4747220000000  0.5372200000000 1.0
C      1  0.4807080000000  0.4747510000000  0.4577990000000 1.0
C      1  0.5104900000000  0.5585650000000  0.5263720000000 1.0
C      1  0.4716080000000  0.5593490000000  0.4964620000000 1.0
C      1  0.5172320000000  0.5583200000000  0.4773680000000 1.0
C      1  0.5000790000000  0.4975370000000  0.4995900000000 1.0
END
