TITL C-2441165-58-117 0.00849653808090873 125000 -23323.0899446908 0 0 154 (C1) n - 1
REM
REM in /home/bkarasulu/work/CARBON/AIRSS/Generating-Clusters/ReaxFF-fromJPCA2015/Units_Real/with-SteepDescent/Higher-Symm
REM
REM
REM
REM
REM
REM ./C.cell (1df0a924f5614ab8850e4351716899ee)
REM
REM compiler GCC version 9.2.1 20190827 (Red Hat 9.2.1-1)
REM options -cpp -mtune=generic -march=x86-64 -g -O0 -fpre-include=/usr/include/finclude/math-vector-fortran.h
REM seed -1837464352 -255008272 1761485670 -1167157171 -1038380816 617802446 86236604 465649375 -324797282 1573305885 1314866131 110383665 -214238160 -1889867220 -1877420816 565845509 -558947236 1791052801 497393158 611271856 1451077235 -878929535 1793948289 1355912032 -1337449741 453944415 -1241970970 -757020647 -599231788 -1669624261 -329565773 580403699 -826695712
REM
CELL 1.54180   50.00000   50.00000   50.00000   90.00000   90.00000   90.00000
LATT -1
SFAC C  
C      1  0.4579800000000  0.5504330000000  0.5204550000000 1.0
C      1  0.5174760000000  0.5478420000000  0.5370960000000 1.0
C      1  0.5398600000000  0.5558870000000  0.4913500000000 1.0
C      1  0.4983640000000  0.5489600000000  0.4541250000000 1.0
C      1  0.4603440000000  0.5460920000000  0.4917770000000 1.0
C      1  0.4678470000000  0.4300350000000  0.4567280000000 1.0
C      1  0.5223790000000  0.4464900000000  0.4664300000000 1.0
C      1  0.5361140000000  0.4406820000000  0.5068260000000 1.0
C      1  0.5139640000000  0.4486240000000  0.5515940000000 1.0
C      1  0.4652190000000  0.4516130000000  0.5212510000000 1.0
C      1  0.4282050000000  0.5620360000000  0.4554440000000 1.0
C      1  0.4262360000000  0.5500040000000  0.5667520000000 1.0
C      1  0.5434380000000  0.5541410000000  0.5857600000000 1.0
C      1  0.5981020000000  0.5523780000000  0.4847890000000 1.0
C      1  0.5177770000000  0.5567660000000  0.4016620000000 1.0
C      1  0.4153040000000  0.4466290000000  0.5444260000000 1.0
C      1  0.4274100000000  0.4468300000000  0.4422360000000 1.0
C      1  0.5417060000000  0.4485550000000  0.4148810000000 1.0
C      1  0.5909210000000  0.4492100000000  0.5119100000000 1.0
C      1  0.5218340000000  0.4495390000000  0.5960980000000 1.0
C      1  0.5129740000000  0.5283880000000  0.5980820000000 1.0
C      1  0.5932220000000  0.5247790000000  0.5178620000000 1.0
C      1  0.5457200000000  0.5180420000000  0.4109690000000 1.0
C      1  0.4303990000000  0.5136810000000  0.4374480000000 1.0
C      1  0.4061550000000  0.5176450000000  0.5482060000000 1.0
C      1  0.5284780000000  0.4992630000000  0.3965650000000 1.0
C      1  0.6010530000000  0.4781220000000  0.4822390000000 1.0
C      1  0.5510810000000  0.4800040000000  0.5950360000000 1.0
C      1  0.4334080000000  0.4730790000000  0.5715030000000 1.0
C      1  0.4126150000000  0.4940070000000  0.4516790000000 1.0
C      1  0.4994090000000  0.5069240000000  0.3964950000000 1.0
C      1  0.4038880000000  0.5157590000000  0.4696660000000 1.0
C      1  0.4424840000000  0.5011950000000  0.5755220000000 1.0
C      1  0.5559250000000  0.5061160000000  0.5834850000000 1.0
C      1  0.5946570000000  0.5047920000000  0.4718120000000 1.0
C      1  0.5043650000000  0.5001310000000  0.5945030000000 1.0
C      1  0.4041950000000  0.4923360000000  0.5344060000000 1.0
C      1  0.4426480000000  0.4903170000000  0.4229140000000 1.0
C      1  0.5616200000000  0.4945940000000  0.4222080000000 1.0
C      1  0.5869990000000  0.4972390000000  0.5270180000000 1.0
C      1  0.4130400000000  0.4340240000000  0.5197540000000 1.0
C      1  0.4979880000000  0.4335390000000  0.5905260000000 1.0
C      1  0.5781410000000  0.4357610000000  0.5349100000000 1.0
C      1  0.5584210000000  0.4331630000000  0.4364610000000 1.0
C      1  0.4713550000000  0.4404970000000  0.4125210000000 1.0
C      1  0.4114250000000  0.5675250000000  0.4927430000000 1.0
C      1  0.4930890000000  0.5719070000000  0.4104750000000 1.0
C      1  0.5746710000000  0.5704800000000  0.4570690000000 1.0
C      1  0.5604730000000  0.5704950000000  0.5710480000000 1.0
C      1  0.4504640000000  0.5668290000000  0.5741570000000 1.0
C      1  0.5899990000000  0.4509430000000  0.4790940000000 1.0
C      1  0.5146750000000  0.4387780000000  0.4144650000000 1.0
C      1  0.4237430000000  0.4410770000000  0.4702820000000 1.0
C      1  0.4495850000000  0.4484080000000  0.5698310000000 1.0
C      1  0.5512580000000  0.4531590000000  0.5820950000000 1.0
C      1  0.5801930000000  0.5497120000000  0.5284460000000 1.0
C      1  0.5012960000000  0.5532120000000  0.5861610000000 1.0
C      1  0.4121280000000  0.5454750000000  0.5411570000000 1.0
C      1  0.4541500000000  0.5586530000000  0.4417760000000 1.0
C      1  0.5411560000000  0.5462740000000  0.4183970000000 1.0
C      1  0.4997380000000  0.4129290000000  0.5691580000000 1.0
C      1  0.5632540000000  0.4125100000000  0.5230430000000 1.0
C      1  0.5419210000000  0.4125930000000  0.4485780000000 1.0
C      1  0.4528680000000  0.4350900000000  0.4324810000000 1.0
C      1  0.4363670000000  0.4174250000000  0.5242480000000 1.0
C      1  0.5004370000000  0.5859260000000  0.4348900000000 1.0
C      1  0.5816900000000  0.5745710000000  0.4848330000000 1.0
C      1  0.5396030000000  0.5829030000000  0.5546550000000 1.0
C      1  0.4614970000000  0.5848140000000  0.5532730000000 1.0
C      1  0.4306920000000  0.5796730000000  0.4800600000000 1.0
C      1  0.5458900000000  0.5888200000000  0.5266660000000 1.0
C      1  0.5311100000000  0.5768680000000  0.4713410000000 1.0
C      1  0.4824990000000  0.5900740000000  0.4569110000000 1.0
C      1  0.4502580000000  0.5909020000000  0.5011680000000 1.0
C      1  0.4899700000000  0.5890070000000  0.5483260000000 1.0
C      1  0.5446560000000  0.4027410000000  0.4754890000000 1.0
C      1  0.5379110000000  0.4040560000000  0.5350820000000 1.0
C      1  0.4801010000000  0.4095820000000  0.5478880000000 1.0
C      1  0.4496400000000  0.4087580000000  0.4997790000000 1.0
C      1  0.4906300000000  0.4133530000000  0.4564460000000 1.0
C      1  0.4170640000000  0.4843960000000  0.5082980000000 1.0
C      1  0.4898270000000  0.4942520000000  0.5705690000000 1.0
C      1  0.5611700000000  0.4883390000000  0.5353760000000 1.0
C      1  0.5597420000000  0.4904970000000  0.4504970000000 1.0
C      1  0.4702190000000  0.4850850000000  0.4311920000000 1.0
C      1  0.4217800000000  0.5087970000000  0.4915920000000 1.0
C      1  0.4860470000000  0.5084030000000  0.4235100000000 1.0
C      1  0.5686460000000  0.5150490000000  0.4623110000000 1.0
C      1  0.5508320000000  0.5077900000000  0.5545090000000 1.0
C      1  0.4671920000000  0.5119930000000  0.5639680000000 1.0
C      1  0.4823190000000  0.4679460000000  0.4533510000000 1.0
C      1  0.4471140000000  0.4743550000000  0.5198380000000 1.0
C      1  0.5031220000000  0.4741770000000  0.5506320000000 1.0
C      1  0.5407390000000  0.4706980000000  0.5169370000000 1.0
C      1  0.5340860000000  0.4736570000000  0.4644450000000 1.0
C      1  0.4692660000000  0.5319620000000  0.5419060000000 1.0
C      1  0.4494940000000  0.5195190000000  0.4872030000000 1.0
C      1  0.4968720000000  0.5238050000000  0.4461330000000 1.0
C      1  0.5493700000000  0.5285600000000  0.4805200000000 1.0
C      1  0.5279780000000  0.5221870000000  0.5426560000000 1.0
C      1  0.4650850000000  0.4932150000000  0.5206190000000 1.0
C      1  0.5110540000000  0.4790070000000  0.5223790000000 1.0
C      1  0.5447770000000  0.4811000000000  0.4903390000000 1.0
C      1  0.5067820000000  0.4833860000000  0.4602920000000 1.0
C      1  0.4720180000000  0.4723460000000  0.4804320000000 1.0
C      1  0.4694810000000  0.5006980000000  0.4779740000000 1.0
C      1  0.4971710000000  0.5088040000000  0.4699950000000 1.0
C      1  0.5421260000000  0.5078790000000  0.4965350000000 1.0
C      1  0.5197240000000  0.5075960000000  0.5168910000000 1.0
C      1  0.4806850000000  0.5161320000000  0.5207210000000 1.0
C      1  0.4648180000000  0.5607390000000  0.4148620000000 1.0
C      1  0.3986420000000  0.5595020000000  0.5164370000000 1.0
C      1  0.4751000000000  0.5582940000000  0.5825910000000 1.0
C      1  0.5841790000000  0.5565580000000  0.5558790000000 1.0
C      1  0.5630580000000  0.5621660000000  0.4327600000000 1.0
C      1  0.4698290000000  0.4452070000000  0.5899590000000 1.0
C      1  0.4091370000000  0.4542740000000  0.4949510000000 1.0
C      1  0.4922440000000  0.4440440000000  0.4000590000000 1.0
C      1  0.5748290000000  0.4425980000000  0.4574110000000 1.0
C      1  0.5651170000000  0.4451580000000  0.5591930000000 1.0
C      1  0.5212980000000  0.3907650000000  0.4887210000000 1.0
C      1  0.4944500000000  0.3956380000000  0.4783820000000 1.0
C      1  0.4752500000000  0.3951150000000  0.5004250000000 1.0
C      1  0.4899960000000  0.3945620000000  0.5253990000000 1.0
C      1  0.5186440000000  0.3914570000000  0.5178710000000 1.0
C      1  0.5234320000000  0.6013230000000  0.5131170000000 1.0
C      1  0.4959000000000  0.6015950000000  0.5232780000000 1.0
C      1  0.4764740000000  0.6032800000000  0.5009770000000 1.0
C      1  0.4923090000000  0.6050690000000  0.4780110000000 1.0
C      1  0.5196430000000  0.5998470000000  0.4841060000000 1.0
C      1  0.4466380000000  0.4247450000000  0.4757800000000 1.0
C      1  0.4583320000000  0.4304840000000  0.5424350000000 1.0
C      1  0.5242470000000  0.4222890000000  0.5547160000000 1.0
C      1  0.5552480000000  0.4215060000000  0.4960930000000 1.0
C      1  0.5147640000000  0.4260370000000  0.4455090000000 1.0
C      1  0.4490110000000  0.5778500000000  0.5269830000000 1.0
C      1  0.4755580000000  0.5611680000000  0.4654220000000 1.0
C      1  0.5193110000000  0.5659010000000  0.4468480000000 1.0
C      1  0.5635830000000  0.5702720000000  0.5107480000000 1.0
C      1  0.5118540000000  0.5704370000000  0.5586140000000 1.0
C      1  0.4159110000000  0.5355990000000  0.4507820000000 1.0
C      1  0.4218260000000  0.5218390000000  0.5740800000000 1.0
C      1  0.5426330000000  0.5286950000000  0.5977960000000 1.0
C      1  0.6051860000000  0.5259000000000  0.4907450000000 1.0
C      1  0.5034480000000  0.5344100000000  0.3943490000000 1.0
C      1  0.4083930000000  0.4716760000000  0.5550570000000 1.0
C      1  0.4200910000000  0.4732430000000  0.4322880000000 1.0
C      1  0.5452010000000  0.4756400000000  0.4059510000000 1.0
C      1  0.6017470000000  0.4753750000000  0.5120050000000 1.0
C      1  0.5224670000000  0.4774110000000  0.6030510000000 1.0
C      1  0.4886790000000  0.4600130000000  0.5038120000000 1.0
C      1  0.5011830000000  0.5251840000000  0.5004010000000 1.0
C      1  0.5111620000000  0.4420430000000  0.4925960000000 1.0
C      1  0.5149050000000  0.5496590000000  0.5083900000000 1.0
END
