TITL C-2441160-1326-498 0.0511256404303436 125000 -22980.9800075732 0 0 163 (C1) n - 1
REM
REM in /home/bkarasulu/work/CARBON/AIRSS/Generating-Clusters/ReaxFF-fromJPCA2015/Units_Real/with-SteepDescent/Higher-Symm
REM
REM
REM
REM
REM
REM ./C.cell (1df0a924f5614ab8850e4351716899ee)
REM
REM compiler GCC version 9.2.1 20190827 (Red Hat 9.2.1-1)
REM options -cpp -mtune=generic -march=x86-64 -g -O0 -fpre-include=/usr/include/finclude/math-vector-fortran.h
REM seed -942569214 -1614425572 -1584645751 -1585557706 -1086390810 987433337 970988144 148501279 -1159712461 -84967059 1639743757 -1613452588 2032725691 -2145296784 1128961617 -1042147051 -352096276 -1264695151 -569273084 1722821556 1024260866 110220924 1285806170 -920631326 1897614655 1107313424 406963425 1140209597 361006360 54374463 -629106693 1514387167 -150139023
REM
CELL 1.54180   50.00000   50.00000   50.00000   90.00000   90.00000   90.00000
LATT -1
SFAC C  
C      1  0.4644390000000  0.4045410000000  0.4722860000000 1.0
C      1  0.4682550000000  0.5952160000000  0.5301430000000 1.0
C      1  0.5310200000000  0.4007640000000  0.4658890000000 1.0
C      1  0.5340110000000  0.5945060000000  0.5253320000000 1.0
C      1  0.4717680000000  0.5763620000000  0.5675250000000 1.0
C      1  0.4730570000000  0.4275350000000  0.4335550000000 1.0
C      1  0.5252310000000  0.5707290000000  0.5662290000000 1.0
C      1  0.5229990000000  0.4352350000000  0.4325830000000 1.0
C      1  0.4295890000000  0.4537490000000  0.5637160000000 1.0
C      1  0.4326340000000  0.5426470000000  0.4373340000000 1.0
C      1  0.5824350000000  0.4524620000000  0.5623110000000 1.0
C      1  0.5686550000000  0.5515740000000  0.4310750000000 1.0
C      1  0.5027150000000  0.5131250000000  0.5159680000000 1.0
C      1  0.4757680000000  0.4989120000000  0.4772340000000 1.0
C      1  0.5205920000000  0.5129410000000  0.5402740000000 1.0
C      1  0.5200110000000  0.4844720000000  0.4744700000000 1.0
C      1  0.4805550000000  0.4528080000000  0.5203720000000 1.0
C      1  0.4931770000000  0.5370250000000  0.5048040000000 1.0
C      1  0.5045230000000  0.4541540000000  0.5051000000000 1.0
C      1  0.5140040000000  0.5419900000000  0.4864000000000 1.0
C      1  0.5779430000000  0.5231070000000  0.4284110000000 1.0
C      1  0.5829790000000  0.4812690000000  0.5676230000000 1.0
C      1  0.4358310000000  0.5156120000000  0.4291270000000 1.0
C      1  0.4287990000000  0.4820890000000  0.5679620000000 1.0
C      1  0.5343980000000  0.4224940000000  0.5386720000000 1.0
C      1  0.5284360000000  0.5730030000000  0.4580280000000 1.0
C      1  0.4627540000000  0.4173810000000  0.5395800000000 1.0
C      1  0.4607010000000  0.5848320000000  0.4568670000000 1.0
C      1  0.5138040000000  0.5972410000000  0.5035440000000 1.0
C      1  0.5146690000000  0.4034010000000  0.4923220000000 1.0
C      1  0.4842580000000  0.5954430000000  0.5045540000000 1.0
C      1  0.4856030000000  0.4045900000000  0.4931920000000 1.0
C      1  0.4089000000000  0.4845520000000  0.5420850000000 1.0
C      1  0.4032240000000  0.5139760000000  0.4697360000000 1.0
C      1  0.5840910000000  0.4841380000000  0.5371690000000 1.0
C      1  0.5956890000000  0.5134320000000  0.4494100000000 1.0
C      1  0.4334750000000  0.4425260000000  0.4443460000000 1.0
C      1  0.4293280000000  0.5611010000000  0.5453600000000 1.0
C      1  0.5665160000000  0.4363070000000  0.4448390000000 1.0
C      1  0.5760820000000  0.5608960000000  0.5639520000000 1.0
C      1  0.5357120000000  0.5248150000000  0.4826050000000 1.0
C      1  0.5214740000000  0.4687410000000  0.5230470000000 1.0
C      1  0.4649190000000  0.5234070000000  0.4908630000000 1.0
C      1  0.4584730000000  0.4713700000000  0.5186940000000 1.0
C      1  0.4108070000000  0.4555090000000  0.5404200000000 1.0
C      1  0.4107350000000  0.5388180000000  0.4587390000000 1.0
C      1  0.5986030000000  0.4607420000000  0.5349750000000 1.0
C      1  0.5982840000000  0.5231610000000  0.4763510000000 1.0
C      1  0.6045170000000  0.5000710000000  0.4931430000000 1.0
C      1  0.6021970000000  0.5003940000000  0.5224030000000 1.0
C      1  0.3971000000000  0.4972600000000  0.4907570000000 1.0
C      1  0.3990640000000  0.5031460000000  0.5213200000000 1.0
C      1  0.4708000000000  0.5469800000000  0.5398090000000 1.0
C      1  0.4784610000000  0.4518230000000  0.4576450000000 1.0
C      1  0.5183930000000  0.5561610000000  0.5397360000000 1.0
C      1  0.5260560000000  0.4437540000000  0.4599570000000 1.0
C      1  0.4781050000000  0.5253810000000  0.5574500000000 1.0
C      1  0.4799130000000  0.4755340000000  0.4412190000000 1.0
C      1  0.5168480000000  0.5194560000000  0.5729590000000 1.0
C      1  0.5197610000000  0.4846400000000  0.4201450000000 1.0
C      1  0.5502960000000  0.4768710000000  0.4747000000000 1.0
C      1  0.5469200000000  0.5226920000000  0.5293090000000 1.0
C      1  0.4481230000000  0.4801720000000  0.4727630000000 1.0
C      1  0.4413960000000  0.5105220000000  0.5363710000000 1.0
C      1  0.4515500000000  0.4506680000000  0.4695040000000 1.0
C      1  0.4465210000000  0.5503740000000  0.5243790000000 1.0
C      1  0.5516300000000  0.4471930000000  0.4713570000000 1.0
C      1  0.5408650000000  0.5506480000000  0.5244410000000 1.0
C      1  0.4762050000000  0.4465580000000  0.5724820000000 1.0
C      1  0.4766690000000  0.5551290000000  0.4244710000000 1.0
C      1  0.5304490000000  0.4517360000000  0.5778000000000 1.0
C      1  0.5274650000000  0.5387300000000  0.4298130000000 1.0
C      1  0.4855680000000  0.4070110000000  0.4506240000000 1.0
C      1  0.4887180000000  0.5949150000000  0.5519520000000 1.0
C      1  0.5136470000000  0.4081780000000  0.4433790000000 1.0
C      1  0.5183090000000  0.5956060000000  0.5499300000000 1.0
C      1  0.4473340000000  0.4181380000000  0.4426060000000 1.0
C      1  0.4494190000000  0.5819090000000  0.5506420000000 1.0
C      1  0.5531710000000  0.4123840000000  0.4516780000000 1.0
C      1  0.5533900000000  0.5764210000000  0.5582150000000 1.0
C      1  0.4057310000000  0.5438340000000  0.5492850000000 1.0
C      1  0.4023670000000  0.4783480000000  0.4535160000000 1.0
C      1  0.5873350000000  0.5363300000000  0.5517580000000 1.0
C      1  0.5949000000000  0.4852640000000  0.4530870000000 1.0
C      1  0.5517330000000  0.5121910000000  0.5029270000000 1.0
C      1  0.5588770000000  0.4854980000000  0.5006580000000 1.0
C      1  0.4402920000000  0.5142800000000  0.5076150000000 1.0
C      1  0.4423500000000  0.4858040000000  0.5002660000000 1.0
C      1  0.5789550000000  0.5695350000000  0.5026590000000 1.0
C      1  0.5865480000000  0.4274970000000  0.4964900000000 1.0
C      1  0.4138900000000  0.5730750000000  0.5007080000000 1.0
C      1  0.4147490000000  0.4290520000000  0.4925620000000 1.0
C      1  0.5419740000000  0.5292440000000  0.4545460000000 1.0
C      1  0.5509730000000  0.4683530000000  0.5229060000000 1.0
C      1  0.4618720000000  0.5413760000000  0.4689470000000 1.0
C      1  0.4602020000000  0.4893860000000  0.5404350000000 1.0
C      1  0.4869960000000  0.5413670000000  0.4009800000000 1.0
C      1  0.4859030000000  0.4627140000000  0.5962300000000 1.0
C      1  0.5144210000000  0.5316790000000  0.4053060000000 1.0
C      1  0.5139490000000  0.4714190000000  0.5944870000000 1.0
C      1  0.5063590000000  0.5049840000000  0.4028060000000 1.0
C      1  0.5060340000000  0.4991520000000  0.5908300000000 1.0
C      1  0.4788200000000  0.5131440000000  0.3998230000000 1.0
C      1  0.4757280000000  0.4899630000000  0.5952550000000 1.0
C      1  0.5159120000000  0.4059220000000  0.5221390000000 1.0
C      1  0.5133540000000  0.5931890000000  0.4738930000000 1.0
C      1  0.4859820000000  0.4076690000000  0.5229520000000 1.0
C      1  0.4832510000000  0.5939700000000  0.4744520000000 1.0
C      1  0.4468710000000  0.4255450000000  0.4873860000000 1.0
C      1  0.4428460000000  0.5724870000000  0.5049110000000 1.0
C      1  0.5580040000000  0.4293380000000  0.4949990000000 1.0
C      1  0.5536170000000  0.5734110000000  0.5158930000000 1.0
C      1  0.5543540000000  0.5567380000000  0.4571860000000 1.0
C      1  0.5509170000000  0.4389000000000  0.5210160000000 1.0
C      1  0.4520940000000  0.5662060000000  0.4773120000000 1.0
C      1  0.4471730000000  0.4261850000000  0.5175550000000 1.0
C      1  0.4023830000000  0.5578510000000  0.4798300000000 1.0
C      1  0.4205900000000  0.4366510000000  0.5196550000000 1.0
C      1  0.5862760000000  0.5492400000000  0.4822330000000 1.0
C      1  0.6027300000000  0.4415990000000  0.5142370000000 1.0
C      1  0.4492340000000  0.4979630000000  0.5854180000000 1.0
C      1  0.4535410000000  0.5023180000000  0.4099050000000 1.0
C      1  0.5621010000000  0.4988180000000  0.5774560000000 1.0
C      1  0.5616350000000  0.4996660000000  0.4234940000000 1.0
C      1  0.4339720000000  0.5373150000000  0.5778600000000 1.0
C      1  0.4328820000000  0.4655170000000  0.4262280000000 1.0
C      1  0.5580010000000  0.5415730000000  0.5801270000000 1.0
C      1  0.5649750000000  0.4579940000000  0.4257340000000 1.0
C      1  0.3948500000000  0.5528420000000  0.5059120000000 1.0
C      1  0.4007880000000  0.4499050000000  0.4828590000000 1.0
C      1  0.5978800000000  0.5503170000000  0.5082780000000 1.0
C      1  0.6042490000000  0.4487650000000  0.4872590000000 1.0
C      1  0.5115560000000  0.4565700000000  0.4158140000000 1.0
C      1  0.5093880000000  0.5452970000000  0.5811740000000 1.0
C      1  0.4814670000000  0.4584770000000  0.4174130000000 1.0
C      1  0.4801180000000  0.5458400000000  0.5798930000000 1.0
C      1  0.5610800000000  0.5190020000000  0.5998430000000 1.0
C      1  0.5470760000000  0.4767660000000  0.4119950000000 1.0
C      1  0.4548070000000  0.5261460000000  0.5923740000000 1.0
C      1  0.4549890000000  0.4727700000000  0.4087480000000 1.0
C      1  0.4849020000000  0.4973690000000  0.5514330000000 1.0
C      1  0.4878420000000  0.5024760000000  0.4500280000000 1.0
C      1  0.5110470000000  0.4855080000000  0.5444860000000 1.0
C      1  0.5168980000000  0.4993890000000  0.4493180000000 1.0
C      1  0.4904230000000  0.4482910000000  0.5470420000000 1.0
C      1  0.4838250000000  0.5398920000000  0.4493990000000 1.0
C      1  0.5163420000000  0.4381310000000  0.5559900000000 1.0
C      1  0.5068920000000  0.5540760000000  0.4623140000000 1.0
C      1  0.3953640000000  0.5315110000000  0.5250870000000 1.0
C      1  0.3921260000000  0.4705870000000  0.4759200000000 1.0
C      1  0.6003230000000  0.5295380000000  0.5276930000000 1.0
C      1  0.6034370000000  0.4761190000000  0.4778390000000 1.0
C      1  0.4522350000000  0.5658390000000  0.4353130000000 1.0
C      1  0.4528210000000  0.4337720000000  0.5624830000000 1.0
C      1  0.5444650000000  0.5552020000000  0.4169850000000 1.0
C      1  0.5553790000000  0.4465720000000  0.5667410000000 1.0
C      1  0.5688790000000  0.4803750000000  0.4453890000000 1.0
C      1  0.5639600000000  0.5213710000000  0.5562340000000 1.0
C      1  0.4286780000000  0.4887170000000  0.4462040000000 1.0
C      1  0.4235670000000  0.5222050000000  0.5562900000000 1.0
C      1  0.4944420000000  0.5549070000000  0.5274060000000 1.0
C      1  0.5040180000000  0.4528400000000  0.4752710000000 1.0
C      1  0.4998640000000  0.4948560000000  0.4944130000000 1.0
END
