TITL C-2441161-5029-279 0.157748968859996 125000 -14559.4333303666 0 0 121 (C1) n - 1
REM
REM in /home/bkarasulu/work/CARBON/AIRSS/Generating-Clusters/ReaxFF-fromJPCA2015/Units_Real/with-SteepDescent/Higher-Symm
REM
REM
REM
REM
REM
REM ./C.cell (1df0a924f5614ab8850e4351716899ee)
REM
REM compiler GCC version 9.2.1 20190827 (Red Hat 9.2.1-1)
REM options -cpp -mtune=generic -march=x86-64 -g -O0 -fpre-include=/usr/include/finclude/math-vector-fortran.h
REM seed -567021121 796778459 -874390439 -1938077544 621068209 502820194 -145518613 1736594685 -1095850789 113730056 445778588 439789513 -684500404 306510933 1535715410 1739054717 2145988899 -323407563 -701258768 -257509787 -408809667 -1736316247 -1320412301 -725994018 -2016429018 96223019 1260137443 2020285749 502575869 1550890909 -716659584 -633918224 -1234319477
REM
CELL 1.54180   50.00000   50.00000   50.00000   90.00000   90.00000   90.00000
LATT -1
SFAC C  
C      1  0.5563570000000  0.4487850000000  0.5561650000000 1.0
C      1  0.5497920000000  0.5528320000000  0.4509950000000 1.0
C      1  0.4473320000000  0.4497090000000  0.4506850000000 1.0
C      1  0.4482130000000  0.5554360000000  0.5495250000000 1.0
C      1  0.5647960000000  0.5444330000000  0.5580150000000 1.0
C      1  0.5649870000000  0.4562940000000  0.4382260000000 1.0
C      1  0.4385200000000  0.5435560000000  0.4327510000000 1.0
C      1  0.4359010000000  0.4553360000000  0.5615630000000 1.0
C      1  0.5164310000000  0.5875270000000  0.4742030000000 1.0
C      1  0.5208520000000  0.4145810000000  0.5242950000000 1.0
C      1  0.4834320000000  0.5880910000000  0.5255150000000 1.0
C      1  0.4795600000000  0.4151660000000  0.4760380000000 1.0
C      1  0.5450420000000  0.5094100000000  0.5093380000000 1.0
C      1  0.5451890000000  0.4922590000000  0.4876540000000 1.0
C      1  0.4654800000000  0.5069450000000  0.4870930000000 1.0
C      1  0.4535030000000  0.4923670000000  0.5079250000000 1.0
C      1  0.4924980000000  0.4872200000000  0.5967160000000 1.0
C      1  0.4941470000000  0.5129360000000  0.4012830000000 1.0
C      1  0.5077700000000  0.4866350000000  0.4019850000000 1.0
C      1  0.5061180000000  0.5131760000000  0.5967750000000 1.0
C      1  0.5409780000000  0.5609930000000  0.5552160000000 1.0
C      1  0.5390860000000  0.4418860000000  0.4424040000000 1.0
C      1  0.4582240000000  0.5597780000000  0.4446820000000 1.0
C      1  0.4585870000000  0.4382480000000  0.5646060000000 1.0
C      1  0.5825780000000  0.5192470000000  0.4651170000000 1.0
C      1  0.5775670000000  0.4655490000000  0.5422070000000 1.0
C      1  0.4196110000000  0.5126060000000  0.5296280000000 1.0
C      1  0.4181110000000  0.4850870000000  0.4666550000000 1.0
C      1  0.4415350000000  0.4637390000000  0.4758170000000 1.0
C      1  0.4365980000000  0.5334740000000  0.5159870000000 1.0
C      1  0.5599570000000  0.4700510000000  0.5197050000000 1.0
C      1  0.5750530000000  0.5374710000000  0.4852190000000 1.0
C      1  0.5318140000000  0.5768010000000  0.5142610000000 1.0
C      1  0.5306680000000  0.4258660000000  0.4853510000000 1.0
C      1  0.4685280000000  0.5760600000000  0.4854970000000 1.0
C      1  0.4693300000000  0.4241260000000  0.5159110000000 1.0
C      1  0.5110170000000  0.4176670000000  0.5514910000000 1.0
C      1  0.5079930000000  0.5831510000000  0.4467910000000 1.0
C      1  0.4893110000000  0.4178920000000  0.4487410000000 1.0
C      1  0.4918380000000  0.5838290000000  0.5528420000000 1.0
C      1  0.5851340000000  0.5342300000000  0.5137350000000 1.0
C      1  0.5814790000000  0.4588150000000  0.4875050000000 1.0
C      1  0.4177010000000  0.5343550000000  0.4887050000000 1.0
C      1  0.4195330000000  0.4585890000000  0.5114480000000 1.0
C      1  0.4403340000000  0.4835660000000  0.5539140000000 1.0
C      1  0.4424380000000  0.5188560000000  0.4457580000000 1.0
C      1  0.5595440000000  0.4827500000000  0.4492510000000 1.0
C      1  0.5589800000000  0.5154370000000  0.5509390000000 1.0
C      1  0.4758560000000  0.5605310000000  0.5549180000000 1.0
C      1  0.4752430000000  0.4430280000000  0.4471480000000 1.0
C      1  0.5232900000000  0.5594900000000  0.4459190000000 1.0
C      1  0.5280580000000  0.4407030000000  0.5545910000000 1.0
C      1  0.4713340000000  0.5074990000000  0.4179720000000 1.0
C      1  0.4691270000000  0.4925170000000  0.5813270000000 1.0
C      1  0.5279070000000  0.5095710000000  0.5783880000000 1.0
C      1  0.5295150000000  0.4922400000000  0.4201240000000 1.0
C      1  0.4994960000000  0.5435460000000  0.4403650000000 1.0
C      1  0.5047940000000  0.4578850000000  0.5568020000000 1.0
C      1  0.4999390000000  0.5432170000000  0.5589410000000 1.0
C      1  0.5005620000000  0.4582130000000  0.4409400000000 1.0
C      1  0.4701020000000  0.5287670000000  0.5200920000000 1.0
C      1  0.4719870000000  0.4681230000000  0.4770920000000 1.0
C      1  0.5187610000000  0.5282260000000  0.4823820000000 1.0
C      1  0.5312480000000  0.4681750000000  0.5198250000000 1.0
C      1  0.4962840000000  0.5729690000000  0.4870700000000 1.0
C      1  0.4981220000000  0.4273260000000  0.5132320000000 1.0
C      1  0.5039870000000  0.5730130000000  0.5131610000000 1.0
C      1  0.5025950000000  0.4279390000000  0.4870200000000 1.0
C      1  0.4639300000000  0.5208400000000  0.5819210000000 1.0
C      1  0.4650930000000  0.4794140000000  0.4166120000000 1.0
C      1  0.5350290000000  0.5205980000000  0.4185740000000 1.0
C      1  0.5333540000000  0.4821640000000  0.5839120000000 1.0
C      1  0.4732170000000  0.5332660000000  0.4924580000000 1.0
C      1  0.4740570000000  0.4715640000000  0.5071760000000 1.0
C      1  0.5260800000000  0.5310550000000  0.5106140000000 1.0
C      1  0.5225590000000  0.4751620000000  0.4933360000000 1.0
C      1  0.5127860000000  0.4318170000000  0.4368940000000 1.0
C      1  0.5146720000000  0.5681630000000  0.5636340000000 1.0
C      1  0.4860800000000  0.4349720000000  0.5576890000000 1.0
C      1  0.4844530000000  0.5686950000000  0.4363400000000 1.0
C      1  0.5427360000000  0.5551970000000  0.5262520000000 1.0
C      1  0.5444650000000  0.4419410000000  0.4695490000000 1.0
C      1  0.4577640000000  0.5537060000000  0.4748440000000 1.0
C      1  0.4600540000000  0.4491270000000  0.5259180000000 1.0
C      1  0.4818160000000  0.5090380000000  0.5372090000000 1.0
C      1  0.4813900000000  0.4954270000000  0.4662490000000 1.0
C      1  0.5119350000000  0.5046350000000  0.4652450000000 1.0
C      1  0.5103660000000  0.4941640000000  0.5337870000000 1.0
C      1  0.5708530000000  0.4851280000000  0.4772920000000 1.0
C      1  0.5693770000000  0.5126530000000  0.5237660000000 1.0
C      1  0.4260030000000  0.4877100000000  0.5154220000000 1.0
C      1  0.4159340000000  0.5085250000000  0.4788360000000 1.0
C      1  0.5601150000000  0.5614140000000  0.4762890000000 1.0
C      1  0.5677680000000  0.4435680000000  0.5092420000000 1.0
C      1  0.4388370000000  0.5622460000000  0.5230950000000 1.0
C      1  0.4329730000000  0.4421140000000  0.4918160000000 1.0
C      1  0.5513480000000  0.5281780000000  0.4387980000000 1.0
C      1  0.5461400000000  0.4744910000000  0.5634900000000 1.0
C      1  0.4451880000000  0.5302620000000  0.5629810000000 1.0
C      1  0.4466870000000  0.4726230000000  0.4352340000000 1.0
C      1  0.5258040000000  0.4851750000000  0.4483830000000 1.0
C      1  0.5245310000000  0.5155780000000  0.5498650000000 1.0
C      1  0.4684010000000  0.4886480000000  0.5526560000000 1.0
C      1  0.4721250000000  0.5160030000000  0.4455010000000 1.0
C      1  0.5097790000000  0.5328050000000  0.4145990000000 1.0
C      1  0.5090540000000  0.4680050000000  0.5840820000000 1.0
C      1  0.4896310000000  0.5327970000000  0.5845150000000 1.0
C      1  0.4908730000000  0.4671920000000  0.4146230000000 1.0
C      1  0.5706880000000  0.4875980000000  0.5598060000000 1.0
C      1  0.5721170000000  0.5090990000000  0.4415520000000 1.0
C      1  0.4293240000000  0.4924110000000  0.4413440000000 1.0
C      1  0.4270530000000  0.5090710000000  0.5568580000000 1.0
C      1  0.4319450000000  0.4447850000000  0.5337110000000 1.0
C      1  0.4245610000000  0.5562920000000  0.4715920000000 1.0
C      1  0.5735620000000  0.4445470000000  0.4639460000000 1.0
C      1  0.5746730000000  0.5530850000000  0.5325080000000 1.0
C      1  0.4546460000000  0.4222210000000  0.4910110000000 1.0
C      1  0.4582000000000  0.5810330000000  0.5118090000000 1.0
C      1  0.5448830000000  0.4235380000000  0.5096590000000 1.0
C      1  0.5416930000000  0.5808170000000  0.4876480000000 1.0
C      1  0.5002810000000  0.4883550000000  0.5063330000000 1.0
END
