TITL C-2441163-1170-952 0.0812491154721566 125000 -23295.1736491733 0 0 169 (C1) n - 1
REM
REM in /home/bkarasulu/work/CARBON/AIRSS/Generating-Clusters/ReaxFF-fromJPCA2015/Units_Real/with-SteepDescent/Higher-Symm
REM
REM
REM
REM
REM
REM ./C.cell (1df0a924f5614ab8850e4351716899ee)
REM
REM compiler GCC version 9.2.1 20190827 (Red Hat 9.2.1-1)
REM options -cpp -mtune=generic -march=x86-64 -g -O0 -fpre-include=/usr/include/finclude/math-vector-fortran.h
REM seed -157862326 2113155224 -1219005257 -1895937166 -125822942 848823287 -381437765 923138665 -700786840 -468079781 2030906271 -1404184229 -1913322507 1516214442 1775624841 -402639468 1140071086 -739294449 2000620040 -1628878247 122893722 532368896 1296500075 1115547695 2049733166 1429705270 -1704573307 -1122239386 2060268563 -1042728830 -1073140829 -970532183 278459110
REM
CELL 1.54180   50.00000   50.00000   50.00000   90.00000   90.00000   90.00000
LATT -1
SFAC C  
C      1  0.4278540000000  0.4232670000000  0.5134550000000 1.0
C      1  0.4284140000000  0.4233830000000  0.4856540000000 1.0
C      1  0.4837220000000  0.5278030000000  0.5356060000000 1.0
C      1  0.4857440000000  0.5282890000000  0.4523300000000 1.0
C      1  0.5167260000000  0.5743740000000  0.5725600000000 1.0
C      1  0.5153570000000  0.5736260000000  0.4283000000000 1.0
C      1  0.4834930000000  0.4897540000000  0.3948000000000 1.0
C      1  0.4968270000000  0.4967790000000  0.5954350000000 1.0
C      1  0.4728180000000  0.5744450000000  0.4805240000000 1.0
C      1  0.4702250000000  0.5678230000000  0.5100310000000 1.0
C      1  0.5781460000000  0.5203260000000  0.4381700000000 1.0
C      1  0.5758750000000  0.5231780000000  0.5644250000000 1.0
C      1  0.4653830000000  0.4455600000000  0.5329350000000 1.0
C      1  0.4654880000000  0.4416530000000  0.4657680000000 1.0
C      1  0.5589880000000  0.5112320000000  0.5851300000000 1.0
C      1  0.5589590000000  0.5131550000000  0.4182670000000 1.0
C      1  0.5401320000000  0.5316000000000  0.4073990000000 1.0
C      1  0.5368040000000  0.5280130000000  0.5950810000000 1.0
C      1  0.5280830000000  0.5580080000000  0.4073930000000 1.0
C      1  0.5244850000000  0.5546520000000  0.5921230000000 1.0
C      1  0.4979970000000  0.5067900000000  0.4129670000000 1.0
C      1  0.5047920000000  0.5039730000000  0.5676040000000 1.0
C      1  0.4631580000000  0.4903640000000  0.5968870000000 1.0
C      1  0.4550470000000  0.4868800000000  0.4006300000000 1.0
C      1  0.4892340000000  0.5659680000000  0.4379380000000 1.0
C      1  0.4857350000000  0.5733930000000  0.5595880000000 1.0
C      1  0.5492890000000  0.4133860000000  0.4525950000000 1.0
C      1  0.5488860000000  0.4133270000000  0.5468860000000 1.0
C      1  0.5136320000000  0.5185090000000  0.6089740000000 1.0
C      1  0.5179240000000  0.5197900000000  0.3964220000000 1.0
C      1  0.4555710000000  0.5875790000000  0.5258770000000 1.0
C      1  0.4539670000000  0.5943520000000  0.4715640000000 1.0
C      1  0.4526540000000  0.4273280000000  0.5541750000000 1.0
C      1  0.4534690000000  0.4225070000000  0.4437410000000 1.0
C      1  0.5069050000000  0.5466570000000  0.3889610000000 1.0
C      1  0.5026770000000  0.5445690000000  0.6088320000000 1.0
C      1  0.4941450000000  0.5032230000000  0.4420280000000 1.0
C      1  0.4800300000000  0.5066220000000  0.5548390000000 1.0
C      1  0.5732060000000  0.4785310000000  0.5402940000000 1.0
C      1  0.5711860000000  0.4746390000000  0.4576690000000 1.0
C      1  0.5336920000000  0.5093930000000  0.5122400000000 1.0
C      1  0.5485090000000  0.5149620000000  0.4858300000000 1.0
C      1  0.4565410000000  0.5591030000000  0.5674140000000 1.0
C      1  0.4608390000000  0.5581170000000  0.4318780000000 1.0
C      1  0.4116500000000  0.5104360000000  0.4754470000000 1.0
C      1  0.4055490000000  0.5098010000000  0.5283710000000 1.0
C      1  0.5338580000000  0.4105950000000  0.4781870000000 1.0
C      1  0.5330560000000  0.4091860000000  0.5221420000000 1.0
C      1  0.6036580000000  0.4881410000000  0.5066500000000 1.0
C      1  0.6036120000000  0.4890850000000  0.4777910000000 1.0
C      1  0.4814370000000  0.4292620000000  0.4850030000000 1.0
C      1  0.4812150000000  0.4292100000000  0.5144900000000 1.0
C      1  0.5128940000000  0.5625340000000  0.4820720000000 1.0
C      1  0.5145050000000  0.5631760000000  0.5278720000000 1.0
C      1  0.4372490000000  0.4827460000000  0.4433750000000 1.0
C      1  0.4388060000000  0.4820920000000  0.5554430000000 1.0
C      1  0.5935760000000  0.4616700000000  0.4708680000000 1.0
C      1  0.5928810000000  0.4672860000000  0.5226910000000 1.0
C      1  0.4797180000000  0.5462870000000  0.5981590000000 1.0
C      1  0.4802870000000  0.5443620000000  0.3975530000000 1.0
C      1  0.5273830000000  0.4837110000000  0.4750010000000 1.0
C      1  0.5268320000000  0.4843040000000  0.5269310000000 1.0
C      1  0.4610620000000  0.5015120000000  0.4826590000000 1.0
C      1  0.4596350000000  0.4908550000000  0.5103090000000 1.0
C      1  0.4337520000000  0.5526470000000  0.5513810000000 1.0
C      1  0.4362550000000  0.5503730000000  0.4467940000000 1.0
C      1  0.5414220000000  0.5239560000000  0.5366380000000 1.0
C      1  0.5331890000000  0.5266080000000  0.4631500000000 1.0
C      1  0.5329270000000  0.4675180000000  0.5896660000000 1.0
C      1  0.5269810000000  0.4701300000000  0.4109540000000 1.0
C      1  0.5393120000000  0.5839620000000  0.4467670000000 1.0
C      1  0.5382280000000  0.5843620000000  0.5558390000000 1.0
C      1  0.5812330000000  0.5524280000000  0.5573360000000 1.0
C      1  0.5825540000000  0.5508350000000  0.4422750000000 1.0
C      1  0.5763790000000  0.5171270000000  0.4918950000000 1.0
C      1  0.5929910000000  0.5128010000000  0.5176940000000 1.0
C      1  0.3941470000000  0.5335430000000  0.5159500000000 1.0
C      1  0.3953970000000  0.5334590000000  0.4866030000000 1.0
C      1  0.5343740000000  0.5989400000000  0.5306670000000 1.0
C      1  0.5376290000000  0.5955170000000  0.4733790000000 1.0
C      1  0.5308740000000  0.4395070000000  0.5208200000000 1.0
C      1  0.5317240000000  0.4396850000000  0.4787670000000 1.0
C      1  0.6000060000000  0.5526990000000  0.4641540000000 1.0
C      1  0.5979710000000  0.5490660000000  0.5360580000000 1.0
C      1  0.5044980000000  0.4461100000000  0.5148600000000 1.0
C      1  0.5042810000000  0.4490710000000  0.4851300000000 1.0
C      1  0.4978760000000  0.5502720000000  0.5459860000000 1.0
C      1  0.5073390000000  0.5453750000000  0.4591070000000 1.0
C      1  0.5005810000000  0.4279480000000  0.4405560000000 1.0
C      1  0.4983940000000  0.4284070000000  0.5598780000000 1.0
C      1  0.4586440000000  0.5414700000000  0.5889940000000 1.0
C      1  0.4559600000000  0.5394050000000  0.4081330000000 1.0
C      1  0.4075600000000  0.4816680000000  0.5142320000000 1.0
C      1  0.4085870000000  0.4815360000000  0.4865560000000 1.0
C      1  0.4333940000000  0.5670840000000  0.4709540000000 1.0
C      1  0.4293820000000  0.5728540000000  0.5319140000000 1.0
C      1  0.4811590000000  0.5939790000000  0.5383600000000 1.0
C      1  0.4808730000000  0.6017350000000  0.4730200000000 1.0
C      1  0.4525770000000  0.4589590000000  0.4097540000000 1.0
C      1  0.4566160000000  0.4625870000000  0.5920300000000 1.0
C      1  0.4786870000000  0.4088360000000  0.4446100000000 1.0
C      1  0.4764380000000  0.4099780000000  0.5551030000000 1.0
C      1  0.5564240000000  0.4827710000000  0.5863530000000 1.0
C      1  0.5524770000000  0.4850830000000  0.4131860000000 1.0
C      1  0.4844450000000  0.4552470000000  0.5872440000000 1.0
C      1  0.4802990000000  0.4551660000000  0.4170460000000 1.0
C      1  0.4498470000000  0.4024390000000  0.4857120000000 1.0
C      1  0.4490310000000  0.4017690000000  0.5139470000000 1.0
C      1  0.5271770000000  0.4256640000000  0.5632880000000 1.0
C      1  0.5288670000000  0.4270610000000  0.4355940000000 1.0
C      1  0.5613580000000  0.4656420000000  0.4326940000000 1.0
C      1  0.5648640000000  0.4595400000000  0.5599550000000 1.0
C      1  0.4675510000000  0.4813850000000  0.5529530000000 1.0
C      1  0.4622320000000  0.4832630000000  0.4590620000000 1.0
C      1  0.4482440000000  0.5451650000000  0.4842070000000 1.0
C      1  0.4416860000000  0.5339620000000  0.5090380000000 1.0
C      1  0.5591610000000  0.5877420000000  0.5199960000000 1.0
C      1  0.5555760000000  0.5802610000000  0.4912520000000 1.0
C      1  0.4218000000000  0.4554760000000  0.5242000000000 1.0
C      1  0.4220590000000  0.4554110000000  0.4744010000000 1.0
C      1  0.4978340000000  0.4844410000000  0.5145710000000 1.0
C      1  0.5012950000000  0.4790760000000  0.4863920000000 1.0
C      1  0.5074210000000  0.5915750000000  0.5198710000000 1.0
C      1  0.5092000000000  0.5917880000000  0.4852780000000 1.0
C      1  0.4240470000000  0.5246040000000  0.4510210000000 1.0
C      1  0.4195640000000  0.5246760000000  0.5493260000000 1.0
C      1  0.5097240000000  0.3960810000000  0.4874590000000 1.0
C      1  0.5082920000000  0.3944800000000  0.5154430000000 1.0
C      1  0.4216520000000  0.4584790000000  0.4450040000000 1.0
C      1  0.4226590000000  0.4575070000000  0.5541240000000 1.0
C      1  0.5863520000000  0.4992550000000  0.4552050000000 1.0
C      1  0.5815230000000  0.5054170000000  0.5440160000000 1.0
C      1  0.4718480000000  0.5277520000000  0.4750140000000 1.0
C      1  0.4644420000000  0.5424620000000  0.5216620000000 1.0
C      1  0.5219860000000  0.5026380000000  0.4527880000000 1.0
C      1  0.5281950000000  0.5029880000000  0.5518370000000 1.0
C      1  0.5946200000000  0.5401190000000  0.4883510000000 1.0
C      1  0.6093650000000  0.5411330000000  0.5148710000000 1.0
C      1  0.5628220000000  0.5724150000000  0.5451780000000 1.0
C      1  0.5633280000000  0.5709590000000  0.4514970000000 1.0
C      1  0.5390870000000  0.5552390000000  0.4923320000000 1.0
C      1  0.5369010000000  0.5481520000000  0.5214480000000 1.0
C      1  0.5064570000000  0.4705890000000  0.5985930000000 1.0
C      1  0.5003840000000  0.4673060000000  0.4003490000000 1.0
C      1  0.4278250000000  0.5058780000000  0.5696780000000 1.0
C      1  0.4278210000000  0.5058000000000  0.4314510000000 1.0
C      1  0.4505750000000  0.4622900000000  0.4783850000000 1.0
C      1  0.4502140000000  0.4632560000000  0.5125800000000 1.0
C      1  0.4950840000000  0.5198540000000  0.4890370000000 1.0
C      1  0.5029550000000  0.5135440000000  0.5134000000000 1.0
C      1  0.4375360000000  0.4410150000000  0.4278840000000 1.0
C      1  0.4396590000000  0.4443840000000  0.5740400000000 1.0
C      1  0.4858880000000  0.4524690000000  0.4453880000000 1.0
C      1  0.4861080000000  0.4579710000000  0.5555790000000 1.0
C      1  0.5854730000000  0.4380950000000  0.4869770000000 1.0
C      1  0.5845720000000  0.4401870000000  0.5186260000000 1.0
C      1  0.5691600000000  0.4344300000000  0.5421690000000 1.0
C      1  0.5703740000000  0.4276890000000  0.4662160000000 1.0
C      1  0.5468870000000  0.4638910000000  0.5157420000000 1.0
C      1  0.5482050000000  0.4633720000000  0.4852950000000 1.0
C      1  0.4792980000000  0.3997570000000  0.5273270000000 1.0
C      1  0.4812330000000  0.4019660000000  0.4738070000000 1.0
C      1  0.4468510000000  0.5123270000000  0.5904610000000 1.0
C      1  0.4434650000000  0.5116160000000  0.4095910000000 1.0
C      1  0.4059500000000  0.5609860000000  0.4864530000000 1.0
C      1  0.4070630000000  0.5624930000000  0.5150390000000 1.0
C      1  0.5362260000000  0.4529180000000  0.4311460000000 1.0
C      1  0.5377550000000  0.4525050000000  0.5666700000000 1.0
C      1  0.4376800000000  0.5070980000000  0.4994060000000 1.0
END
