TITL C-2441168-9922-597 0.0677941242107145 125000 -22823.6082290832 0 0 161 (C1) n - 1
REM
REM in /home/bkarasulu/work/CARBON/AIRSS/Generating-Clusters/ReaxFF-fromJPCA2015/Units_Real/with-SteepDescent/Higher-Symm
REM
REM
REM
REM
REM
REM ./C.cell (1df0a924f5614ab8850e4351716899ee)
REM
REM compiler GCC version 9.2.1 20190827 (Red Hat 9.2.1-1)
REM options -cpp -mtune=generic -march=x86-64 -g -O0 -fpre-include=/usr/include/finclude/math-vector-fortran.h
REM seed 93521370 934576891 -656995630 1313579069 1175091274 629178635 -2033589620 -1955639485 -1697937819 143265031 20391176 -1540755141 -659747061 -1049870360 623576620 -960827745 28664126 -1531629425 -528729799 -1594149865 -347515292 802585303 634174075 913320565 -162022945 1862943648 -1546850596 -1800548795 797949190 -735439466 1233513880 650405645 778427032
REM
CELL 1.54180   50.00000   50.00000   50.00000   90.00000   90.00000   90.00000
LATT -1
SFAC C  
C      1  0.5109660000000  0.4658210000000  0.4004820000000 1.0
C      1  0.5089400000000  0.5335800000000  0.5992410000000 1.0
C      1  0.4911970000000  0.4691280000000  0.5938980000000 1.0
C      1  0.4856950000000  0.5394670000000  0.4022520000000 1.0
C      1  0.4845140000000  0.4470160000000  0.5758170000000 1.0
C      1  0.4752820000000  0.5575510000000  0.4235950000000 1.0
C      1  0.5286970000000  0.4481640000000  0.4180170000000 1.0
C      1  0.5201110000000  0.5537360000000  0.5756240000000 1.0
C      1  0.4975040000000  0.4481490000000  0.5127430000000 1.0
C      1  0.5002690000000  0.5556580000000  0.4903020000000 1.0
C      1  0.4986730000000  0.4408080000000  0.4854990000000 1.0
C      1  0.4969550000000  0.5562220000000  0.5190650000000 1.0
C      1  0.4844920000000  0.5243190000000  0.5517740000000 1.0
C      1  0.4795280000000  0.4815830000000  0.4497100000000 1.0
C      1  0.5140750000000  0.5150330000000  0.4542480000000 1.0
C      1  0.5152870000000  0.4881850000000  0.5428130000000 1.0
C      1  0.5390440000000  0.4152860000000  0.4957510000000 1.0
C      1  0.5340230000000  0.5813720000000  0.5023760000000 1.0
C      1  0.4631150000000  0.4183170000000  0.5014300000000 1.0
C      1  0.4634120000000  0.5816150000000  0.5015270000000 1.0
C      1  0.4816860000000  0.5220690000000  0.5991010000000 1.0
C      1  0.4837840000000  0.4613730000000  0.4102390000000 1.0
C      1  0.5136180000000  0.5236220000000  0.4007120000000 1.0
C      1  0.5182600000000  0.4786810000000  0.6000460000000 1.0
C      1  0.5165500000000  0.5373420000000  0.5284220000000 1.0
C      1  0.5467370000000  0.4676110000000  0.4943370000000 1.0
C      1  0.4794560000000  0.5372270000000  0.4804680000000 1.0
C      1  0.4748370000000  0.4675680000000  0.5190770000000 1.0
C      1  0.5403930000000  0.4616700000000  0.5223400000000 1.0
C      1  0.5438540000000  0.5290120000000  0.4900670000000 1.0
C      1  0.4588240000000  0.4719560000000  0.4936340000000 1.0
C      1  0.4609120000000  0.5325630000000  0.5050830000000 1.0
C      1  0.4318770000000  0.5150150000000  0.4980280000000 1.0
C      1  0.4357110000000  0.4867650000000  0.5036810000000 1.0
C      1  0.5719950000000  0.5144740000000  0.4970900000000 1.0
C      1  0.5739690000000  0.4829520000000  0.4944240000000 1.0
C      1  0.4294070000000  0.4334760000000  0.5208260000000 1.0
C      1  0.4271700000000  0.5664980000000  0.4794690000000 1.0
C      1  0.5702100000000  0.4332740000000  0.4787230000000 1.0
C      1  0.5701440000000  0.5660450000000  0.5168340000000 1.0
C      1  0.4709220000000  0.4898170000000  0.4741090000000 1.0
C      1  0.4766010000000  0.5176200000000  0.5252010000000 1.0
C      1  0.5407260000000  0.4907640000000  0.5286760000000 1.0
C      1  0.5365690000000  0.5094470000000  0.4703200000000 1.0
C      1  0.4925740000000  0.5511060000000  0.5643970000000 1.0
C      1  0.4888720000000  0.4537470000000  0.4392290000000 1.0
C      1  0.5095380000000  0.5435030000000  0.4437880000000 1.0
C      1  0.5079340000000  0.4387800000000  0.5597880000000 1.0
C      1  0.4277860000000  0.4344220000000  0.4906380000000 1.0
C      1  0.4240080000000  0.5676460000000  0.5105590000000 1.0
C      1  0.5684200000000  0.4323780000000  0.5147500000000 1.0
C      1  0.5713530000000  0.5671060000000  0.4860760000000 1.0
C      1  0.4696690000000  0.4410770000000  0.4832350000000 1.0
C      1  0.4678690000000  0.5582940000000  0.5185800000000 1.0
C      1  0.5168410000000  0.4473120000000  0.5332550000000 1.0
C      1  0.5289420000000  0.5567420000000  0.4880920000000 1.0
C      1  0.5850110000000  0.4517580000000  0.5297280000000 1.0
C      1  0.5863480000000  0.5471570000000  0.4701730000000 1.0
C      1  0.4131290000000  0.4561440000000  0.4783700000000 1.0
C      1  0.4109070000000  0.5452640000000  0.5258360000000 1.0
C      1  0.4729750000000  0.6091570000000  0.5046110000000 1.0
C      1  0.4729840000000  0.3906350000000  0.4985780000000 1.0
C      1  0.5272550000000  0.6092830000000  0.4977340000000 1.0
C      1  0.5276530000000  0.3891370000000  0.4984790000000 1.0
C      1  0.4186800000000  0.4810640000000  0.5285820000000 1.0
C      1  0.4205290000000  0.5190600000000  0.4726350000000 1.0
C      1  0.5918340000000  0.4774330000000  0.4738030000000 1.0
C      1  0.5726650000000  0.5154320000000  0.5247850000000 1.0
C      1  0.4307740000000  0.4869900000000  0.5715190000000 1.0
C      1  0.4375110000000  0.5232930000000  0.4143540000000 1.0
C      1  0.5740380000000  0.4865250000000  0.4278990000000 1.0
C      1  0.5718390000000  0.5143070000000  0.5734120000000 1.0
C      1  0.4750170000000  0.5972700000000  0.5464850000000 1.0
C      1  0.4695420000000  0.4058630000000  0.4595810000000 1.0
C      1  0.5279770000000  0.5910560000000  0.4608670000000 1.0
C      1  0.5334120000000  0.4007990000000  0.5433820000000 1.0
C      1  0.5888890000000  0.4935500000000  0.5614090000000 1.0
C      1  0.5899460000000  0.5079690000000  0.4397600000000 1.0
C      1  0.4022120000000  0.4887970000000  0.4394070000000 1.0
C      1  0.4183830000000  0.5011390000000  0.5513590000000 1.0
C      1  0.4176620000000  0.4650700000000  0.4489800000000 1.0
C      1  0.4225770000000  0.5296440000000  0.5483680000000 1.0
C      1  0.5803670000000  0.4659480000000  0.5556250000000 1.0
C      1  0.5802770000000  0.5349860000000  0.4436780000000 1.0
C      1  0.4908260000000  0.5110590000000  0.4774100000000 1.0
C      1  0.4922260000000  0.4923780000000  0.5218990000000 1.0
C      1  0.5279690000000  0.5160040000000  0.5119500000000 1.0
C      1  0.5276760000000  0.4846390000000  0.4821540000000 1.0
C      1  0.5932090000000  0.4759830000000  0.5173510000000 1.0
C      1  0.5960600000000  0.5231590000000  0.4827190000000 1.0
C      1  0.3975540000000  0.4794150000000  0.4890410000000 1.0
C      1  0.4045730000000  0.5215240000000  0.5113320000000 1.0
C      1  0.5287200000000  0.5857780000000  0.5312710000000 1.0
C      1  0.5218080000000  0.4216760000000  0.4724040000000 1.0
C      1  0.4702970000000  0.5824360000000  0.4731950000000 1.0
C      1  0.4739460000000  0.4179980000000  0.5288940000000 1.0
C      1  0.5128550000000  0.3924930000000  0.4732870000000 1.0
C      1  0.5175100000000  0.6119350000000  0.5250450000000 1.0
C      1  0.4864240000000  0.3914450000000  0.5244870000000 1.0
C      1  0.4832400000000  0.6080070000000  0.4774790000000 1.0
C      1  0.5437780000000  0.4727220000000  0.5876550000000 1.0
C      1  0.5402060000000  0.5241250000000  0.4135810000000 1.0
C      1  0.4567000000000  0.4722130000000  0.4125590000000 1.0
C      1  0.4567120000000  0.5271660000000  0.5849890000000 1.0
C      1  0.5775550000000  0.5434320000000  0.5335030000000 1.0
C      1  0.5854250000000  0.4523550000000  0.4623920000000 1.0
C      1  0.4204030000000  0.5451620000000  0.4613560000000 1.0
C      1  0.4198780000000  0.4537570000000  0.5379780000000 1.0
C      1  0.4807510000000  0.5372050000000  0.4451220000000 1.0
C      1  0.4654600000000  0.4754090000000  0.5469690000000 1.0
C      1  0.5273800000000  0.5328900000000  0.5539090000000 1.0
C      1  0.5196710000000  0.4599340000000  0.4427730000000 1.0
C      1  0.5559930000000  0.5804460000000  0.4642630000000 1.0
C      1  0.5578030000000  0.4173410000000  0.5378530000000 1.0
C      1  0.4376700000000  0.5803190000000  0.5324930000000 1.0
C      1  0.4431250000000  0.4186220000000  0.4654750000000 1.0
C      1  0.5144150000000  0.4952490000000  0.3955950000000 1.0
C      1  0.5199140000000  0.5081250000000  0.6080340000000 1.0
C      1  0.4748920000000  0.4929570000000  0.6004400000000 1.0
C      1  0.4598660000000  0.5280300000000  0.3942150000000 1.0
C      1  0.5685000000000  0.5417450000000  0.5623240000000 1.0
C      1  0.5756690000000  0.4584430000000  0.4354740000000 1.0
C      1  0.4301700000000  0.5449550000000  0.4331040000000 1.0
C      1  0.4378890000000  0.4609440000000  0.5601440000000 1.0
C      1  0.5554890000000  0.5782570000000  0.5409410000000 1.0
C      1  0.5513650000000  0.4274890000000  0.4584590000000 1.0
C      1  0.4446280000000  0.5793080000000  0.4598870000000 1.0
C      1  0.4491800000000  0.4248970000000  0.5420960000000 1.0
C      1  0.5243550000000  0.5066300000000  0.5628910000000 1.0
C      1  0.5236890000000  0.4883020000000  0.4385250000000 1.0
C      1  0.4752030000000  0.5069460000000  0.4373220000000 1.0
C      1  0.4790580000000  0.4964360000000  0.5602020000000 1.0
C      1  0.4576090000000  0.4393860000000  0.5663610000000 1.0
C      1  0.4486410000000  0.5665990000000  0.4329890000000 1.0
C      1  0.5538790000000  0.4392350000000  0.4306170000000 1.0
C      1  0.5502280000000  0.5636850000000  0.5661990000000 1.0
C      1  0.4436050000000  0.5422440000000  0.5639780000000 1.0
C      1  0.4379250000000  0.4570330000000  0.4290690000000 1.0
C      1  0.5585570000000  0.5427750000000  0.4275570000000 1.0
C      1  0.5592440000000  0.4551180000000  0.5717920000000 1.0
C      1  0.4459430000000  0.4309300000000  0.4385580000000 1.0
C      1  0.4456650000000  0.5714000000000  0.5591310000000 1.0
C      1  0.5538730000000  0.4292420000000  0.5646410000000 1.0
C      1  0.5511620000000  0.5662470000000  0.4386420000000 1.0
C      1  0.5950790000000  0.4992810000000  0.5339870000000 1.0
C      1  0.6019380000000  0.5013550000000  0.4647130000000 1.0
C      1  0.3990800000000  0.4999660000000  0.4675150000000 1.0
C      1  0.3965970000000  0.4937280000000  0.5149320000000 1.0
C      1  0.5232060000000  0.5694000000000  0.4413450000000 1.0
C      1  0.5276030000000  0.4182120000000  0.5665210000000 1.0
C      1  0.4754030000000  0.5758420000000  0.5640700000000 1.0
C      1  0.4743840000000  0.4251740000000  0.4388390000000 1.0
C      1  0.5115570000000  0.6100320000000  0.4736390000000 1.0
C      1  0.5151830000000  0.3872970000000  0.5251840000000 1.0
C      1  0.4881360000000  0.6153420000000  0.5293680000000 1.0
C      1  0.4853270000000  0.3891930000000  0.4736030000000 1.0
C      1  0.5473490000000  0.4997610000000  0.5782930000000 1.0
C      1  0.5470340000000  0.4972750000000  0.4241520000000 1.0
C      1  0.4513880000000  0.4991560000000  0.4237350000000 1.0
C      1  0.4492900000000  0.4999660000000  0.5884060000000 1.0
C      1  0.5067990000000  0.4998590000000  0.4980890000000 1.0
END
