TITL C-2441169-1362-922 0.00153334210897146 125000 -5013.21553837401 0 0 36 (C1) n - 1
REM
REM in /home/bkarasulu/work/CARBON/AIRSS/Generating-Clusters/ReaxFF-fromJPCA2015/Units_Real/with-SteepDescent/Higher-Symm
REM
REM
REM
REM
REM
REM ./C.cell (1df0a924f5614ab8850e4351716899ee)
REM
REM compiler GCC version 9.2.1 20190827 (Red Hat 9.2.1-1)
REM options -cpp -mtune=generic -march=x86-64 -g -O0 -fpre-include=/usr/include/finclude/math-vector-fortran.h
REM seed -1013510658 -437867707 1334170383 885926845 1494201582 1121411369 -1904028546 -1109002687 -1048741697 -1030427415 993373604 -1789775902 2132251878 -1349347836 -687640836 -149532000 976782428 322437967 -1933534408 -324012763 -1620076220 -1629150618 -2084585799 1169444457 612268943 1869650482 928531110 1595779390 -981934960 -858074502 -1389126457 887606785 1823017181
REM
CELL 1.54180   50.00000   50.00000   50.00000   90.00000   90.00000   90.00000
LATT -1
SFAC C  
C      1  0.5062970000000  0.4809380000000  0.4806860000000 1.0
C      1  0.4844490000000  0.4510580000000  0.4993410000000 1.0
C      1  0.4699530000000  0.5258100000000  0.5072670000000 1.0
C      1  0.4745960000000  0.5498830000000  0.5286830000000 1.0
C      1  0.5165280000000  0.5238720000000  0.5418290000000 1.0
C      1  0.4654710000000  0.4916180000000  0.5482650000000 1.0
C      1  0.5468360000000  0.5151410000000  0.5088690000000 1.0
C      1  0.4649120000000  0.4624910000000  0.5398830000000 1.0
C      1  0.5050040000000  0.4403540000000  0.5166420000000 1.0
C      1  0.4966370000000  0.5254900000000  0.4946090000000 1.0
C      1  0.4582960000000  0.4561990000000  0.4874340000000 1.0
C      1  0.5442920000000  0.4740180000000  0.5031350000000 1.0
C      1  0.4771800000000  0.4985400000000  0.5213990000000 1.0
C      1  0.5123350000000  0.5573110000000  0.4715320000000 1.0
C      1  0.5268070000000  0.4502670000000  0.4980230000000 1.0
C      1  0.4482180000000  0.4614120000000  0.5146950000000 1.0
C      1  0.5347960000000  0.5094650000000  0.4599120000000 1.0
C      1  0.5210690000000  0.5321760000000  0.5111400000000 1.0
C      1  0.5266220000000  0.4959260000000  0.5489770000000 1.0
C      1  0.4947900000000  0.4523050000000  0.5418770000000 1.0
C      1  0.5269160000000  0.5383320000000  0.4544390000000 1.0
C      1  0.5019200000000  0.5284270000000  0.4425530000000 1.0
C      1  0.4653300000000  0.4745530000000  0.4640370000000 1.0
C      1  0.4922680000000  0.4786420000000  0.5062420000000 1.0
C      1  0.5170540000000  0.4562960000000  0.4716610000000 1.0
C      1  0.4937550000000  0.5376730000000  0.5449870000000 1.0
C      1  0.5465480000000  0.4917510000000  0.5268230000000 1.0
C      1  0.4948150000000  0.4757000000000  0.4538480000000 1.0
C      1  0.5164640000000  0.5624490000000  0.4998880000000 1.0
C      1  0.4941710000000  0.5651270000000  0.5162760000000 1.0
C      1  0.4602260000000  0.5001220000000  0.4696060000000 1.0
C      1  0.5106120000000  0.4734060000000  0.5490050000000 1.0
C      1  0.4876850000000  0.5386560000000  0.4687510000000 1.0
C      1  0.4595210000000  0.5254680000000  0.4772140000000 1.0
C      1  0.5108440000000  0.5006760000000  0.4453080000000 1.0
C      1  0.5467830000000  0.4984500000000  0.4851650000000 1.0
END
