TITL C-2441154-10-828 0.00374778544677265 125000 -5945.30730310479 0 0 44 (C1) n - 1
REM
REM in /home/bkarasulu/work/CARBON/AIRSS/Generating-Clusters/ReaxFF-fromJPCA2015/Units_Real/with-SteepDescent/Higher-Symm
REM
REM
REM
REM
REM
REM ./C.cell (1df0a924f5614ab8850e4351716899ee)
REM
REM compiler GCC version 9.2.1 20190827 (Red Hat 9.2.1-1)
REM options -cpp -mtune=generic -march=x86-64 -g -O0 -fpre-include=/usr/include/finclude/math-vector-fortran.h
REM seed -1803466007 126493390 -622132146 1618068026 1761903954 -2087381815 -1969492001 1954459058 -535201446 -1871542753 333185012 1625283087 324075505 -525467043 1038710661 1793423386 -1082404408 317404759 542709319 1517209603 -2061546225 1302120998 -1816428393 826703167 326695861 -1714554649 673749028 1347695327 505777850 1285526671 -268043938 -1897277268 -2026366575
REM
CELL 1.54180   50.00000   50.00000   50.00000   90.00000   90.00000   90.00000
LATT -1
SFAC C  
C      1  0.5259840000000  0.5514320000000  0.5256410000000 1.0
C      1  0.5559630000000  0.5080590000000  0.5257540000000 1.0
C      1  0.5433490000000  0.4588980000000  0.5230060000000 1.0
C      1  0.4950570000000  0.4403250000000  0.5254330000000 1.0
C      1  0.4498340000000  0.4660930000000  0.5273370000000 1.0
C      1  0.4425750000000  0.5161710000000  0.5256880000000 1.0
C      1  0.4740700000000  0.5551450000000  0.5235140000000 1.0
C      1  0.4964720000000  0.5537970000000  0.4807740000000 1.0
C      1  0.5453750000000  0.5324810000000  0.4773230000000 1.0
C      1  0.5550090000000  0.4825330000000  0.4768990000000 1.0
C      1  0.5244130000000  0.4508340000000  0.4799300000000 1.0
C      1  0.4766150000000  0.4489050000000  0.4788800000000 1.0
C      1  0.4438760000000  0.4898480000000  0.4760160000000 1.0
C      1  0.4532290000000  0.5421090000000  0.4767240000000 1.0
C      1  0.4675950000000  0.4887360000000  0.4570120000000 1.0
C      1  0.4689930000000  0.5318800000000  0.4554420000000 1.0
C      1  0.4979590000000  0.5339710000000  0.4542060000000 1.0
C      1  0.5296530000000  0.5195670000000  0.4575130000000 1.0
C      1  0.5344120000000  0.4900720000000  0.4571680000000 1.0
C      1  0.5150360000000  0.4673110000000  0.4550930000000 1.0
C      1  0.4860300000000  0.4635160000000  0.4541760000000 1.0
C      1  0.5281130000000  0.5502970000000  0.4947200000000 1.0
C      1  0.5570520000000  0.5084420000000  0.4934140000000 1.0
C      1  0.5505100000000  0.4585550000000  0.4925950000000 1.0
C      1  0.4994340000000  0.4321430000000  0.4938230000000 1.0
C      1  0.4489890000000  0.4673360000000  0.4941770000000 1.0
C      1  0.4419050000000  0.5164410000000  0.4919680000000 1.0
C      1  0.4702980000000  0.5603950000000  0.4923630000000 1.0
C      1  0.5345850000000  0.5258520000000  0.5399760000000 1.0
C      1  0.5438960000000  0.4845570000000  0.5364740000000 1.0
C      1  0.5171320000000  0.4545120000000  0.5335120000000 1.0
C      1  0.4760180000000  0.4590900000000  0.5345920000000 1.0
C      1  0.4527180000000  0.4925210000000  0.5364120000000 1.0
C      1  0.4631940000000  0.5319230000000  0.5353040000000 1.0
C      1  0.4996020000000  0.5490800000000  0.5338410000000 1.0
C      1  0.4913980000000  0.5272100000000  0.4968180000000 1.0
C      1  0.5157440000000  0.5228530000000  0.5009810000000 1.0
C      1  0.5274500000000  0.5002530000000  0.4995090000000 1.0
C      1  0.5148190000000  0.4760720000000  0.4961350000000 1.0
C      1  0.4892440000000  0.4707010000000  0.4953760000000 1.0
C      1  0.4714120000000  0.4857170000000  0.5022950000000 1.0
C      1  0.4705580000000  0.5108730000000  0.4984690000000 1.0
C      1  0.4916830000000  0.5039850000000  0.4574390000000 1.0
C      1  0.5144560000000  0.5065280000000  0.5441770000000 1.0
END
