TITL C-2441165-58-1242 0.0453988916866347 125000 -23504.9250581642 0 0 163 (C1) n - 1
REM
REM in /home/bkarasulu/work/CARBON/AIRSS/Generating-Clusters/ReaxFF-fromJPCA2015/Units_Real/with-SteepDescent/Higher-Symm
REM
REM
REM
REM
REM
REM ./C.cell (1df0a924f5614ab8850e4351716899ee)
REM
REM compiler GCC version 9.2.1 20190827 (Red Hat 9.2.1-1)
REM options -cpp -mtune=generic -march=x86-64 -g -O0 -fpre-include=/usr/include/finclude/math-vector-fortran.h
REM seed 608813334 -131597173 1347407577 -1589192095 1880233374 2014091652 1320968743 1022613015 -772527194 2101624972 -1113044179 1074686279 -517731165 -899398473 128432144 683888221 430651008 1659547905 496026636 8010 -1674270530 720746853 529270020 598462109 -796413935 1494332722 -167779557 -364134856 1229448732 1229431140 -211571360 -1874509969 -1978856011
REM
CELL 1.54180   50.00000   50.00000   50.00000   90.00000   90.00000   90.00000
LATT -1
SFAC C  
C      1  0.5115680000000  0.5350590000000  0.4432090000000 1.0
C      1  0.4856710000000  0.4706940000000  0.4781730000000 1.0
C      1  0.4725380000000  0.5515350000000  0.4935830000000 1.0
C      1  0.4495410000000  0.5474090000000  0.5118630000000 1.0
C      1  0.4585410000000  0.5594200000000  0.5576680000000 1.0
C      1  0.5860300000000  0.5128810000000  0.5293700000000 1.0
C      1  0.5697480000000  0.5747360000000  0.5001490000000 1.0
C      1  0.5957390000000  0.5059310000000  0.4461690000000 1.0
C      1  0.5357870000000  0.4085480000000  0.5363930000000 1.0
C      1  0.5454900000000  0.5887060000000  0.4907880000000 1.0
C      1  0.5066370000000  0.5071940000000  0.4468460000000 1.0
C      1  0.5044230000000  0.5394020000000  0.5902140000000 1.0
C      1  0.4299950000000  0.4875050000000  0.4474120000000 1.0
C      1  0.5917150000000  0.4860670000000  0.5396250000000 1.0
C      1  0.4682600000000  0.4927390000000  0.5448640000000 1.0
C      1  0.5534900000000  0.5522130000000  0.5441710000000 1.0
C      1  0.5066140000000  0.4596600000000  0.4635190000000 1.0
C      1  0.4496630000000  0.4016020000000  0.5286810000000 1.0
C      1  0.5464480000000  0.4144810000000  0.5099070000000 1.0
C      1  0.5871160000000  0.5243740000000  0.4255440000000 1.0
C      1  0.4762400000000  0.4060020000000  0.4973990000000 1.0
C      1  0.5079460000000  0.5827570000000  0.5783820000000 1.0
C      1  0.4890870000000  0.5073230000000  0.5595830000000 1.0
C      1  0.4556970000000  0.4513450000000  0.5092150000000 1.0
C      1  0.4153320000000  0.4415810000000  0.5378540000000 1.0
C      1  0.5737750000000  0.5497230000000  0.4213600000000 1.0
C      1  0.5398150000000  0.5174590000000  0.4081420000000 1.0
C      1  0.5509210000000  0.4741140000000  0.4356190000000 1.0
C      1  0.5725790000000  0.5383150000000  0.5598950000000 1.0
C      1  0.4608560000000  0.5977180000000  0.4970810000000 1.0
C      1  0.4262490000000  0.4360740000000  0.4627100000000 1.0
C      1  0.5945020000000  0.5371990000000  0.5153820000000 1.0
C      1  0.5707250000000  0.4358000000000  0.4778320000000 1.0
C      1  0.4158670000000  0.4637440000000  0.4603100000000 1.0
C      1  0.5643900000000  0.5708420000000  0.4554510000000 1.0
C      1  0.4908620000000  0.5300130000000  0.4030160000000 1.0
C      1  0.4735210000000  0.4472670000000  0.5822210000000 1.0
C      1  0.4080790000000  0.5557200000000  0.5300110000000 1.0
C      1  0.5832840000000  0.5649850000000  0.4760060000000 1.0
C      1  0.4640770000000  0.4531370000000  0.4821610000000 1.0
C      1  0.5752560000000  0.4587570000000  0.4352020000000 1.0
C      1  0.5032780000000  0.5757150000000  0.5283830000000 1.0
C      1  0.4460240000000  0.4042540000000  0.5009130000000 1.0
C      1  0.4141200000000  0.5145910000000  0.5670050000000 1.0
C      1  0.5901200000000  0.4510260000000  0.4955370000000 1.0
C      1  0.4961290000000  0.4342400000000  0.4237500000000 1.0
C      1  0.4590480000000  0.4853900000000  0.4503940000000 1.0
C      1  0.4259950000000  0.4229440000000  0.4884690000000 1.0
C      1  0.4544960000000  0.4981850000000  0.5898820000000 1.0
C      1  0.5859460000000  0.4612630000000  0.5237390000000 1.0
C      1  0.5605750000000  0.4520330000000  0.5331630000000 1.0
C      1  0.5219200000000  0.5683720000000  0.4219410000000 1.0
C      1  0.5722440000000  0.4966970000000  0.4823640000000 1.0
C      1  0.4801510000000  0.4980560000000  0.6043360000000 1.0
C      1  0.5518420000000  0.4503670000000  0.5610200000000 1.0
C      1  0.5180250000000  0.5381800000000  0.4117140000000 1.0
C      1  0.5021400000000  0.4335600000000  0.4731160000000 1.0
C      1  0.4538460000000  0.5088400000000  0.4989690000000 1.0
C      1  0.5047430000000  0.6013220000000  0.5090180000000 1.0
C      1  0.5251880000000  0.5502690000000  0.4640160000000 1.0
C      1  0.4762590000000  0.4227670000000  0.4373970000000 1.0
C      1  0.4701600000000  0.4816760000000  0.3902840000000 1.0
C      1  0.5134440000000  0.3926520000000  0.5273480000000 1.0
C      1  0.4813700000000  0.4959240000000  0.4954640000000 1.0
C      1  0.4646210000000  0.4039230000000  0.5529860000000 1.0
C      1  0.5139300000000  0.4354800000000  0.5783960000000 1.0
C      1  0.4453930000000  0.5219840000000  0.5241140000000 1.0
C      1  0.4337620000000  0.5684830000000  0.5225140000000 1.0
C      1  0.3975850000000  0.4897320000000  0.4993040000000 1.0
C      1  0.4307520000000  0.4404240000000  0.5631710000000 1.0
C      1  0.4243040000000  0.4453980000000  0.5084910000000 1.0
C      1  0.5202100000000  0.4689120000000  0.4039550000000 1.0
C      1  0.5285220000000  0.5289500000000  0.5495480000000 1.0
C      1  0.4923050000000  0.3899330000000  0.4795620000000 1.0
C      1  0.5510960000000  0.5673580000000  0.4312770000000 1.0
C      1  0.5657860000000  0.5269240000000  0.4077010000000 1.0
C      1  0.4031230000000  0.5474090000000  0.5022570000000 1.0
C      1  0.4339970000000  0.4983750000000  0.4203290000000 1.0
C      1  0.4450080000000  0.5693490000000  0.4419630000000 1.0
C      1  0.4977020000000  0.5788530000000  0.4350860000000 1.0
C      1  0.5794320000000  0.4899460000000  0.5662120000000 1.0
C      1  0.5405630000000  0.4265350000000  0.4355360000000 1.0
C      1  0.4960040000000  0.5531470000000  0.5110930000000 1.0
C      1  0.5329850000000  0.6005130000000  0.5142290000000 1.0
C      1  0.5429690000000  0.5347830000000  0.5070380000000 1.0
C      1  0.5328880000000  0.5409320000000  0.5978050000000 1.0
C      1  0.4860300000000  0.4899550000000  0.5229420000000 1.0
C      1  0.4508970000000  0.5921440000000  0.5246100000000 1.0
C      1  0.4894810000000  0.3983160000000  0.5405150000000 1.0
C      1  0.5251220000000  0.5788620000000  0.4704200000000 1.0
C      1  0.5340160000000  0.5690510000000  0.5897750000000 1.0
C      1  0.4040610000000  0.5186410000000  0.4972140000000 1.0
C      1  0.5269840000000  0.4988450000000  0.4649820000000 1.0
C      1  0.4577140000000  0.5269420000000  0.5834580000000 1.0
C      1  0.5069390000000  0.4812600000000  0.5965900000000 1.0
C      1  0.5464760000000  0.5359590000000  0.4785390000000 1.0
C      1  0.4499200000000  0.4757730000000  0.4101830000000 1.0
C      1  0.4991510000000  0.4500180000000  0.5959650000000 1.0
C      1  0.4623260000000  0.4620200000000  0.4330520000000 1.0
C      1  0.4705920000000  0.5669500000000  0.4286120000000 1.0
C      1  0.4543360000000  0.5351100000000  0.5552560000000 1.0
C      1  0.4038530000000  0.4881470000000  0.5267140000000 1.0
C      1  0.4610990000000  0.5756200000000  0.4831190000000 1.0
C      1  0.5204260000000  0.4421120000000  0.4158360000000 1.0
C      1  0.5661480000000  0.4333010000000  0.4477570000000 1.0
C      1  0.5524800000000  0.5110160000000  0.4663780000000 1.0
C      1  0.5404620000000  0.4438860000000  0.5113840000000 1.0
C      1  0.4555190000000  0.4277030000000  0.5713490000000 1.0
C      1  0.5491710000000  0.5159000000000  0.5946660000000 1.0
C      1  0.4153700000000  0.5590370000000  0.4783680000000 1.0
C      1  0.4634970000000  0.5866170000000  0.5508930000000 1.0
C      1  0.5553780000000  0.4905520000000  0.5052590000000 1.0
C      1  0.4987770000000  0.4086280000000  0.4567290000000 1.0
C      1  0.5749610000000  0.5169720000000  0.5779690000000 1.0
C      1  0.4037030000000  0.5332540000000  0.5489750000000 1.0
C      1  0.5131000000000  0.4797790000000  0.5271070000000 1.0
C      1  0.4786020000000  0.5070340000000  0.4539250000000 1.0
C      1  0.4924840000000  0.5850610000000  0.5549470000000 1.0
C      1  0.5338440000000  0.5873400000000  0.5667220000000 1.0
C      1  0.5949260000000  0.5147060000000  0.4735410000000 1.0
C      1  0.5144020000000  0.5334660000000  0.5062430000000 1.0
C      1  0.4673880000000  0.5418660000000  0.4136720000000 1.0
C      1  0.4982930000000  0.4789430000000  0.3895040000000 1.0
C      1  0.5024540000000  0.4469740000000  0.5225020000000 1.0
C      1  0.4378760000000  0.5773740000000  0.4698360000000 1.0
C      1  0.5757700000000  0.5580910000000  0.5238210000000 1.0
C      1  0.5953080000000  0.4762480000000  0.4484130000000 1.0
C      1  0.5341990000000  0.5814150000000  0.5376650000000 1.0
C      1  0.4418860000000  0.5271000000000  0.4181410000000 1.0
C      1  0.4196250000000  0.5349970000000  0.4629090000000 1.0
C      1  0.4884670000000  0.6041230000000  0.4857570000000 1.0
C      1  0.5311930000000  0.4089490000000  0.4552130000000 1.0
C      1  0.5307300000000  0.5013810000000  0.5445760000000 1.0
C      1  0.5571350000000  0.4746450000000  0.5780170000000 1.0
C      1  0.4552750000000  0.4396960000000  0.4527460000000 1.0
C      1  0.5340860000000  0.4267070000000  0.5614920000000 1.0
C      1  0.5108740000000  0.5070320000000  0.4918540000000 1.0
C      1  0.5014990000000  0.5931110000000  0.4612050000000 1.0
C      1  0.4781900000000  0.4670050000000  0.5580280000000 1.0
C      1  0.5969250000000  0.5399710000000  0.4861830000000 1.0
C      1  0.4874090000000  0.5032670000000  0.3962200000000 1.0
C      1  0.5474670000000  0.4513130000000  0.4841560000000 1.0
C      1  0.5937340000000  0.4719970000000  0.4767680000000 1.0
C      1  0.4085120000000  0.4656710000000  0.4877400000000 1.0
C      1  0.5279050000000  0.4871680000000  0.5037940000000 1.0
C      1  0.4035280000000  0.4667350000000  0.5455880000000 1.0
C      1  0.5389240000000  0.4887820000000  0.4132680000000 1.0
C      1  0.4291760000000  0.5453560000000  0.4365750000000 1.0
C      1  0.5343160000000  0.4686650000000  0.4616500000000 1.0
C      1  0.5382560000000  0.4896880000000  0.5944080000000 1.0
C      1  0.4946000000000  0.4300350000000  0.4999050000000 1.0
C      1  0.5026280000000  0.5334120000000  0.5611970000000 1.0
C      1  0.4176230000000  0.4661410000000  0.5713140000000 1.0
C      1  0.5034380000000  0.4836250000000  0.5671010000000 1.0
C      1  0.4755860000000  0.4499890000000  0.5309440000000 1.0
C      1  0.4258170000000  0.4928130000000  0.5812740000000 1.0
C      1  0.4691950000000  0.5305980000000  0.4671850000000 1.0
C      1  0.5164370000000  0.3881390000000  0.4955650000000 1.0
C      1  0.5551900000000  0.5125920000000  0.5236730000000 1.0
C      1  0.5383760000000  0.4016040000000  0.4833460000000 1.0
C      1  0.4436080000000  0.5194430000000  0.4740670000000 1.0
C      1  0.4811660000000  0.5269900000000  0.6034850000000 1.0
C      1  0.4136160000000  0.5146770000000  0.5254770000000 1.0
END
