TITL C-2441155-8282-177 0.026613102720303 125000 -6891.73936853481 0 0 57 (C1) n - 1
REM
REM in /home/bkarasulu/work/CARBON/AIRSS/Generating-Clusters/ReaxFF-fromJPCA2015/Units_Real/with-SteepDescent/Higher-Symm
REM
REM
REM
REM
REM
REM ./C.cell (1df0a924f5614ab8850e4351716899ee)
REM
REM compiler GCC version 9.2.1 20190827 (Red Hat 9.2.1-1)
REM options -cpp -mtune=generic -march=x86-64 -g -O0 -fpre-include=/usr/include/finclude/math-vector-fortran.h
REM seed 1206669876 489384325 1817460971 344654498 -1745044750 1548323555 -1870351481 -64433698 -1734825655 -276141220 -2077739661 -1554660707 1454967286 1564086386 1844315041 1868115690 -173283023 -1653107372 1122484799 361838966 135941904 -803744834 2005231471 -803210459 1302476154 -1558397939 -1007822478 994131502 -365643090 -1813985889 1502180694 165711644 -372662078
REM
CELL 1.54180   50.00000   50.00000   50.00000   90.00000   90.00000   90.00000
LATT -1
SFAC C  
C      1  0.4870620000000  0.4815810000000  0.5172880000000 1.0
C      1  0.4865710000000  0.5112220000000  0.5231690000000 1.0
C      1  0.4844290000000  0.5278850000000  0.4990420000000 1.0
C      1  0.4905840000000  0.5063000000000  0.4783140000000 1.0
C      1  0.4847620000000  0.4738040000000  0.4878060000000 1.0
C      1  0.5122760000000  0.4773670000000  0.5603300000000 1.0
C      1  0.5121080000000  0.5504820000000  0.5410970000000 1.0
C      1  0.5120750000000  0.5537760000000  0.4662170000000 1.0
C      1  0.5125620000000  0.4848780000000  0.4388220000000 1.0
C      1  0.5115960000000  0.4366870000000  0.4966370000000 1.0
C      1  0.5397700000000  0.4835640000000  0.5182440000000 1.0
C      1  0.5396060000000  0.5139750000000  0.5205130000000 1.0
C      1  0.5426490000000  0.5272010000000  0.4938340000000 1.0
C      1  0.5401280000000  0.5015140000000  0.4757310000000 1.0
C      1  0.5427660000000  0.4744640000000  0.4901550000000 1.0
C      1  0.4834770000000  0.5497870000000  0.4506100000000 1.0
C      1  0.4836570000000  0.4696740000000  0.4389380000000 1.0
C      1  0.4826930000000  0.4332170000000  0.5121140000000 1.0
C      1  0.4835430000000  0.4899490000000  0.5687370000000 1.0
C      1  0.4833620000000  0.5625070000000  0.5312920000000 1.0
C      1  0.4440100000000  0.4714360000000  0.5076460000000 1.0
C      1  0.4409570000000  0.4912970000000  0.5288760000000 1.0
C      1  0.4431990000000  0.5207420000000  0.5149980000000 1.0
C      1  0.4418330000000  0.5234150000000  0.4843410000000 1.0
C      1  0.4428650000000  0.4975680000000  0.4689990000000 1.0
C      1  0.5102890000000  0.4682110000000  0.5308690000000 1.0
C      1  0.5101040000000  0.5197480000000  0.5403900000000 1.0
C      1  0.5090450000000  0.5447720000000  0.4953880000000 1.0
C      1  0.5075830000000  0.5104100000000  0.4543400000000 1.0
C      1  0.5094920000000  0.4612350000000  0.4786910000000 1.0
C      1  0.5733100000000  0.4841540000000  0.5227290000000 1.0
C      1  0.5729010000000  0.5162910000000  0.5232570000000 1.0
C      1  0.5751660000000  0.5271530000000  0.4925080000000 1.0
C      1  0.5754280000000  0.5010630000000  0.4735810000000 1.0
C      1  0.5754510000000  0.4744500000000  0.4916900000000 1.0
C      1  0.4657070000000  0.5140090000000  0.4403530000000 1.0
C      1  0.4674280000000  0.4528040000000  0.4730400000000 1.0
C      1  0.4683250000000  0.4557500000000  0.5433430000000 1.0
C      1  0.4677750000000  0.5241650000000  0.5517430000000 1.0
C      1  0.4665250000000  0.5559850000000  0.4938710000000 1.0
C      1  0.4602940000000  0.5441200000000  0.5329910000000 1.0
C      1  0.4605680000000  0.5463190000000  0.4676620000000 1.0
C      1  0.4600890000000  0.4872090000000  0.4458430000000 1.0
C      1  0.4589830000000  0.4465010000000  0.5004470000000 1.0
C      1  0.4601420000000  0.4813280000000  0.5523730000000 1.0
C      1  0.5340750000000  0.4676940000000  0.5703350000000 1.0
C      1  0.5341730000000  0.5570010000000  0.5528150000000 1.0
C      1  0.5338940000000  0.5672990000000  0.4634300000000 1.0
C      1  0.5346700000000  0.4867960000000  0.4246800000000 1.0
C      1  0.5337580000000  0.4244710000000  0.4906190000000 1.0
C      1  0.4917380000000  0.4494100000000  0.4572650000000 1.0
C      1  0.4926150000000  0.4428160000000  0.5369600000000 1.0
C      1  0.4922830000000  0.5169790000000  0.5651590000000 1.0
C      1  0.4916030000000  0.5672560000000  0.5042550000000 1.0
C      1  0.4911360000000  0.5261180000000  0.4353360000000 1.0
C      1  0.5127070000000  0.5006980000000  0.4937290000000 1.0
C      1  0.4554100000000  0.4990070000000  0.4938750000000 1.0
END
