TITL C-2441166-8118-97 0.00654868542599174 125000 -21191.6881737732 0 0 136 (C1) n - 1
REM
REM in /home/bkarasulu/work/CARBON/AIRSS/Generating-Clusters/ReaxFF-fromJPCA2015/Units_Real/with-SteepDescent/Higher-Symm
REM
REM
REM
REM
REM
REM ./C.cell (1df0a924f5614ab8850e4351716899ee)
REM
REM compiler GCC version 9.2.1 20190827 (Red Hat 9.2.1-1)
REM options -cpp -mtune=generic -march=x86-64 -g -O0 -fpre-include=/usr/include/finclude/math-vector-fortran.h
REM seed -686648529 -633852447 -884222699 2067111822 653276100 -214453823 1327432949 901288469 1801938595 -940747717 487187189 1119402210 -1701113370 -374969080 55338507 1194326164 278398218 -331395089 -278956825 529780829 -948852556 1708601078 125994726 -2074940813 -1238017477 -2120458897 -1500663428 42010329 -1282767416 444048375 1432009495 856677829 334201138
REM
CELL 1.54180   50.00000   50.00000   50.00000   90.00000   90.00000   90.00000
LATT -1
SFAC C  
C      1  0.5913190000000  0.5438860000000  0.5221380000000 1.0
C      1  0.5908630000000  0.4562370000000  0.4773500000000 1.0
C      1  0.4092220000000  0.5435130000000  0.4780610000000 1.0
C      1  0.4070810000000  0.4529880000000  0.5220490000000 1.0
C      1  0.4798850000000  0.5138310000000  0.4204470000000 1.0
C      1  0.4716480000000  0.4871570000000  0.5786220000000 1.0
C      1  0.5203160000000  0.5139950000000  0.5791150000000 1.0
C      1  0.5201200000000  0.4865250000000  0.4196830000000 1.0
C      1  0.5390570000000  0.5888480000000  0.4989500000000 1.0
C      1  0.5389640000000  0.4112670000000  0.5010310000000 1.0
C      1  0.4616020000000  0.5874730000000  0.5019100000000 1.0
C      1  0.4614380000000  0.4107390000000  0.4980240000000 1.0
C      1  0.4589240000000  0.4867390000000  0.5217980000000 1.0
C      1  0.4602320000000  0.5130030000000  0.4793520000000 1.0
C      1  0.5410100000000  0.4870370000000  0.4792350000000 1.0
C      1  0.5407240000000  0.5127530000000  0.5213620000000 1.0
C      1  0.5050440000000  0.5751200000000  0.5311110000000 1.0
C      1  0.5047020000000  0.4243570000000  0.4685960000000 1.0
C      1  0.4954250000000  0.5751090000000  0.4692400000000 1.0
C      1  0.4957380000000  0.4242600000000  0.5313810000000 1.0
C      1  0.5051050000000  0.4253250000000  0.4381700000000 1.0
C      1  0.5065030000000  0.5745040000000  0.5606560000000 1.0
C      1  0.4958230000000  0.4260150000000  0.5622530000000 1.0
C      1  0.4948310000000  0.5748740000000  0.4387860000000 1.0
C      1  0.4876760000000  0.4899530000000  0.5536570000000 1.0
C      1  0.4911500000000  0.5100640000000  0.4478210000000 1.0
C      1  0.5094540000000  0.4898310000000  0.4471720000000 1.0
C      1  0.5074410000000  0.5097560000000  0.5528780000000 1.0
C      1  0.5623970000000  0.4988240000000  0.5723330000000 1.0
C      1  0.5615650000000  0.5014870000000  0.4274630000000 1.0
C      1  0.4382060000000  0.4990110000000  0.4274260000000 1.0
C      1  0.4371650000000  0.5269280000000  0.5740600000000 1.0
C      1  0.5937400000000  0.5027710000000  0.4616460000000 1.0
C      1  0.5944380000000  0.4973090000000  0.5380300000000 1.0
C      1  0.4057140000000  0.5014310000000  0.5379880000000 1.0
C      1  0.4057720000000  0.4975600000000  0.4609430000000 1.0
C      1  0.5407240000000  0.4147570000000  0.5450660000000 1.0
C      1  0.5402260000000  0.5858720000000  0.4552920000000 1.0
C      1  0.4596110000000  0.4143070000000  0.4543370000000 1.0
C      1  0.4606060000000  0.5851250000000  0.5451010000000 1.0
C      1  0.4583670000000  0.4839950000000  0.4771980000000 1.0
C      1  0.4579330000000  0.5152520000000  0.5243460000000 1.0
C      1  0.5425360000000  0.4845280000000  0.5237410000000 1.0
C      1  0.5423810000000  0.5153770000000  0.4767210000000 1.0
C      1  0.4271050000000  0.4533910000000  0.4527850000000 1.0
C      1  0.4277410000000  0.5481910000000  0.5548020000000 1.0
C      1  0.5731310000000  0.4534850000000  0.5463100000000 1.0
C      1  0.5727470000000  0.5467900000000  0.4534780000000 1.0
C      1  0.4338150000000  0.5268100000000  0.4362700000000 1.0
C      1  0.4292620000000  0.4598020000000  0.5575400000000 1.0
C      1  0.5671880000000  0.5264350000000  0.5636960000000 1.0
C      1  0.5658790000000  0.4736980000000  0.4361070000000 1.0
C      1  0.4167290000000  0.4676580000000  0.4986050000000 1.0
C      1  0.4170870000000  0.5303080000000  0.5011460000000 1.0
C      1  0.5834110000000  0.4692950000000  0.5005220000000 1.0
C      1  0.5830340000000  0.5306230000000  0.4994630000000 1.0
C      1  0.4741500000000  0.5466470000000  0.5609520000000 1.0
C      1  0.4713930000000  0.4543880000000  0.4386950000000 1.0
C      1  0.5288900000000  0.5457730000000  0.4386850000000 1.0
C      1  0.5283860000000  0.4553990000000  0.5617810000000 1.0
C      1  0.4137280000000  0.5221030000000  0.5568860000000 1.0
C      1  0.4209640000000  0.4792710000000  0.4427990000000 1.0
C      1  0.5788660000000  0.5209300000000  0.4434210000000 1.0
C      1  0.5794840000000  0.4792710000000  0.5563890000000 1.0
C      1  0.4765220000000  0.4256740000000  0.4334910000000 1.0
C      1  0.4783640000000  0.5749870000000  0.5659040000000 1.0
C      1  0.5245530000000  0.4263400000000  0.5664570000000 1.0
C      1  0.5234440000000  0.5746080000000  0.4342070000000 1.0
C      1  0.4779840000000  0.4674440000000  0.4134310000000 1.0
C      1  0.4809950000000  0.5353440000000  0.5872350000000 1.0
C      1  0.5200930000000  0.4697360000000  0.5858880000000 1.0
C      1  0.5218670000000  0.5330060000000  0.4133670000000 1.0
C      1  0.5243620000000  0.5357310000000  0.4662690000000 1.0
C      1  0.5238600000000  0.4644280000000  0.5337300000000 1.0
C      1  0.4772440000000  0.5351770000000  0.5337890000000 1.0
C      1  0.4765290000000  0.4636820000000  0.4666140000000 1.0
C      1  0.5652550000000  0.4221240000000  0.5057190000000 1.0
C      1  0.5654730000000  0.5781730000000  0.4939480000000 1.0
C      1  0.4347310000000  0.4209350000000  0.4928230000000 1.0
C      1  0.4357310000000  0.5756410000000  0.5078840000000 1.0
C      1  0.4689580000000  0.4155850000000  0.5247200000000 1.0
C      1  0.4681920000000  0.5820480000000  0.4752550000000 1.0
C      1  0.5319390000000  0.4173290000000  0.4743070000000 1.0
C      1  0.5321500000000  0.5824330000000  0.5256740000000 1.0
C      1  0.5100270000000  0.5378630000000  0.5919040000000 1.0
C      1  0.5069460000000  0.4632420000000  0.4086220000000 1.0
C      1  0.4927580000000  0.5370850000000  0.4091180000000 1.0
C      1  0.4904590000000  0.4672470000000  0.5893050000000 1.0
C      1  0.4611010000000  0.5139510000000  0.5859490000000 1.0
C      1  0.4618270000000  0.4923110000000  0.4117980000000 1.0
C      1  0.5381880000000  0.5083080000000  0.4115030000000 1.0
C      1  0.5385580000000  0.4926400000000  0.5880110000000 1.0
C      1  0.4769370000000  0.5567090000000  0.4251780000000 1.0
C      1  0.4782000000000  0.4443930000000  0.5758720000000 1.0
C      1  0.5246380000000  0.5570100000000  0.5747640000000 1.0
C      1  0.5227860000000  0.4436460000000  0.4246220000000 1.0
C      1  0.5989620000000  0.5101510000000  0.4892630000000 1.0
C      1  0.5993400000000  0.4898870000000  0.5103870000000 1.0
C      1  0.4015860000000  0.5091390000000  0.5105500000000 1.0
C      1  0.4006350000000  0.4897980000000  0.4884550000000 1.0
C      1  0.4449380000000  0.5259490000000  0.5006030000000 1.0
C      1  0.4453120000000  0.4734700000000  0.5010280000000 1.0
C      1  0.5554360000000  0.5255820000000  0.5008240000000 1.0
C      1  0.5558730000000  0.4744340000000  0.4997660000000 1.0
C      1  0.5000900000000  0.4556110000000  0.4829690000000 1.0
C      1  0.4998500000000  0.5437200000000  0.5165370000000 1.0
C      1  0.5006940000000  0.4555300000000  0.5173930000000 1.0
C      1  0.5006020000000  0.5435180000000  0.4823490000000 1.0
C      1  0.5892280000000  0.5249650000000  0.5445410000000 1.0
C      1  0.5881770000000  0.4751840000000  0.4550450000000 1.0
C      1  0.4114050000000  0.5253730000000  0.4550060000000 1.0
C      1  0.4076870000000  0.4723780000000  0.5451000000000 1.0
C      1  0.5500850000000  0.5507310000000  0.5616480000000 1.0
C      1  0.5485140000000  0.4495880000000  0.4379790000000 1.0
C      1  0.4512420000000  0.5507610000000  0.4386040000000 1.0
C      1  0.4497260000000  0.4427560000000  0.5631590000000 1.0
C      1  0.4793300000000  0.5901680000000  0.5243450000000 1.0
C      1  0.4784310000000  0.4092690000000  0.4747830000000 1.0
C      1  0.5215630000000  0.5905790000000  0.4759330000000 1.0
C      1  0.5219460000000  0.4095860000000  0.5245530000000 1.0
C      1  0.4340580000000  0.4283300000000  0.4638690000000 1.0
C      1  0.4369990000000  0.5694200000000  0.5364680000000 1.0
C      1  0.5660640000000  0.4287180000000  0.5349050000000 1.0
C      1  0.5658280000000  0.5716260000000  0.4648460000000 1.0
C      1  0.5742310000000  0.4326540000000  0.4801930000000 1.0
C      1  0.5749630000000  0.5676730000000  0.5193080000000 1.0
C      1  0.4246530000000  0.4298590000000  0.5184570000000 1.0
C      1  0.4261200000000  0.5665380000000  0.4817440000000 1.0
C      1  0.5165770000000  0.5226070000000  0.5285290000000 1.0
C      1  0.5179190000000  0.4757490000000  0.4709740000000 1.0
C      1  0.4836860000000  0.5234570000000  0.4708510000000 1.0
C      1  0.4822760000000  0.4753010000000  0.5292550000000 1.0
C      1  0.4469800000000  0.5686420000000  0.4614730000000 1.0
C      1  0.4460900000000  0.4262240000000  0.5385140000000 1.0
C      1  0.5537280000000  0.5691430000000  0.5392290000000 1.0
C      1  0.5528390000000  0.4311430000000  0.4603390000000 1.0
END
