TITL C-2441168-9922-211 0.000878465260603034 125000 -8259.848496201 0 0 56 (C4) n - 1
REM
REM in /home/bkarasulu/work/CARBON/AIRSS/Generating-Clusters/ReaxFF-fromJPCA2015/Units_Real/with-SteepDescent/Higher-Symm
REM
REM
REM
REM
REM
REM ./C.cell (1df0a924f5614ab8850e4351716899ee)
REM
REM compiler GCC version 9.2.1 20190827 (Red Hat 9.2.1-1)
REM options -cpp -mtune=generic -march=x86-64 -g -O0 -fpre-include=/usr/include/finclude/math-vector-fortran.h
REM seed -51459139 1052415244 366144259 -220648958 658013394 -216186587 -1223966107 2117013842 2145853178 -1307418275 -1376243086 1944116272 -1838061416 -83453020 -580189008 1885688676 -1728604143 -641502282 -1343589324 -2037104639 -572118977 1795611771 -260338343 686866828 -867689530 -1230441509 -615119870 -1529153194 -923961915 -967393832 2016788946 -1726070014 1572063740
REM
CELL 1.54180   50.00000   50.00000   50.00000   90.00000   90.00000   90.00000
LATT -1
SFAC C  
C      1  0.5339400000000  0.5562410000000  0.5140280000000 1.0
C      1  0.4859730000000  0.5562420000000  0.5339420000000 1.0
C      1  0.4660600000000  0.5562420000000  0.4859740000000 1.0
C      1  0.5140280000000  0.5562430000000  0.4660580000000 1.0
C      1  0.5339410000000  0.5562400000000  0.4859730000000 1.0
C      1  0.4859720000000  0.5562420000000  0.4660590000000 1.0
C      1  0.4660580000000  0.5562440000000  0.5140270000000 1.0
C      1  0.5140290000000  0.5562470000000  0.5339440000000 1.0
C      1  0.5149510000000  0.5403440000000  0.4420530000000 1.0
C      1  0.5579460000000  0.5403410000000  0.5149520000000 1.0
C      1  0.4850500000000  0.5403420000000  0.5579460000000 1.0
C      1  0.4420540000000  0.5403420000000  0.4850490000000 1.0
C      1  0.5149530000000  0.5403450000000  0.5579490000000 1.0
C      1  0.5579460000000  0.5403430000000  0.4850490000000 1.0
C      1  0.4850490000000  0.5403420000000  0.4420540000000 1.0
C      1  0.4420540000000  0.5403450000000  0.5149520000000 1.0
C      1  0.5547800000000  0.4606030000000  0.5149620000000 1.0
C      1  0.4850370000000  0.4606020000000  0.5547790000000 1.0
C      1  0.4452200000000  0.4606030000000  0.4850380000000 1.0
C      1  0.5149620000000  0.4606030000000  0.4452200000000 1.0
C      1  0.5547800000000  0.4606030000000  0.4850380000000 1.0
C      1  0.4850370000000  0.4606030000000  0.4452200000000 1.0
C      1  0.4452200000000  0.4606030000000  0.5149620000000 1.0
C      1  0.5149610000000  0.4606040000000  0.5547790000000 1.0
C      1  0.4606690000000  0.4945680000000  0.5608460000000 1.0
C      1  0.4391580000000  0.4945680000000  0.4606700000000 1.0
C      1  0.5393300000000  0.4945700000000  0.4391520000000 1.0
C      1  0.5608450000000  0.4945690000000  0.5393320000000 1.0
C      1  0.4606690000000  0.4945700000000  0.4391520000000 1.0
C      1  0.4391560000000  0.4945680000000  0.5393300000000 1.0
C      1  0.5393290000000  0.4945690000000  0.5608440000000 1.0
C      1  0.5608440000000  0.4945680000000  0.4606680000000 1.0
C      1  0.4811230000000  0.4865110000000  0.4594390000000 1.0
C      1  0.5405610000000  0.4865110000000  0.4811270000000 1.0
C      1  0.5188700000000  0.4865110000000  0.5405600000000 1.0
C      1  0.4594400000000  0.4865100000000  0.5188700000000 1.0
C      1  0.4811270000000  0.4865090000000  0.5405590000000 1.0
C      1  0.5405610000000  0.4865110000000  0.5188750000000 1.0
C      1  0.5188740000000  0.4865110000000  0.4594380000000 1.0
C      1  0.4594400000000  0.4865100000000  0.4811310000000 1.0
C      1  0.4852430000000  0.4375360000000  0.5356970000000 1.0
C      1  0.4643020000000  0.4375370000000  0.4852430000000 1.0
C      1  0.5147570000000  0.4375370000000  0.4643020000000 1.0
C      1  0.5356980000000  0.4375370000000  0.5147570000000 1.0
C      1  0.4852430000000  0.4375370000000  0.4643020000000 1.0
C      1  0.4643020000000  0.4375370000000  0.5147570000000 1.0
C      1  0.5147570000000  0.4375370000000  0.5356970000000 1.0
C      1  0.5356980000000  0.4375370000000  0.4852430000000 1.0
C      1  0.4604860000000  0.5241930000000  0.5605580000000 1.0
C      1  0.4394420000000  0.5241950000000  0.4604860000000 1.0
C      1  0.5395150000000  0.5241960000000  0.4394410000000 1.0
C      1  0.5605590000000  0.5241960000000  0.5395160000000 1.0
C      1  0.4604840000000  0.5241960000000  0.4394420000000 1.0
C      1  0.4394420000000  0.5241950000000  0.5395160000000 1.0
C      1  0.5395150000000  0.5241960000000  0.5605580000000 1.0
C      1  0.5605590000000  0.5241960000000  0.4604830000000 1.0
END
