TITL C-2441164-471-1037 0.0446064384576585 125000 -17701.1235222653 0 0 127 (C1) n - 1
REM
REM in /home/bkarasulu/work/CARBON/AIRSS/Generating-Clusters/ReaxFF-fromJPCA2015/Units_Real/with-SteepDescent/Higher-Symm
REM
REM
REM
REM
REM
REM ./C.cell (1df0a924f5614ab8850e4351716899ee)
REM
REM compiler GCC version 9.2.1 20190827 (Red Hat 9.2.1-1)
REM options -cpp -mtune=generic -march=x86-64 -g -O0 -fpre-include=/usr/include/finclude/math-vector-fortran.h
REM seed -2129266761 199403602 1385880223 -956740054 -531781145 724850847 -702112691 1642422656 724843878 815423450 1570011414 -732663638 1100717073 350002515 -602137969 896219971 -1450940560 -610936765 -320650133 226530440 1900815867 -1799336215 1553289710 -211260712 -777963090 2027561749 665740556 2030050907 -1816168641 -1166467112 1840290368 1525258131 633572457
REM
CELL 1.54180   50.00000   50.00000   50.00000   90.00000   90.00000   90.00000
LATT -1
SFAC C  
C      1  0.4333040000000  0.5586420000000  0.5141360000000 1.0
C      1  0.5203830000000  0.5586220000000  0.4342330000000 1.0
C      1  0.5457030000000  0.5594740000000  0.5498220000000 1.0
C      1  0.4411260000000  0.4468260000000  0.5483170000000 1.0
C      1  0.4811560000000  0.4479540000000  0.4268340000000 1.0
C      1  0.5695980000000  0.4487130000000  0.5265690000000 1.0
C      1  0.5624990000000  0.5446990000000  0.4817130000000 1.0
C      1  0.4858680000000  0.5411860000000  0.5635110000000 1.0
C      1  0.4511070000000  0.5429690000000  0.4560100000000 1.0
C      1  0.5187780000000  0.4683670000000  0.5161190000000 1.0
C      1  0.4708360000000  0.4667780000000  0.5092480000000 1.0
C      1  0.5017100000000  0.4698180000000  0.4743940000000 1.0
C      1  0.5943050000000  0.5297270000000  0.5148450000000 1.0
C      1  0.4406230000000  0.5273270000000  0.5822640000000 1.0
C      1  0.4650470000000  0.5290920000000  0.4107340000000 1.0
C      1  0.5643870000000  0.4600550000000  0.4516080000000 1.0
C      1  0.5076690000000  0.4632850000000  0.5833810000000 1.0
C      1  0.4264190000000  0.4645680000000  0.4649660000000 1.0
C      1  0.4789820000000  0.4760330000000  0.5369590000000 1.0
C      1  0.4759810000000  0.4771390000000  0.4640780000000 1.0
C      1  0.5382350000000  0.4701900000000  0.4944840000000 1.0
C      1  0.4947800000000  0.5704410000000  0.4301380000000 1.0
C      1  0.5624630000000  0.5709570000000  0.5302330000000 1.0
C      1  0.4414790000000  0.5677550000000  0.5401180000000 1.0
C      1  0.4765600000000  0.5034230000000  0.4514570000000 1.0
C      1  0.5482240000000  0.5098210000000  0.5052260000000 1.0
C      1  0.4652960000000  0.5010120000000  0.5476260000000 1.0
C      1  0.5431760000000  0.5838830000000  0.5070620000000 1.0
C      1  0.4690660000000  0.5824110000000  0.5371230000000 1.0
C      1  0.4840890000000  0.5839580000000  0.4554530000000 1.0
C      1  0.5612960000000  0.5090340000000  0.5501240000000 1.0
C      1  0.4348180000000  0.5147580000000  0.5373760000000 1.0
C      1  0.5118930000000  0.5085350000000  0.4185690000000 1.0
C      1  0.4748240000000  0.5820390000000  0.5070060000000 1.0
C      1  0.5082030000000  0.5833770000000  0.4729510000000 1.0
C      1  0.5198670000000  0.5881370000000  0.5239050000000 1.0
C      1  0.4762870000000  0.4009260000000  0.5092910000000 1.0
C      1  0.5155710000000  0.4011550000000  0.4667180000000 1.0
C      1  0.5234250000000  0.4046340000000  0.5196550000000 1.0
C      1  0.5062250000000  0.4099200000000  0.4433280000000 1.0
C      1  0.5396370000000  0.4134560000000  0.5398680000000 1.0
C      1  0.4534120000000  0.4170530000000  0.5113520000000 1.0
C      1  0.4895660000000  0.5120630000000  0.5592510000000 1.0
C      1  0.4515780000000  0.5144270000000  0.4609590000000 1.0
C      1  0.5479540000000  0.5058870000000  0.4761930000000 1.0
C      1  0.4958440000000  0.4096870000000  0.5296220000000 1.0
C      1  0.4864520000000  0.4043630000000  0.4797060000000 1.0
C      1  0.5429840000000  0.4194240000000  0.4994370000000 1.0
C      1  0.5025780000000  0.5867100000000  0.5438780000000 1.0
C      1  0.4597970000000  0.5877470000000  0.4835840000000 1.0
C      1  0.5364020000000  0.5880240000000  0.4737650000000 1.0
C      1  0.4346980000000  0.5432360000000  0.5576030000000 1.0
C      1  0.4764410000000  0.5552250000000  0.4132770000000 1.0
C      1  0.5864150000000  0.5566640000000  0.5226840000000 1.0
C      1  0.4310330000000  0.4776760000000  0.4391840000000 1.0
C      1  0.5827800000000  0.4740950000000  0.4712550000000 1.0
C      1  0.4818450000000  0.4760040000000  0.5899070000000 1.0
C      1  0.4476050000000  0.4429820000000  0.5018620000000 1.0
C      1  0.5250680000000  0.4306880000000  0.4394840000000 1.0
C      1  0.5356720000000  0.4300470000000  0.5617590000000 1.0
C      1  0.5777750000000  0.5062190000000  0.5097260000000 1.0
C      1  0.4523130000000  0.5026070000000  0.5749480000000 1.0
C      1  0.4691610000000  0.5048310000000  0.4234830000000 1.0
C      1  0.4649790000000  0.4532380000000  0.4504380000000 1.0
C      1  0.5542600000000  0.4467930000000  0.5016150000000 1.0
C      1  0.4701020000000  0.4500900000000  0.5496240000000 1.0
C      1  0.5578440000000  0.4713930000000  0.5681630000000 1.0
C      1  0.4167980000000  0.4717770000000  0.5170900000000 1.0
C      1  0.5275270000000  0.4699670000000  0.4152880000000 1.0
C      1  0.5890380000000  0.4804830000000  0.4997450000000 1.0
C      1  0.4520080000000  0.4754470000000  0.5842050000000 1.0
C      1  0.4528400000000  0.4810900000000  0.4183000000000 1.0
C      1  0.5514310000000  0.4340960000000  0.4533140000000 1.0
C      1  0.5085170000000  0.4378830000000  0.5701410000000 1.0
C      1  0.4429710000000  0.4386390000000  0.4652150000000 1.0
C      1  0.5398650000000  0.5546700000000  0.4979360000000 1.0
C      1  0.4790390000000  0.5543490000000  0.5382520000000 1.0
C      1  0.4767510000000  0.5577350000000  0.4667430000000 1.0
C      1  0.4008770000000  0.5034040000000  0.4855630000000 1.0
C      1  0.5625100000000  0.5019550000000  0.4215520000000 1.0
C      1  0.5372410000000  0.5046720000000  0.5926940000000 1.0
C      1  0.5073110000000  0.5121130000000  0.4607520000000 1.0
C      1  0.5269110000000  0.5121200000000  0.5258130000000 1.0
C      1  0.4636800000000  0.5170120000000  0.5017180000000 1.0
C      1  0.5036020000000  0.5543580000000  0.4750520000000 1.0
C      1  0.5128480000000  0.5447630000000  0.5004150000000 1.0
C      1  0.4889690000000  0.5557210000000  0.5128870000000 1.0
C      1  0.5612890000000  0.5307710000000  0.4306470000000 1.0
C      1  0.5310760000000  0.5325660000000  0.5869170000000 1.0
C      1  0.4086630000000  0.5327530000000  0.4828680000000 1.0
C      1  0.4364370000000  0.5287830000000  0.5111430000000 1.0
C      1  0.5202100000000  0.5281240000000  0.4369240000000 1.0
C      1  0.5420350000000  0.5284250000000  0.5481560000000 1.0
C      1  0.5802180000000  0.5118790000000  0.4390960000000 1.0
C      1  0.5129810000000  0.5167930000000  0.6014160000000 1.0
C      1  0.4038880000000  0.5147550000000  0.4616030000000 1.0
C      1  0.5111360000000  0.5502630000000  0.5779920000000 1.0
C      1  0.4265570000000  0.5524480000000  0.4709080000000 1.0
C      1  0.5608470000000  0.5499010000000  0.4527920000000 1.0
C      1  0.5268740000000  0.4839960000000  0.4689130000000 1.0
C      1  0.5105490000000  0.4893470000000  0.5340510000000 1.0
C      1  0.4621680000000  0.4900980000000  0.4914810000000 1.0
C      1  0.5430190000000  0.4130970000000  0.4719980000000 1.0
C      1  0.4881870000000  0.4274270000000  0.5520820000000 1.0
C      1  0.4634580000000  0.4174040000000  0.4705330000000 1.0
C      1  0.5883710000000  0.4703130000000  0.5273470000000 1.0
C      1  0.4320960000000  0.4702310000000  0.5624110000000 1.0
C      1  0.4769640000000  0.4687840000000  0.4071820000000 1.0
C      1  0.5771980000000  0.4865950000000  0.5520080000000 1.0
C      1  0.4224720000000  0.4880700000000  0.5405120000000 1.0
C      1  0.5043770000000  0.4849890000000  0.4056060000000 1.0
C      1  0.5336960000000  0.4781380000000  0.5826430000000 1.0
C      1  0.4141410000000  0.4778700000000  0.4884070000000 1.0
C      1  0.5529180000000  0.4759070000000  0.4292890000000 1.0
C      1  0.4916450000000  0.5032450000000  0.5865670000000 1.0
C      1  0.4271610000000  0.5053930000000  0.4477600000000 1.0
C      1  0.5750980000000  0.5011700000000  0.4647580000000 1.0
C      1  0.5873880000000  0.5480360000000  0.4959980000000 1.0
C      1  0.4586720000000  0.5466880000000  0.5746780000000 1.0
C      1  0.4520260000000  0.5475630000000  0.4258890000000 1.0
C      1  0.5420130000000  0.5718480000000  0.4501110000000 1.0
C      1  0.5212820000000  0.5721070000000  0.5619720000000 1.0
C      1  0.4346570000000  0.5736290000000  0.4883260000000 1.0
C      1  0.4278730000000  0.4463980000000  0.5226030000000 1.0
C      1  0.5105070000000  0.4505590000000  0.4270100000000 1.0
C      1  0.5561140000000  0.4483380000000  0.5531970000000 1.0
C      1  0.4968930000000  0.4604700000000  0.4994120000000 1.0
END
