TITL C-2441167-4473-1155 0.220689843121565 125000 -22951.2011541802 0 0 191 (C1) n - 1
REM
REM in /home/bkarasulu/work/CARBON/AIRSS/Generating-Clusters/ReaxFF-fromJPCA2015/Units_Real/with-SteepDescent/Higher-Symm
REM
REM
REM
REM
REM
REM ./C.cell (1df0a924f5614ab8850e4351716899ee)
REM
REM compiler GCC version 9.2.1 20190827 (Red Hat 9.2.1-1)
REM options -cpp -mtune=generic -march=x86-64 -g -O0 -fpre-include=/usr/include/finclude/math-vector-fortran.h
REM seed -1944086414 1644461031 -1914827182 -541009895 -68887213 -126421747 1145111154 1221515178 2071704106 -1025686108 1660228483 242987982 -1700867491 -1326098039 -886272357 -285518795 -1953843343 -543537755 1236542267 1054108494 -317976316 -1317576015 -676761670 2059732378 929457340 1663288968 -830219537 39319718 -1852998883 1834665797 -227820749 955364241 319944731
REM
CELL 1.54180   50.00000   50.00000   50.00000   90.00000   90.00000   90.00000
LATT -1
SFAC C  
C      1  0.4823100000000  0.4008450000000  0.5320470000000 1.0
C      1  0.5187680000000  0.4009110000000  0.4679490000000 1.0
C      1  0.4859680000000  0.5994900000000  0.5338210000000 1.0
C      1  0.5266950000000  0.5997190000000  0.4678910000000 1.0
C      1  0.5147140000000  0.6008970000000  0.4949040000000 1.0
C      1  0.4893720000000  0.6024770000000  0.5066200000000 1.0
C      1  0.5134450000000  0.3963340000000  0.4937640000000 1.0
C      1  0.4866760000000  0.3967040000000  0.5056480000000 1.0
C      1  0.5004940000000  0.4856370000000  0.5523540000000 1.0
C      1  0.5002700000000  0.4871310000000  0.4519020000000 1.0
C      1  0.5010060000000  0.5147160000000  0.5480520000000 1.0
C      1  0.5003980000000  0.5153440000000  0.4484140000000 1.0
C      1  0.4270600000000  0.5217080000000  0.4337270000000 1.0
C      1  0.5732550000000  0.5223400000000  0.5659530000000 1.0
C      1  0.4272060000000  0.4771540000000  0.4348590000000 1.0
C      1  0.5741250000000  0.4750910000000  0.5684110000000 1.0
C      1  0.4181410000000  0.4908130000000  0.5465090000000 1.0
C      1  0.5806100000000  0.4905390000000  0.4509630000000 1.0
C      1  0.4140390000000  0.5167990000000  0.5515870000000 1.0
C      1  0.5858640000000  0.5182930000000  0.4511580000000 1.0
C      1  0.4205160000000  0.4371610000000  0.5010030000000 1.0
C      1  0.5755480000000  0.4380350000000  0.4971370000000 1.0
C      1  0.4243840000000  0.5614880000000  0.5026260000000 1.0
C      1  0.5786150000000  0.5640460000000  0.4974150000000 1.0
C      1  0.4828830000000  0.5574650000000  0.4208550000000 1.0
C      1  0.5158810000000  0.5573230000000  0.5778460000000 1.0
C      1  0.4830960000000  0.4405040000000  0.4227210000000 1.0
C      1  0.5165910000000  0.4411950000000  0.5802370000000 1.0
C      1  0.4988350000000  0.5616100000000  0.5139290000000 1.0
C      1  0.5044520000000  0.5604460000000  0.4853830000000 1.0
C      1  0.4981550000000  0.4372080000000  0.5136780000000 1.0
C      1  0.5020130000000  0.4368610000000  0.4851060000000 1.0
C      1  0.5620130000000  0.5229450000000  0.5013040000000 1.0
C      1  0.4441340000000  0.5195530000000  0.5022190000000 1.0
C      1  0.5579810000000  0.4773450000000  0.4978850000000 1.0
C      1  0.4379560000000  0.4780970000000  0.5005280000000 1.0
C      1  0.4330620000000  0.4160190000000  0.5369960000000 1.0
C      1  0.5671200000000  0.4170180000000  0.4631830000000 1.0
C      1  0.4328050000000  0.5833850000000  0.5379620000000 1.0
C      1  0.5557230000000  0.5921030000000  0.4679100000000 1.0
C      1  0.4425840000000  0.5977880000000  0.4866980000000 1.0
C      1  0.5555100000000  0.6008630000000  0.5183950000000 1.0
C      1  0.4426280000000  0.3991790000000  0.4845360000000 1.0
C      1  0.5581160000000  0.3994250000000  0.5150750000000 1.0
C      1  0.4727760000000  0.4573780000000  0.5563100000000 1.0
C      1  0.5304420000000  0.4560640000000  0.4443000000000 1.0
C      1  0.4707860000000  0.5419650000000  0.5552330000000 1.0
C      1  0.5286620000000  0.5470720000000  0.4435760000000 1.0
C      1  0.4691100000000  0.4851720000000  0.5228830000000 1.0
C      1  0.5378810000000  0.4883210000000  0.4809260000000 1.0
C      1  0.4632340000000  0.5101930000000  0.5200170000000 1.0
C      1  0.5289210000000  0.5144450000000  0.4801930000000 1.0
C      1  0.5454610000000  0.4845280000000  0.5234270000000 1.0
C      1  0.4531400000000  0.4838870000000  0.4775360000000 1.0
C      1  0.5463960000000  0.5142640000000  0.5244230000000 1.0
C      1  0.4540510000000  0.5130490000000  0.4761670000000 1.0
C      1  0.5645110000000  0.5764000000000  0.4447860000000 1.0
C      1  0.4551820000000  0.5832220000000  0.5570140000000 1.0
C      1  0.5473330000000  0.4156350000000  0.4413040000000 1.0
C      1  0.4536770000000  0.4166480000000  0.5581100000000 1.0
C      1  0.3999010000000  0.4792890000000  0.5255870000000 1.0
C      1  0.5990960000000  0.4786060000000  0.4740770000000 1.0
C      1  0.3977470000000  0.5220310000000  0.5257330000000 1.0
C      1  0.6011920000000  0.5256510000000  0.4745580000000 1.0
C      1  0.4892830000000  0.4742380000000  0.5987760000000 1.0
C      1  0.5114990000000  0.4740640000000  0.4044280000000 1.0
C      1  0.4798200000000  0.5254100000000  0.5925160000000 1.0
C      1  0.5199170000000  0.5247880000000  0.4087980000000 1.0
C      1  0.5031350000000  0.5268620000000  0.4733270000000 1.0
C      1  0.5006830000000  0.5205940000000  0.5192190000000 1.0
C      1  0.5002610000000  0.4796070000000  0.4802480000000 1.0
C      1  0.4960330000000  0.4775180000000  0.5236060000000 1.0
C      1  0.5303100000000  0.4100930000000  0.5149020000000 1.0
C      1  0.4689420000000  0.4130670000000  0.4876560000000 1.0
C      1  0.5324910000000  0.5842540000000  0.5104910000000 1.0
C      1  0.4708280000000  0.5895830000000  0.4859090000000 1.0
C      1  0.5270850000000  0.5584850000000  0.5246990000000 1.0
C      1  0.4664410000000  0.5570700000000  0.4737830000000 1.0
C      1  0.5277600000000  0.4403030000000  0.5262190000000 1.0
C      1  0.4741330000000  0.4394050000000  0.4745530000000 1.0
C      1  0.5687100000000  0.5923310000000  0.4936680000000 1.0
C      1  0.4291350000000  0.5885440000000  0.5099100000000 1.0
C      1  0.5712600000000  0.4085110000000  0.4907680000000 1.0
C      1  0.4288000000000  0.4097270000000  0.5090130000000 1.0
C      1  0.5086100000000  0.4532390000000  0.4231170000000 1.0
C      1  0.4901620000000  0.4534880000000  0.5810640000000 1.0
C      1  0.5111520000000  0.5498280000000  0.4204780000000 1.0
C      1  0.4887330000000  0.5471190000000  0.5786120000000 1.0
C      1  0.4815550000000  0.5154340000000  0.4019360000000 1.0
C      1  0.5169330000000  0.5162990000000  0.5984980000000 1.0
C      1  0.4858210000000  0.4866900000000  0.4013450000000 1.0
C      1  0.5125580000000  0.4879290000000  0.6059200000000 1.0
C      1  0.4823960000000  0.4066690000000  0.5578980000000 1.0
C      1  0.5183340000000  0.4065020000000  0.4424330000000 1.0
C      1  0.4830500000000  0.5913650000000  0.5554810000000 1.0
C      1  0.5109040000000  0.5897860000000  0.4482610000000 1.0
C      1  0.5505680000000  0.5553420000000  0.4294450000000 1.0
C      1  0.4505910000000  0.5561910000000  0.5683830000000 1.0
C      1  0.5505440000000  0.4412000000000  0.4282120000000 1.0
C      1  0.4518060000000  0.4425150000000  0.5715180000000 1.0
C      1  0.5612910000000  0.4432030000000  0.5240570000000 1.0
C      1  0.4362810000000  0.4437760000000  0.4764050000000 1.0
C      1  0.5638030000000  0.5571960000000  0.5229970000000 1.0
C      1  0.4376780000000  0.5580070000000  0.4751290000000 1.0
C      1  0.4258430000000  0.5406380000000  0.5646330000000 1.0
C      1  0.5750700000000  0.5377100000000  0.4317910000000 1.0
C      1  0.4251300000000  0.4533370000000  0.5690950000000 1.0
C      1  0.5767030000000  0.4525110000000  0.4295430000000 1.0
C      1  0.5347090000000  0.4836520000000  0.3898960000000 1.0
C      1  0.4644840000000  0.4853210000000  0.6080580000000 1.0
C      1  0.5302350000000  0.5123370000000  0.3844370000000 1.0
C      1  0.4684950000000  0.5136920000000  0.6138170000000 1.0
C      1  0.5297610000000  0.5565700000000  0.4729150000000 1.0
C      1  0.4731900000000  0.5539930000000  0.5255070000000 1.0
C      1  0.5271020000000  0.4451380000000  0.4725860000000 1.0
C      1  0.4729920000000  0.4451540000000  0.5262400000000 1.0
C      1  0.5450510000000  0.5123360000000  0.5999340000000 1.0
C      1  0.4537920000000  0.5101300000000  0.3990850000000 1.0
C      1  0.5415660000000  0.4829270000000  0.6018400000000 1.0
C      1  0.4557740000000  0.4817260000000  0.3979080000000 1.0
C      1  0.4164960000000  0.4450190000000  0.4566040000000 1.0
C      1  0.5836550000000  0.4459390000000  0.5401470000000 1.0
C      1  0.4174040000000  0.5533190000000  0.4568300000000 1.0
C      1  0.5824770000000  0.5545600000000  0.5437320000000 1.0
C      1  0.5800800000000  0.4466890000000  0.5726690000000 1.0
C      1  0.4249390000000  0.4493450000000  0.4279760000000 1.0
C      1  0.5726040000000  0.5504380000000  0.5718150000000 1.0
C      1  0.4265650000000  0.5503460000000  0.4288580000000 1.0
C      1  0.5421070000000  0.4563720000000  0.5862690000000 1.0
C      1  0.4542960000000  0.4545490000000  0.4160980000000 1.0
C      1  0.5435250000000  0.5444010000000  0.5805640000000 1.0
C      1  0.4556780000000  0.5453510000000  0.4187270000000 1.0
C      1  0.5979070000000  0.4510530000000  0.4760190000000 1.0
C      1  0.4025380000000  0.4513850000000  0.5241670000000 1.0
C      1  0.5977990000000  0.5532020000000  0.4739460000000 1.0
C      1  0.4020590000000  0.5502780000000  0.5226190000000 1.0
C      1  0.4021510000000  0.4658140000000  0.4727800000000 1.0
C      1  0.5979540000000  0.4680910000000  0.5265800000000 1.0
C      1  0.4014500000000  0.5322220000000  0.4729410000000 1.0
C      1  0.5971800000000  0.5334010000000  0.5286020000000 1.0
C      1  0.4706870000000  0.4037880000000  0.4528630000000 1.0
C      1  0.5284500000000  0.4031990000000  0.5468610000000 1.0
C      1  0.4712090000000  0.5956510000000  0.4566420000000 1.0
C      1  0.5254760000000  0.5963310000000  0.5477820000000 1.0
C      1  0.5576630000000  0.4048610000000  0.5457630000000 1.0
C      1  0.4444370000000  0.4031830000000  0.4559600000000 1.0
C      1  0.5543320000000  0.5927580000000  0.5485560000000 1.0
C      1  0.4414830000000  0.5945910000000  0.4563970000000 1.0
C      1  0.4093430000000  0.4857260000000  0.4539220000000 1.0
C      1  0.5910520000000  0.4857910000000  0.5476560000000 1.0
C      1  0.4099720000000  0.5130090000000  0.4537580000000 1.0
C      1  0.5909970000000  0.5132070000000  0.5471900000000 1.0
C      1  0.5848020000000  0.4386440000000  0.4541100000000 1.0
C      1  0.4151200000000  0.4383310000000  0.5461120000000 1.0
C      1  0.5883740000000  0.5593340000000  0.4473140000000 1.0
C      1  0.4155650000000  0.5610470000000  0.5457210000000 1.0
C      1  0.4778050000000  0.5148040000000  0.4311760000000 1.0
C      1  0.5251330000000  0.5116410000000  0.5669040000000 1.0
C      1  0.4775440000000  0.4864480000000  0.4342160000000 1.0
C      1  0.5261580000000  0.4839250000000  0.5609750000000 1.0
C      1  0.5474820000000  0.4669010000000  0.5592650000000 1.0
C      1  0.4550070000000  0.4727920000000  0.4396550000000 1.0
C      1  0.5460550000000  0.5247280000000  0.5590350000000 1.0
C      1  0.4547170000000  0.5247220000000  0.4395400000000 1.0
C      1  0.4893070000000  0.4155090000000  0.4336690000000 1.0
C      1  0.5109240000000  0.4169650000000  0.5657700000000 1.0
C      1  0.4879870000000  0.5821370000000  0.4360330000000 1.0
C      1  0.5092290000000  0.5828710000000  0.5668750000000 1.0
C      1  0.4084490000000  0.4845740000000  0.4968140000000 1.0
C      1  0.5922290000000  0.4845480000000  0.5020060000000 1.0
C      1  0.4007760000000  0.5164000000000  0.4971780000000 1.0
C      1  0.5913050000000  0.5176270000000  0.5030910000000 1.0
C      1  0.4577660000000  0.5135460000000  0.5487850000000 1.0
C      1  0.5393040000000  0.5160310000000  0.4527970000000 1.0
C      1  0.4570500000000  0.4846990000000  0.5486920000000 1.0
C      1  0.5463570000000  0.4873530000000  0.4524460000000 1.0
C      1  0.5580540000000  0.4910100000000  0.4068000000000 1.0
C      1  0.4409420000000  0.4931250000000  0.5915970000000 1.0
C      1  0.5493900000000  0.5187330000000  0.4062140000000 1.0
C      1  0.4486990000000  0.5209050000000  0.5933330000000 1.0
C      1  0.5251790000000  0.5316630000000  0.5126890000000 1.0
C      1  0.4762360000000  0.5309490000000  0.4811320000000 1.0
C      1  0.5237600000000  0.4673910000000  0.5189520000000 1.0
C      1  0.4749710000000  0.4663520000000  0.4822440000000 1.0
C      1  0.4476990000000  0.4542540000000  0.5141400000000 1.0
C      1  0.5518420000000  0.4515480000000  0.4855280000000 1.0
C      1  0.4483280000000  0.5452830000000  0.5133370000000 1.0
C      1  0.5540770000000  0.5450850000000  0.4847440000000 1.0
C      1  0.4208620000000  0.4822650000000  0.5728860000000 1.0
C      1  0.5775690000000  0.4802760000000  0.4243480000000 1.0
C      1  0.4996610000000  0.4967710000000  0.5036580000000 1.0
END
