TITL C-2441164-471-989 0.0375592978732341 125000 -9703.96756041513 0 0 71 (C1) n - 1
REM
REM in /home/bkarasulu/work/CARBON/AIRSS/Generating-Clusters/ReaxFF-fromJPCA2015/Units_Real/with-SteepDescent/Higher-Symm
REM
REM
REM
REM
REM
REM ./C.cell (1df0a924f5614ab8850e4351716899ee)
REM
REM compiler GCC version 9.2.1 20190827 (Red Hat 9.2.1-1)
REM options -cpp -mtune=generic -march=x86-64 -g -O0 -fpre-include=/usr/include/finclude/math-vector-fortran.h
REM seed -1151284390 1606090687 -1953981393 -647468342 217487841 -177581936 1887381059 1124617791 -1054647780 1605388250 955342716 -236400568 -819450719 1707783130 -1044977195 1311841460 -241838967 -1152140767 -287446991 -713549744 -1333498544 1605031156 -2096721956 1097888861 -1920877209 805024880 1060446196 734198953 1239538958 135294460 1960166141 -410737725 1232431047
REM
CELL 1.54180   50.00000   50.00000   50.00000   90.00000   90.00000   90.00000
LATT -1
SFAC C  
C      1  0.4832520000000  0.4540380000000  0.5320960000000 1.0
C      1  0.5122220000000  0.4484660000000  0.5355740000000 1.0
C      1  0.5336130000000  0.4489580000000  0.5151770000000 1.0
C      1  0.5331480000000  0.4535190000000  0.4856500000000 1.0
C      1  0.5011030000000  0.4521360000000  0.4631990000000 1.0
C      1  0.4723420000000  0.4478070000000  0.4699420000000 1.0
C      1  0.4614850000000  0.4533820000000  0.4968100000000 1.0
C      1  0.5418980000000  0.5528460000000  0.5376140000000 1.0
C      1  0.5324380000000  0.5486470000000  0.4898620000000 1.0
C      1  0.5209090000000  0.5548560000000  0.4642440000000 1.0
C      1  0.4717110000000  0.5494750000000  0.4475630000000 1.0
C      1  0.4693260000000  0.5389570000000  0.4907140000000 1.0
C      1  0.4677860000000  0.5489430000000  0.5297430000000 1.0
C      1  0.4944450000000  0.5540820000000  0.5346170000000 1.0
C      1  0.4701980000000  0.4809560000000  0.5042880000000 1.0
C      1  0.4885100000000  0.4824840000000  0.5248680000000 1.0
C      1  0.5123250000000  0.4990230000000  0.5255340000000 1.0
C      1  0.5302440000000  0.4983300000000  0.5044130000000 1.0
C      1  0.5259660000000  0.4842070000000  0.4798240000000 1.0
C      1  0.4991680000000  0.4800570000000  0.4711780000000 1.0
C      1  0.4781280000000  0.4974880000000  0.4815650000000 1.0
C      1  0.5520200000000  0.5522230000000  0.5106710000000 1.0
C      1  0.5472790000000  0.5469170000000  0.4665520000000 1.0
C      1  0.5012030000000  0.5457340000000  0.4453590000000 1.0
C      1  0.4600320000000  0.5566130000000  0.4721250000000 1.0
C      1  0.4486610000000  0.5482070000000  0.5090740000000 1.0
C      1  0.4754400000000  0.5489910000000  0.5557960000000 1.0
C      1  0.5159810000000  0.5473320000000  0.5507120000000 1.0
C      1  0.5639470000000  0.4770430000000  0.5476630000000 1.0
C      1  0.5775630000000  0.4775570000000  0.4795340000000 1.0
C      1  0.5311690000000  0.4764550000000  0.4269390000000 1.0
C      1  0.4615350000000  0.4755520000000  0.4270850000000 1.0
C      1  0.4201510000000  0.4794160000000  0.4843020000000 1.0
C      1  0.4395610000000  0.4763660000000  0.5519200000000 1.0
C      1  0.5031530000000  0.4755320000000  0.5805200000000 1.0
C      1  0.5193030000000  0.4584320000000  0.5623980000000 1.0
C      1  0.5598850000000  0.4579280000000  0.5257580000000 1.0
C      1  0.5571060000000  0.4590010000000  0.4693780000000 1.0
C      1  0.5093080000000  0.4590450000000  0.4347470000000 1.0
C      1  0.4540470000000  0.4588850000000  0.4503150000000 1.0
C      1  0.4330710000000  0.4601950000000  0.5020290000000 1.0
C      1  0.4631590000000  0.4593770000000  0.5539350000000 1.0
C      1  0.4525570000000  0.5263320000000  0.4447590000000 1.0
C      1  0.4281390000000  0.5268970000000  0.5071960000000 1.0
C      1  0.4591590000000  0.5253770000000  0.5637170000000 1.0
C      1  0.5208380000000  0.5238910000000  0.5667800000000 1.0
C      1  0.5641980000000  0.5360380000000  0.5318620000000 1.0
C      1  0.5619370000000  0.5232580000000  0.4625020000000 1.0
C      1  0.5094950000000  0.5243510000000  0.4283390000000 1.0
C      1  0.5754310000000  0.4747270000000  0.5080160000000 1.0
C      1  0.5540720000000  0.4759360000000  0.4456510000000 1.0
C      1  0.4903960000000  0.4762910000000  0.4215340000000 1.0
C      1  0.4345060000000  0.4788320000000  0.4587850000000 1.0
C      1  0.4279880000000  0.4775380000000  0.5250180000000 1.0
C      1  0.4750040000000  0.4763380000000  0.5742590000000 1.0
C      1  0.5410470000000  0.4773560000000  0.5643800000000 1.0
C      1  0.4469980000000  0.5060180000000  0.4667620000000 1.0
C      1  0.4376320000000  0.5053370000000  0.5234860000000 1.0
C      1  0.4777030000000  0.5047780000000  0.5688760000000 1.0
C      1  0.5315170000000  0.5040420000000  0.5488340000000 1.0
C      1  0.5595010000000  0.5006480000000  0.5080590000000 1.0
C      1  0.5449390000000  0.5027810000000  0.4535710000000 1.0
C      1  0.4892970000000  0.5052460000000  0.4263450000000 1.0
C      1  0.4611510000000  0.5052950000000  0.4272050000000 1.0
C      1  0.4235680000000  0.5090810000000  0.4851510000000 1.0
C      1  0.4408540000000  0.5062750000000  0.5514040000000 1.0
C      1  0.5034770000000  0.5051700000000  0.5801120000000 1.0
C      1  0.5607990000000  0.5073490000000  0.5381600000000 1.0
C      1  0.5749260000000  0.5069780000000  0.4821810000000 1.0
C      1  0.5318670000000  0.5060670000000  0.4288110000000 1.0
C      1  0.4937390000000  0.5203030000000  0.4958620000000 1.0
END
