TITL C-2441167-4473-448 0.0681439725671466 125000 -22641.3608393838 0 0 161 (C1) n - 1
REM
REM in /home/bkarasulu/work/CARBON/AIRSS/Generating-Clusters/ReaxFF-fromJPCA2015/Units_Real/with-SteepDescent/Higher-Symm
REM
REM
REM
REM
REM
REM ./C.cell (1df0a924f5614ab8850e4351716899ee)
REM
REM compiler GCC version 9.2.1 20190827 (Red Hat 9.2.1-1)
REM options -cpp -mtune=generic -march=x86-64 -g -O0 -fpre-include=/usr/include/finclude/math-vector-fortran.h
REM seed 1902203481 -2049721101 1119812373 -658029811 807982621 26551173 -972366826 1051555296 -540784514 -728615210 -1969687561 403222530 1762004157 -1036790509 -1230864892 -1664522888 1782270153 973436960 -1538842929 -990399802 -1899756013 289062543 1399527952 -1022362164 -1392223353 1143670622 440587990 910311714 1748762338 1539923821 -754695549 1260200450 -1470451860
REM
CELL 1.54180   50.00000   50.00000   50.00000   90.00000   90.00000   90.00000
LATT -1
SFAC C  
C      1  0.4976450000000  0.5994790000000  0.4651670000000 1.0
C      1  0.4888760000000  0.5704490000000  0.5878140000000 1.0
C      1  0.4767300000000  0.4210100000000  0.5825530000000 1.0
C      1  0.4716150000000  0.3989670000000  0.4548680000000 1.0
C      1  0.4987130000000  0.5073320000000  0.3817880000000 1.0
C      1  0.5176450000000  0.6082850000000  0.4831670000000 1.0
C      1  0.5135540000000  0.5794190000000  0.5911730000000 1.0
C      1  0.5011540000000  0.4279570000000  0.5872930000000 1.0
C      1  0.4972530000000  0.3886930000000  0.4590030000000 1.0
C      1  0.5241610000000  0.5158300000000  0.3835950000000 1.0
C      1  0.4438790000000  0.4399960000000  0.4409390000000 1.0
C      1  0.4388670000000  0.5400910000000  0.4303560000000 1.0
C      1  0.4379670000000  0.5782280000000  0.5208490000000 1.0
C      1  0.4376350000000  0.5120610000000  0.5822290000000 1.0
C      1  0.4419560000000  0.4279380000000  0.5380160000000 1.0
C      1  0.5611280000000  0.4466270000000  0.4401080000000 1.0
C      1  0.5568750000000  0.5369650000000  0.4241670000000 1.0
C      1  0.5576510000000  0.5868610000000  0.5212200000000 1.0
C      1  0.5604410000000  0.5081870000000  0.5838660000000 1.0
C      1  0.5600560000000  0.4222760000000  0.5330910000000 1.0
C      1  0.5342950000000  0.4612690000000  0.5212070000000 1.0
C      1  0.5288590000000  0.4663770000000  0.4723560000000 1.0
C      1  0.5260890000000  0.5135550000000  0.4578380000000 1.0
C      1  0.5339780000000  0.5476400000000  0.5080910000000 1.0
C      1  0.5291260000000  0.5103010000000  0.5428110000000 1.0
C      1  0.4768080000000  0.4679460000000  0.5185770000000 1.0
C      1  0.4707910000000  0.4704930000000  0.4703100000000 1.0
C      1  0.4719930000000  0.5162010000000  0.4600310000000 1.0
C      1  0.4780990000000  0.5210400000000  0.5068460000000 1.0
C      1  0.4672030000000  0.5073990000000  0.5449290000000 1.0
C      1  0.5356090000000  0.4083660000000  0.5259140000000 1.0
C      1  0.5382890000000  0.4438310000000  0.4219730000000 1.0
C      1  0.5375900000000  0.5583300000000  0.4238810000000 1.0
C      1  0.5333940000000  0.5938690000000  0.5348600000000 1.0
C      1  0.5367130000000  0.4989190000000  0.5979800000000 1.0
C      1  0.4632650000000  0.4107970000000  0.5274140000000 1.0
C      1  0.4642760000000  0.4470430000000  0.4210600000000 1.0
C      1  0.4605990000000  0.5604530000000  0.4282780000000 1.0
C      1  0.4601900000000  0.5947400000000  0.5312950000000 1.0
C      1  0.4620500000000  0.5016340000000  0.5966350000000 1.0
C      1  0.4893030000000  0.5465080000000  0.5127290000000 1.0
C      1  0.4871890000000  0.4892560000000  0.5543690000000 1.0
C      1  0.4928790000000  0.4480580000000  0.5042940000000 1.0
C      1  0.4862790000000  0.4922080000000  0.4647830000000 1.0
C      1  0.4867990000000  0.5409660000000  0.4647820000000 1.0
C      1  0.5134820000000  0.5429040000000  0.5260390000000 1.0
C      1  0.5138650000000  0.4882110000000  0.5528400000000 1.0
C      1  0.5181610000000  0.4590230000000  0.4992870000000 1.0
C      1  0.5122790000000  0.4872870000000  0.4568500000000 1.0
C      1  0.5121660000000  0.5387010000000  0.4642660000000 1.0
C      1  0.5519650000000  0.4803950000000  0.5096230000000 1.0
C      1  0.5524710000000  0.4823310000000  0.4805450000000 1.0
C      1  0.5518770000000  0.5117380000000  0.4739540000000 1.0
C      1  0.5493560000000  0.5247280000000  0.5009110000000 1.0
C      1  0.5480280000000  0.5057110000000  0.5215260000000 1.0
C      1  0.4460360000000  0.4732730000000  0.5100770000000 1.0
C      1  0.4435170000000  0.4803130000000  0.4771690000000 1.0
C      1  0.4453180000000  0.5141730000000  0.4761330000000 1.0
C      1  0.4480600000000  0.5230100000000  0.5076780000000 1.0
C      1  0.4471660000000  0.4999930000000  0.5256300000000 1.0
C      1  0.4321620000000  0.5337400000000  0.4582540000000 1.0
C      1  0.4368400000000  0.5483830000000  0.5320380000000 1.0
C      1  0.4335890000000  0.4859160000000  0.5683380000000 1.0
C      1  0.4337360000000  0.4465820000000  0.5175770000000 1.0
C      1  0.4325410000000  0.4634940000000  0.4543870000000 1.0
C      1  0.5696340000000  0.5290770000000  0.4491790000000 1.0
C      1  0.5676190000000  0.5665420000000  0.5402750000000 1.0
C      1  0.5685110000000  0.4829690000000  0.5722750000000 1.0
C      1  0.5674140000000  0.4281790000000  0.5057740000000 1.0
C      1  0.5639680000000  0.4759880000000  0.4399820000000 1.0
C      1  0.3926320000000  0.4972420000000  0.4728830000000 1.0
C      1  0.3911720000000  0.5232220000000  0.4877040000000 1.0
C      1  0.3930840000000  0.5156300000000  0.5155030000000 1.0
C      1  0.3967320000000  0.4874570000000  0.5185730000000 1.0
C      1  0.3950860000000  0.4749930000000  0.4925530000000 1.0
C      1  0.6111270000000  0.4987090000000  0.4774730000000 1.0
C      1  0.6084380000000  0.5247540000000  0.4902760000000 1.0
C      1  0.6075850000000  0.5187130000000  0.5187150000000 1.0
C      1  0.6067690000000  0.4892840000000  0.5220790000000 1.0
C      1  0.6057960000000  0.4771740000000  0.4958070000000 1.0
C      1  0.4384950000000  0.4892650000000  0.4118350000000 1.0
C      1  0.4366150000000  0.5849570000000  0.4676290000000 1.0
C      1  0.4448410000000  0.5618040000000  0.5579500000000 1.0
C      1  0.4423250000000  0.4611210000000  0.5813290000000 1.0
C      1  0.4403410000000  0.4098470000000  0.4816810000000 1.0
C      1  0.5555050000000  0.4848370000000  0.4133660000000 1.0
C      1  0.5639860000000  0.5799170000000  0.4657330000000 1.0
C      1  0.5558000000000  0.5647730000000  0.5661930000000 1.0
C      1  0.5578780000000  0.4579730000000  0.5825170000000 1.0
C      1  0.5574290000000  0.4119850000000  0.4854880000000 1.0
C      1  0.4792510000000  0.5698790000000  0.4997970000000 1.0
C      1  0.4726950000000  0.5295590000000  0.5657080000000 1.0
C      1  0.4758250000000  0.4493470000000  0.5490840000000 1.0
C      1  0.4795640000000  0.4436630000000  0.4648220000000 1.0
C      1  0.4736060000000  0.5168490000000  0.4240960000000 1.0
C      1  0.5298230000000  0.5709560000000  0.4928480000000 1.0
C      1  0.5281690000000  0.5300570000000  0.5656830000000 1.0
C      1  0.5294800000000  0.4469330000000  0.5470420000000 1.0
C      1  0.5264210000000  0.4315000000000  0.4619070000000 1.0
C      1  0.5232350000000  0.5146670000000  0.4263230000000 1.0
C      1  0.5128740000000  0.5426940000000  0.4198520000000 1.0
C      1  0.5134390000000  0.5995570000000  0.5144920000000 1.0
C      1  0.5147440000000  0.5169710000000  0.5904140000000 1.0
C      1  0.5149780000000  0.4220490000000  0.5403030000000 1.0
C      1  0.5156520000000  0.4324280000000  0.4356590000000 1.0
C      1  0.4844250000000  0.5447110000000  0.4195800000000 1.0
C      1  0.4843200000000  0.5943470000000  0.5140620000000 1.0
C      1  0.4863780000000  0.5168570000000  0.5907350000000 1.0
C      1  0.4870790000000  0.4236670000000  0.5397270000000 1.0
C      1  0.4876480000000  0.4388780000000  0.4375830000000 1.0
C      1  0.4860830000000  0.4261770000000  0.4878110000000 1.0
C      1  0.4855640000000  0.4925110000000  0.4089140000000 1.0
C      1  0.4809420000000  0.5721600000000  0.4699690000000 1.0
C      1  0.4855350000000  0.5578030000000  0.5619980000000 1.0
C      1  0.4851310000000  0.4650940000000  0.5716140000000 1.0
C      1  0.5125870000000  0.4100450000000  0.4786610000000 1.0
C      1  0.5112440000000  0.4863460000000  0.4232310000000 1.0
C      1  0.5246580000000  0.5641620000000  0.4670250000000 1.0
C      1  0.5143960000000  0.5537190000000  0.5521480000000 1.0
C      1  0.5159290000000  0.4621690000000  0.5720960000000 1.0
C      1  0.4657570000000  0.5817270000000  0.5571910000000 1.0
C      1  0.4652710000000  0.4732270000000  0.5935040000000 1.0
C      1  0.4632590000000  0.4078180000000  0.4988760000000 1.0
C      1  0.4623060000000  0.4731590000000  0.4086960000000 1.0
C      1  0.4593280000000  0.5797790000000  0.4498150000000 1.0
C      1  0.5303770000000  0.5778370000000  0.5610020000000 1.0
C      1  0.5345480000000  0.4698000000000  0.5944990000000 1.0
C      1  0.5334880000000  0.4020500000000  0.4977400000000 1.0
C      1  0.5318440000000  0.4690340000000  0.4094380000000 1.0
C      1  0.5413350000000  0.5760110000000  0.4474360000000 1.0
C      1  0.5826770000000  0.4432210000000  0.4869240000000 1.0
C      1  0.5823450000000  0.5001520000000  0.4419640000000 1.0
C      1  0.5804870000000  0.5557100000000  0.4626370000000 1.0
C      1  0.5780990000000  0.5388440000000  0.5432770000000 1.0
C      1  0.5785010000000  0.4685260000000  0.5481340000000 1.0
C      1  0.4225960000000  0.4314350000000  0.4945460000000 1.0
C      1  0.4199660000000  0.4800800000000  0.4335500000000 1.0
C      1  0.4205570000000  0.5585970000000  0.4698370000000 1.0
C      1  0.4191360000000  0.5316760000000  0.5498360000000 1.0
C      1  0.4134730000000  0.4731500000000  0.5541390000000 1.0
C      1  0.6105800000000  0.4939540000000  0.4468360000000 1.0
C      1  0.6056140000000  0.5523180000000  0.4772490000000 1.0
C      1  0.6075810000000  0.5385770000000  0.5423640000000 1.0
C      1  0.6076860000000  0.4723180000000  0.5479660000000 1.0
C      1  0.6110840000000  0.4466700000000  0.4881850000000 1.0
C      1  0.3953650000000  0.4941320000000  0.4434000000000 1.0
C      1  0.3926140000000  0.5516050000000  0.4772840000000 1.0
C      1  0.3918690000000  0.5343030000000  0.5408990000000 1.0
C      1  0.3868850000000  0.4711850000000  0.5447700000000 1.0
C      1  0.3980830000000  0.4454000000000  0.4863730000000 1.0
C      1  0.5590200000000  0.5352040000000  0.5705800000000 1.0
C      1  0.5592360000000  0.4425650000000  0.5548980000000 1.0
C      1  0.5549540000000  0.4274340000000  0.4613650000000 1.0
C      1  0.5469260000000  0.5139550000000  0.4074530000000 1.0
C      1  0.5528580000000  0.5878660000000  0.4918830000000 1.0
C      1  0.4468870000000  0.5389350000000  0.5758860000000 1.0
C      1  0.4527750000000  0.4376960000000  0.5642860000000 1.0
C      1  0.4470760000000  0.4127790000000  0.4532380000000 1.0
C      1  0.4458370000000  0.5174360000000  0.4134860000000 1.0
C      1  0.4399550000000  0.5865980000000  0.4953990000000 1.0
C      1  0.4899640000000  0.4950850000000  0.5121850000000 1.0
END
