TITL C-2441169-1362-1120 0.0165154948182726 125000 -10902.8170399305 0 0 79 (C1) n - 1
REM
REM in /home/bkarasulu/work/CARBON/AIRSS/Generating-Clusters/ReaxFF-fromJPCA2015/Units_Real/with-SteepDescent/Higher-Symm
REM
REM
REM
REM
REM
REM ./C.cell (1df0a924f5614ab8850e4351716899ee)
REM
REM compiler GCC version 9.2.1 20190827 (Red Hat 9.2.1-1)
REM options -cpp -mtune=generic -march=x86-64 -g -O0 -fpre-include=/usr/include/finclude/math-vector-fortran.h
REM seed -1450883352 -1240115332 -1760901753 -1217419800 -312435541 -2123736414 -1013082818 -874790260 836267159 -1425642659 183545318 -818406673 -2019494794 946840650 -226451971 1946657648 -2082833940 1604470776 1783826458 -1001981033 -1189176254 271477914 1589760498 -1218764435 268752972 -752278574 1275215171 312696152 -1221617201 -1058892835 917088028 -1672096304 -1528041138
REM
CELL 1.54180   50.00000   50.00000   50.00000   90.00000   90.00000   90.00000
LATT -1
SFAC C  
C      1  0.4353050000000  0.5375150000000  0.5136650000000 1.0
C      1  0.4341370000000  0.4923250000000  0.4561800000000 1.0
C      1  0.4337380000000  0.4571590000000  0.5270940000000 1.0
C      1  0.5643020000000  0.4963500000000  0.4715730000000 1.0
C      1  0.5650650000000  0.4741870000000  0.5176060000000 1.0
C      1  0.5667260000000  0.5314510000000  0.5126450000000 1.0
C      1  0.5485390000000  0.4548860000000  0.5299040000000 1.0
C      1  0.5526000000000  0.5534830000000  0.5215630000000 1.0
C      1  0.5513280000000  0.4980840000000  0.4466010000000 1.0
C      1  0.4524190000000  0.5033880000000  0.5503900000000 1.0
C      1  0.4520860000000  0.5397280000000  0.4664940000000 1.0
C      1  0.4523900000000  0.4627090000000  0.4746900000000 1.0
C      1  0.4913140000000  0.5278250000000  0.5669910000000 1.0
C      1  0.4943610000000  0.5386110000000  0.4446580000000 1.0
C      1  0.4939070000000  0.4277910000000  0.4903350000000 1.0
C      1  0.5285870000000  0.5731500000000  0.5110420000000 1.0
C      1  0.5333180000000  0.4784160000000  0.4312720000000 1.0
C      1  0.5262810000000  0.4592530000000  0.5528030000000 1.0
C      1  0.4877740000000  0.5471010000000  0.4958010000000 1.0
C      1  0.4970970000000  0.4675920000000  0.4658960000000 1.0
C      1  0.4864240000000  0.4776750000000  0.5351020000000 1.0
C      1  0.5362080000000  0.4429590000000  0.4608920000000 1.0
C      1  0.5418270000000  0.4982280000000  0.5767810000000 1.0
C      1  0.5348190000000  0.5571090000000  0.4679480000000 1.0
C      1  0.5144870000000  0.5109530000000  0.4816650000000 1.0
C      1  0.5191440000000  0.4700420000000  0.5016180000000 1.0
C      1  0.5177070000000  0.5233200000000  0.5340040000000 1.0
C      1  0.4711920000000  0.5279360000000  0.4859350000000 1.0
C      1  0.4776310000000  0.4795470000000  0.4839140000000 1.0
C      1  0.4740090000000  0.5013140000000  0.5310690000000 1.0
C      1  0.4746900000000  0.4393150000000  0.5084960000000 1.0
C      1  0.4761940000000  0.5396500000000  0.5449080000000 1.0
C      1  0.4687990000000  0.5263810000000  0.4433810000000 1.0
C      1  0.4628840000000  0.5706920000000  0.4745940000000 1.0
C      1  0.4648730000000  0.4498770000000  0.4511260000000 1.0
C      1  0.4664960000000  0.4855510000000  0.5689980000000 1.0
C      1  0.5358770000000  0.5060860000000  0.5251130000000 1.0
C      1  0.5318790000000  0.5329180000000  0.4844260000000 1.0
C      1  0.5213130000000  0.4642800000000  0.4757790000000 1.0
C      1  0.4118390000000  0.5091940000000  0.4630180000000 1.0
C      1  0.4146590000000  0.4636230000000  0.5111570000000 1.0
C      1  0.4110890000000  0.5298990000000  0.5275090000000 1.0
C      1  0.5435040000000  0.5267410000000  0.5707380000000 1.0
C      1  0.5454740000000  0.5263330000000  0.4399200000000 1.0
C      1  0.5462190000000  0.4366880000000  0.5071050000000 1.0
C      1  0.5184910000000  0.4825310000000  0.5685560000000 1.0
C      1  0.5174310000000  0.5746570000000  0.4822170000000 1.0
C      1  0.5210670000000  0.4528290000000  0.4383730000000 1.0
C      1  0.4981240000000  0.5795530000000  0.5224310000000 1.0
C      1  0.4937190000000  0.4789260000000  0.4209490000000 1.0
C      1  0.5032430000000  0.4423740000000  0.5539270000000 1.0
C      1  0.4906170000000  0.5241410000000  0.5234450000000 1.0
C      1  0.4866050000000  0.5065750000000  0.4795930000000 1.0
C      1  0.4921560000000  0.4659670000000  0.5100760000000 1.0
C      1  0.5644870000000  0.5043240000000  0.5298430000000 1.0
C      1  0.5617540000000  0.5258280000000  0.4822170000000 1.0
C      1  0.5680480000000  0.4726760000000  0.4883710000000 1.0
C      1  0.4563270000000  0.5534040000000  0.5288260000000 1.0
C      1  0.4572040000000  0.4996520000000  0.4395580000000 1.0
C      1  0.4582750000000  0.4457420000000  0.5323780000000 1.0
C      1  0.5073360000000  0.4265000000000  0.5309340000000 1.0
C      1  0.5173900000000  0.5683040000000  0.5391290000000 1.0
C      1  0.5139110000000  0.4982100000000  0.4199670000000 1.0
C      1  0.4718880000000  0.5698810000000  0.5096050000000 1.0
C      1  0.4684990000000  0.4729020000000  0.4317550000000 1.0
C      1  0.4748900000000  0.4585620000000  0.5551490000000 1.0
C      1  0.5592920000000  0.5452710000000  0.4573020000000 1.0
C      1  0.5571820000000  0.4461350000000  0.4816890000000 1.0
C      1  0.5627400000000  0.5091080000000  0.5594080000000 1.0
C      1  0.4305880000000  0.5108680000000  0.5311880000000 1.0
C      1  0.4302190000000  0.5227280000000  0.4791660000000 1.0
C      1  0.4279430000000  0.4695380000000  0.4889540000000 1.0
C      1  0.4933540000000  0.5616500000000  0.4692810000000 1.0
C      1  0.4909470000000  0.4395500000000  0.4600340000000 1.0
C      1  0.4922700000000  0.4989170000000  0.5720550000000 1.0
C      1  0.5168130000000  0.5261850000000  0.4319690000000 1.0
C      1  0.5185070000000  0.4221880000000  0.5055810000000 1.0
C      1  0.5185940000000  0.5400600000000  0.5585560000000 1.0
C      1  0.5279370000000  0.4949550000000  0.5011690000000 1.0
END
