TITL C-2441154-10-421 0.106168044321499 125000 -23418.9282028063 0 0 173 (C1) n - 1
REM
REM in /home/bkarasulu/work/CARBON/AIRSS/Generating-Clusters/ReaxFF-fromJPCA2015/Units_Real/with-SteepDescent/Higher-Symm
REM
REM
REM
REM
REM
REM ./C.cell (1df0a924f5614ab8850e4351716899ee)
REM
REM compiler GCC version 9.2.1 20190827 (Red Hat 9.2.1-1)
REM options -cpp -mtune=generic -march=x86-64 -g -O0 -fpre-include=/usr/include/finclude/math-vector-fortran.h
REM seed 921729396 2008108208 -792236691 2097748088 231138068 -1705383787 -1754239958 541913524 -1203631040 -1856841583 482812170 -1753953454 1521920564 -1106731441 842024710 -1920570878 1642552462 -2081414701 -325740818 323796681 -1404161294 1276825388 -988906824 -730554909 400727665 1685966562 -885977327 309930398 450050922 -1467801594 920033566 -352912422 -2108747413
REM
CELL 1.54180   50.00000   50.00000   50.00000   90.00000   90.00000   90.00000
LATT -1
SFAC C  
C      1  0.4886340000000  0.3971590000000  0.5017820000000 1.0
C      1  0.4855300000000  0.5533760000000  0.5881030000000 1.0
C      1  0.4858580000000  0.5468500000000  0.4126310000000 1.0
C      1  0.5146020000000  0.3946520000000  0.5119890000000 1.0
C      1  0.5145500000000  0.5523150000000  0.5871180000000 1.0
C      1  0.5136760000000  0.5482100000000  0.4131820000000 1.0
C      1  0.4821830000000  0.4427540000000  0.4819430000000 1.0
C      1  0.4889160000000  0.5159050000000  0.5606530000000 1.0
C      1  0.4829380000000  0.5384500000000  0.4662280000000 1.0
C      1  0.5122000000000  0.4381690000000  0.4859840000000 1.0
C      1  0.5183360000000  0.5105080000000  0.5587920000000 1.0
C      1  0.5179760000000  0.5459390000000  0.4630210000000 1.0
C      1  0.5482430000000  0.5671830000000  0.5686120000000 1.0
C      1  0.5491970000000  0.5301840000000  0.4073260000000 1.0
C      1  0.5427840000000  0.4038780000000  0.5174970000000 1.0
C      1  0.4518420000000  0.5676670000000  0.5677350000000 1.0
C      1  0.4523640000000  0.5242800000000  0.4085720000000 1.0
C      1  0.4495790000000  0.4088230000000  0.5247460000000 1.0
C      1  0.4359430000000  0.4332830000000  0.4960950000000 1.0
C      1  0.4343730000000  0.5325480000000  0.5569710000000 1.0
C      1  0.4352170000000  0.5366140000000  0.4433920000000 1.0
C      1  0.5660000000000  0.4343050000000  0.4922670000000 1.0
C      1  0.5654540000000  0.5296970000000  0.5592200000000 1.0
C      1  0.5631080000000  0.5386090000000  0.4441230000000 1.0
C      1  0.5046820000000  0.4303670000000  0.4371860000000 1.0
C      1  0.5140960000000  0.4673330000000  0.5803080000000 1.0
C      1  0.5056380000000  0.5884170000000  0.4703940000000 1.0
C      1  0.4833150000000  0.4475190000000  0.4314200000000 1.0
C      1  0.4910170000000  0.4808100000000  0.5870930000000 1.0
C      1  0.4857230000000  0.5888560000000  0.4894090000000 1.0
C      1  0.5734580000000  0.4331310000000  0.5401870000000 1.0
C      1  0.5867090000000  0.5565910000000  0.5249350000000 1.0
C      1  0.5683770000000  0.4984470000000  0.4334580000000 1.0
C      1  0.4156940000000  0.4485360000000  0.5333210000000 1.0
C      1  0.4121060000000  0.5582920000000  0.5258670000000 1.0
C      1  0.4116880000000  0.4947320000000  0.4385080000000 1.0
C      1  0.4709830000000  0.4660700000000  0.4637920000000 1.0
C      1  0.4735390000000  0.4954250000000  0.5454810000000 1.0
C      1  0.4679880000000  0.5442810000000  0.4916440000000 1.0
C      1  0.5245680000000  0.4672310000000  0.4707590000000 1.0
C      1  0.5289540000000  0.4847870000000  0.5456350000000 1.0
C      1  0.5295490000000  0.5513760000000  0.4903190000000 1.0
C      1  0.5308810000000  0.4245050000000  0.5673620000000 1.0
C      1  0.5290840000000  0.5957590000000  0.5314930000000 1.0
C      1  0.5310880000000  0.4776690000000  0.4021970000000 1.0
C      1  0.4719400000000  0.4247260000000  0.5688130000000 1.0
C      1  0.4738110000000  0.5949860000000  0.5326420000000 1.0
C      1  0.4718410000000  0.4798360000000  0.4002460000000 1.0
C      1  0.5182390000000  0.6068750000000  0.5073750000000 1.0
C      1  0.5186080000000  0.4526100000000  0.4048350000000 1.0
C      1  0.5210260000000  0.4419530000000  0.5890040000000 1.0
C      1  0.4880050000000  0.6069570000000  0.5098570000000 1.0
C      1  0.4871190000000  0.4537300000000  0.4046110000000 1.0
C      1  0.4790620000000  0.4431670000000  0.5892260000000 1.0
C      1  0.5890780000000  0.5384260000000  0.5459460000000 1.0
C      1  0.5847800000000  0.5206110000000  0.4410100000000 1.0
C      1  0.5867740000000  0.4298870000000  0.5114300000000 1.0
C      1  0.4090600000000  0.5403730000000  0.5476550000000 1.0
C      1  0.4100560000000  0.5231210000000  0.4416200000000 1.0
C      1  0.4129140000000  0.4341280000000  0.5091670000000 1.0
C      1  0.4493090000000  0.5174260000000  0.5930890000000 1.0
C      1  0.4509140000000  0.5729850000000  0.4344070000000 1.0
C      1  0.4504600000000  0.4091380000000  0.4679460000000 1.0
C      1  0.5503170000000  0.5184860000000  0.5961210000000 1.0
C      1  0.5496180000000  0.5768090000000  0.4387910000000 1.0
C      1  0.5490240000000  0.4101370000000  0.4648150000000 1.0
C      1  0.4321790000000  0.4777190000000  0.4272390000000 1.0
C      1  0.4343450000000  0.4488630000000  0.5539520000000 1.0
C      1  0.4335250000000  0.5750800000000  0.5168500000000 1.0
C      1  0.5628560000000  0.4720030000000  0.4295470000000 1.0
C      1  0.5690530000000  0.4542180000000  0.5575170000000 1.0
C      1  0.5660780000000  0.5743260000000  0.5165990000000 1.0
C      1  0.5126230000000  0.4630230000000  0.5405010000000 1.0
C      1  0.5173540000000  0.5483980000000  0.5159830000000 1.0
C      1  0.5110280000000  0.4796740000000  0.4479090000000 1.0
C      1  0.4847130000000  0.4657790000000  0.5349130000000 1.0
C      1  0.4711040000000  0.5429110000000  0.5198490000000 1.0
C      1  0.4857550000000  0.4893060000000  0.4549010000000 1.0
C      1  0.4877060000000  0.4293690000000  0.5439830000000 1.0
C      1  0.4847720000000  0.5667380000000  0.5360780000000 1.0
C      1  0.4892000000000  0.4985010000000  0.4112200000000 1.0
C      1  0.5150700000000  0.4344850000000  0.5423440000000 1.0
C      1  0.5136350000000  0.5683010000000  0.5379900000000 1.0
C      1  0.5153190000000  0.4928710000000  0.4222150000000 1.0
C      1  0.6026740000000  0.4500540000000  0.4980110000000 1.0
C      1  0.6004170000000  0.5138030000000  0.5369110000000 1.0
C      1  0.5967480000000  0.5294730000000  0.4646690000000 1.0
C      1  0.3996340000000  0.4528410000000  0.4912810000000 1.0
C      1  0.4001990000000  0.5149940000000  0.5387620000000 1.0
C      1  0.4017710000000  0.5297420000000  0.4672540000000 1.0
C      1  0.4407730000000  0.5502360000000  0.4186320000000 1.0
C      1  0.4396620000000  0.4075790000000  0.4952510000000 1.0
C      1  0.4413990000000  0.5437710000000  0.5822850000000 1.0
C      1  0.5587150000000  0.5554200000000  0.4207270000000 1.0
C      1  0.5586800000000  0.4071950000000  0.4919970000000 1.0
C      1  0.5598040000000  0.5438940000000  0.5836370000000 1.0
C      1  0.4487320000000  0.5833950000000  0.5404830000000 1.0
C      1  0.4476590000000  0.4938520000000  0.4085610000000 1.0
C      1  0.4481240000000  0.4238950000000  0.5502810000000 1.0
C      1  0.5525190000000  0.5825330000000  0.5409450000000 1.0
C      1  0.5547800000000  0.4932380000000  0.4082600000000 1.0
C      1  0.5509470000000  0.4173540000000  0.5483030000000 1.0
C      1  0.4338970000000  0.4787200000000  0.5631660000000 1.0
C      1  0.4306720000000  0.5726410000000  0.4866530000000 1.0
C      1  0.4299550000000  0.4527990000000  0.4438840000000 1.0
C      1  0.5714840000000  0.4783820000000  0.5701770000000 1.0
C      1  0.5689060000000  0.5735140000000  0.4863800000000 1.0
C      1  0.5729150000000  0.4505450000000  0.4453830000000 1.0
C      1  0.4504590000000  0.5273740000000  0.5333780000000 1.0
C      1  0.4575630000000  0.5248390000000  0.4571400000000 1.0
C      1  0.4585210000000  0.4491490000000  0.4990340000000 1.0
C      1  0.5411830000000  0.5239180000000  0.5441610000000 1.0
C      1  0.5406020000000  0.5274240000000  0.4587130000000 1.0
C      1  0.5584530000000  0.4608200000000  0.4995830000000 1.0
C      1  0.5232270000000  0.5634560000000  0.5644110000000 1.0
C      1  0.5259210000000  0.5231400000000  0.4196700000000 1.0
C      1  0.5221800000000  0.4240730000000  0.5136840000000 1.0
C      1  0.4757280000000  0.5534180000000  0.5606350000000 1.0
C      1  0.4771870000000  0.5218910000000  0.4165860000000 1.0
C      1  0.4769250000000  0.4135290000000  0.5225380000000 1.0
C      1  0.5960320000000  0.4893310000000  0.5541020000000 1.0
C      1  0.5894400000000  0.5540340000000  0.4787040000000 1.0
C      1  0.5948660000000  0.4556680000000  0.4673980000000 1.0
C      1  0.4090650000000  0.4910890000000  0.5525530000000 1.0
C      1  0.4084630000000  0.5543490000000  0.4805230000000 1.0
C      1  0.4085920000000  0.4570680000000  0.4632120000000 1.0
C      1  0.5987220000000  0.4726830000000  0.5320630000000 1.0
C      1  0.5984570000000  0.5447050000000  0.5035340000000 1.0
C      1  0.5985670000000  0.4813420000000  0.4715770000000 1.0
C      1  0.4014820000000  0.4728920000000  0.5314840000000 1.0
C      1  0.3999500000000  0.5450620000000  0.5053870000000 1.0
C      1  0.4016710000000  0.4847000000000  0.4623080000000 1.0
C      1  0.4465150000000  0.4991760000000  0.5299450000000 1.0
C      1  0.4502440000000  0.5223890000000  0.4850410000000 1.0
C      1  0.4525740000000  0.4736160000000  0.4854550000000 1.0
C      1  0.5455600000000  0.5004940000000  0.5282190000000 1.0
C      1  0.5472300000000  0.5282680000000  0.4866180000000 1.0
C      1  0.5500960000000  0.4803520000000  0.4816540000000 1.0
C      1  0.6026780000000  0.5070670000000  0.4816730000000 1.0
C      1  0.5843130000000  0.4704560000000  0.5082400000000 1.0
C      1  0.6036630000000  0.5178780000000  0.5085550000000 1.0
C      1  0.3994040000000  0.5052080000000  0.4833040000000 1.0
C      1  0.3943320000000  0.4770080000000  0.5043080000000 1.0
C      1  0.3943310000000  0.5176420000000  0.5102860000000 1.0
C      1  0.5300990000000  0.4344260000000  0.4242230000000 1.0
C      1  0.5352230000000  0.4680070000000  0.5977050000000 1.0
C      1  0.5293380000000  0.5995820000000  0.4810090000000 1.0
C      1  0.4647280000000  0.4321370000000  0.4256250000000 1.0
C      1  0.4670370000000  0.4679390000000  0.5968860000000 1.0
C      1  0.4611830000000  0.5984410000000  0.4798640000000 1.0
C      1  0.5218880000000  0.5221330000000  0.5914270000000 1.0
C      1  0.5216970000000  0.5665360000000  0.4355510000000 1.0
C      1  0.5214130000000  0.4136030000000  0.4718470000000 1.0
C      1  0.4784770000000  0.5235130000000  0.5887050000000 1.0
C      1  0.4783640000000  0.5706930000000  0.4299480000000 1.0
C      1  0.4790380000000  0.4086320000000  0.4741610000000 1.0
C      1  0.4456730000000  0.4887580000000  0.5878260000000 1.0
C      1  0.4434770000000  0.5857430000000  0.4625520000000 1.0
C      1  0.4451450000000  0.4273420000000  0.4443830000000 1.0
C      1  0.5542450000000  0.4890480000000  0.5919700000000 1.0
C      1  0.5524000000000  0.5865130000000  0.4666590000000 1.0
C      1  0.5536690000000  0.4294690000000  0.4428040000000 1.0
C      1  0.4853830000000  0.5066130000000  0.5209440000000 1.0
C      1  0.4927370000000  0.5119070000000  0.4715060000000 1.0
C      1  0.4878510000000  0.4806870000000  0.5098430000000 1.0
C      1  0.5087880000000  0.5217490000000  0.5152310000000 1.0
C      1  0.5119320000000  0.5078240000000  0.4906090000000 1.0
C      1  0.5106320000000  0.4803550000000  0.4940240000000 1.0
C      1  0.5000540000000  0.4083460000000  0.4541300000000 1.0
C      1  0.5004040000000  0.5825250000000  0.4440530000000 1.0
C      1  0.4994940000000  0.5042260000000  0.6073600000000 1.0
C      1  0.4464200000000  0.4976600000000  0.5004530000000 1.0
C      1  0.5509900000000  0.5031100000000  0.4994890000000 1.0
END
