TITL C-2441164-471-1175 0.0646999757791385 125000 -15177.787399282 0 0 115 (C1) n - 1
REM
REM in /home/bkarasulu/work/CARBON/AIRSS/Generating-Clusters/ReaxFF-fromJPCA2015/Units_Real/with-SteepDescent/Higher-Symm
REM
REM
REM
REM
REM
REM ./C.cell (1df0a924f5614ab8850e4351716899ee)
REM
REM compiler GCC version 9.2.1 20190827 (Red Hat 9.2.1-1)
REM options -cpp -mtune=generic -march=x86-64 -g -O0 -fpre-include=/usr/include/finclude/math-vector-fortran.h
REM seed -1194563253 -406808728 -994093057 -756225083 -1311114585 -1739319950 188232098 -2054649038 1186203838 -957369307 -716679285 -1022971481 594964671 1332599314 1047999233 -911897969 134009425 1431736718 -458801100 -723121641 1040889196 256394799 1025113790 -652651796 412363022 -1187630598 -1478148348 -1245459369 1842874780 239325972 27530548 -623183499 1118678310
REM
CELL 1.54180   50.00000   50.00000   50.00000   90.00000   90.00000   90.00000
LATT -1
SFAC C  
C      1  0.5535350000000  0.5119040000000  0.5271340000000 1.0
C      1  0.5575200000000  0.5264610000000  0.5027010000000 1.0
C      1  0.5559860000000  0.5158060000000  0.4781320000000 1.0
C      1  0.5569470000000  0.4893600000000  0.4774020000000 1.0
C      1  0.5567300000000  0.4746390000000  0.4991030000000 1.0
C      1  0.5568610000000  0.4852030000000  0.5229380000000 1.0
C      1  0.4733500000000  0.4713490000000  0.4928510000000 1.0
C      1  0.4845740000000  0.4751230000000  0.5215110000000 1.0
C      1  0.4818380000000  0.5040480000000  0.5324980000000 1.0
C      1  0.4807890000000  0.5296070000000  0.5122970000000 1.0
C      1  0.4813140000000  0.5254450000000  0.4798150000000 1.0
C      1  0.4823120000000  0.4949980000000  0.4692120000000 1.0
C      1  0.4755590000000  0.4419420000000  0.4873930000000 1.0
C      1  0.4842410000000  0.4495000000000  0.5370090000000 1.0
C      1  0.4832110000000  0.5069290000000  0.5624710000000 1.0
C      1  0.4824750000000  0.5566780000000  0.5256650000000 1.0
C      1  0.4817570000000  0.5500450000000  0.4626680000000 1.0
C      1  0.4834940000000  0.4934780000000  0.4395880000000 1.0
C      1  0.4126110000000  0.4643720000000  0.5236700000000 1.0
C      1  0.4082910000000  0.4843500000000  0.5448060000000 1.0
C      1  0.4143160000000  0.5315920000000  0.5267060000000 1.0
C      1  0.4136690000000  0.5402200000000  0.4870130000000 1.0
C      1  0.4086510000000  0.5036310000000  0.4556860000000 1.0
C      1  0.4129920000000  0.4746860000000  0.4660750000000 1.0
C      1  0.5269410000000  0.4847110000000  0.4455460000000 1.0
C      1  0.5265120000000  0.4460560000000  0.4858570000000 1.0
C      1  0.5285480000000  0.4588680000000  0.5401840000000 1.0
C      1  0.5278200000000  0.5137640000000  0.5528340000000 1.0
C      1  0.5266240000000  0.5525170000000  0.5172910000000 1.0
C      1  0.5249140000000  0.5406630000000  0.4611190000000 1.0
C      1  0.4366140000000  0.5275110000000  0.5037610000000 1.0
C      1  0.4311980000000  0.5159120000000  0.4772300000000 1.0
C      1  0.4369440000000  0.4880450000000  0.4778380000000 1.0
C      1  0.4473160000000  0.4773030000000  0.4962190000000 1.0
C      1  0.4380560000000  0.4817600000000  0.5193640000000 1.0
C      1  0.4341580000000  0.5092040000000  0.5260850000000 1.0
C      1  0.5227120000000  0.5697220000000  0.4535950000000 1.0
C      1  0.5233950000000  0.4939760000000  0.4179680000000 1.0
C      1  0.5210340000000  0.4248960000000  0.4638200000000 1.0
C      1  0.5228650000000  0.4305000000000  0.5481180000000 1.0
C      1  0.5233550000000  0.5064530000000  0.5836480000000 1.0
C      1  0.5221470000000  0.5757570000000  0.5360550000000 1.0
C      1  0.4295330000000  0.5596890000000  0.4760640000000 1.0
C      1  0.4285750000000  0.5073790000000  0.4373540000000 1.0
C      1  0.4285900000000  0.4536700000000  0.4577790000000 1.0
C      1  0.4273970000000  0.4412340000000  0.5222360000000 1.0
C      1  0.4284360000000  0.4898770000000  0.5625450000000 1.0
C      1  0.4303790000000  0.5508990000000  0.5381220000000 1.0
C      1  0.4506370000000  0.5592160000000  0.5529560000000 1.0
C      1  0.4520710000000  0.5739220000000  0.4764060000000 1.0
C      1  0.4506420000000  0.5148590000000  0.4243480000000 1.0
C      1  0.4515410000000  0.4415240000000  0.4474010000000 1.0
C      1  0.4499280000000  0.4268510000000  0.5269680000000 1.0
C      1  0.4499780000000  0.4850550000000  0.5767800000000 1.0
C      1  0.5697400000000  0.5550070000000  0.4755350000000 1.0
C      1  0.5713880000000  0.5044620000000  0.4413150000000 1.0
C      1  0.5683060000000  0.4510280000000  0.4655770000000 1.0
C      1  0.5698440000000  0.4456530000000  0.5248890000000 1.0
C      1  0.5701140000000  0.4949040000000  0.5603860000000 1.0
C      1  0.5702230000000  0.5487390000000  0.5358560000000 1.0
C      1  0.5122320000000  0.5234680000000  0.4804560000000 1.0
C      1  0.5133220000000  0.4914410000000  0.4710190000000 1.0
C      1  0.5184110000000  0.4716750000000  0.4917190000000 1.0
C      1  0.5140990000000  0.4766260000000  0.5199570000000 1.0
C      1  0.5118550000000  0.5053370000000  0.5299000000000 1.0
C      1  0.5115290000000  0.5280890000000  0.5108150000000 1.0
C      1  0.4605770000000  0.5760680000000  0.5287330000000 1.0
C      1  0.4607110000000  0.5617580000000  0.4497650000000 1.0
C      1  0.4614730000000  0.4863800000000  0.4215920000000 1.0
C      1  0.4729000000000  0.4279300000000  0.4638090000000 1.0
C      1  0.4623850000000  0.4391190000000  0.5527070000000 1.0
C      1  0.4590560000000  0.5138710000000  0.5778660000000 1.0
C      1  0.4980230000000  0.4902340000000  0.5813580000000 1.0
C      1  0.4977420000000  0.5665170000000  0.5482430000000 1.0
C      1  0.4961110000000  0.5745020000000  0.4663110000000 1.0
C      1  0.4988030000000  0.5097530000000  0.4211850000000 1.0
C      1  0.4960590000000  0.4297670000000  0.4483880000000 1.0
C      1  0.4984370000000  0.4248550000000  0.5323990000000 1.0
C      1  0.5475730000000  0.4369270000000  0.4513580000000 1.0
C      1  0.5494240000000  0.4258020000000  0.5291430000000 1.0
C      1  0.5486630000000  0.4888030000000  0.5782430000000 1.0
C      1  0.5488730000000  0.5625480000000  0.5495760000000 1.0
C      1  0.5486110000000  0.5738080000000  0.4719560000000 1.0
C      1  0.5499450000000  0.5118650000000  0.4240450000000 1.0
C      1  0.5364830000000  0.4233570000000  0.5027640000000 1.0
C      1  0.5359680000000  0.4643930000000  0.5681900000000 1.0
C      1  0.5338680000000  0.5407140000000  0.5624860000000 1.0
C      1  0.5315830000000  0.5704050000000  0.4950520000000 1.0
C      1  0.5336410000000  0.5341170000000  0.4341260000000 1.0
C      1  0.5352330000000  0.4586200000000  0.4356580000000 1.0
C      1  0.5157930000000  0.5374250000000  0.5842640000000 1.0
C      1  0.5176420000000  0.5914730000000  0.5092760000000 1.0
C      1  0.5170450000000  0.5556750000000  0.4241430000000 1.0
C      1  0.5161000000000  0.4609510000000  0.4143200000000 1.0
C      1  0.5170960000000  0.4060820000000  0.4903720000000 1.0
C      1  0.5166080000000  0.4448580000000  0.5767820000000 1.0
C      1  0.4934910000000  0.5517810000000  0.5727420000000 1.0
C      1  0.4945400000000  0.5895440000000  0.4912880000000 1.0
C      1  0.4942020000000  0.5380820000000  0.4181920000000 1.0
C      1  0.4927910000000  0.4473120000000  0.4254460000000 1.0
C      1  0.4949550000000  0.4076450000000  0.5094220000000 1.0
C      1  0.4930280000000  0.4614960000000  0.5827620000000 1.0
C      1  0.4662060000000  0.5409860000000  0.4278890000000 1.0
C      1  0.4651550000000  0.4577040000000  0.4265110000000 1.0
C      1  0.4680550000000  0.4193400000000  0.5033930000000 1.0
C      1  0.4649770000000  0.4585330000000  0.5741630000000 1.0
C      1  0.4651840000000  0.5424050000000  0.5738840000000 1.0
C      1  0.4671060000000  0.5849080000000  0.5006270000000 1.0
C      1  0.5731060000000  0.5492700000000  0.5048760000000 1.0
C      1  0.5681610000000  0.5302330000000  0.4569420000000 1.0
C      1  0.5711520000000  0.4785600000000  0.4557710000000 1.0
C      1  0.5729290000000  0.4518770000000  0.4956880000000 1.0
C      1  0.5723580000000  0.4714030000000  0.5407070000000 1.0
C      1  0.5742400000000  0.5211620000000  0.5462270000000 1.0
C      1  0.5910820000000  0.4875140000000  0.4951530000000 1.0
END
