TITL C-2441163-1170-311 2.25041357272352e-08 125000 -7727.64985693814 0 0 49 (Cs) n - 1
REM
REM in /home/bkarasulu/work/CARBON/AIRSS/Generating-Clusters/ReaxFF-fromJPCA2015/Units_Real/with-SteepDescent/Higher-Symm
REM
REM
REM
REM
REM
REM ./C.cell (1df0a924f5614ab8850e4351716899ee)
REM
REM compiler GCC version 9.2.1 20190827 (Red Hat 9.2.1-1)
REM options -cpp -mtune=generic -march=x86-64 -g -O0 -fpre-include=/usr/include/finclude/math-vector-fortran.h
REM seed -1769234781 -1761713054 -780078941 -1135295616 -1109864954 1300435709 -1599711007 -736229498 923460068 -1958852898 900310258 929960145 -1862714877 -695687351 311668260 -856292459 1859370011 1212040581 -88186287 466980307 -1585955354 2000019495 221623593 1505805489 512395413 1745794786 1405419716 -1557958793 1833801669 615767700 -1173173507 2128919391 613546424
REM
CELL 1.54180   50.00000   50.00000   50.00000   90.00000   90.00000   90.00000
LATT -1
SFAC C  
C      1  0.5238520000000  0.5286230000000  0.5474100000000 1.0
C      1  0.4727220000000  0.5266200000000  0.5477460000000 1.0
C      1  0.4740840000000  0.4723990000000  0.5477240000000 1.0
C      1  0.5252500000000  0.4729670000000  0.5473870000000 1.0
C      1  0.5252810000000  0.5273360000000  0.4537750000000 1.0
C      1  0.4721590000000  0.5262200000000  0.4537020000000 1.0
C      1  0.4734990000000  0.4728490000000  0.4536800000000 1.0
C      1  0.5266110000000  0.4744020000000  0.4537530000000 1.0
C      1  0.4981080000000  0.5396480000000  0.5478330000000 1.0
C      1  0.4630610000000  0.4992500000000  0.5471640000000 1.0
C      1  0.5000930000000  0.4606630000000  0.5478000000000 1.0
C      1  0.5289580000000  0.5009090000000  0.5382160000000 1.0
C      1  0.4985890000000  0.5378070000000  0.4537480000000 1.0
C      1  0.4616650000000  0.4992540000000  0.4535270000000 1.0
C      1  0.5004790000000  0.4626040000000  0.4537160000000 1.0
C      1  0.5367710000000  0.5011410000000  0.4538990000000 1.0
C      1  0.4403410000000  0.4987100000000  0.4726090000000 1.0
C      1  0.5008130000000  0.4407000000000  0.4726040000000 1.0
C      1  0.5590020000000  0.5016920000000  0.4724260000000 1.0
C      1  0.4978240000000  0.5596840000000  0.4726540000000 1.0
C      1  0.4413140000000  0.4987110000000  0.5287740000000 1.0
C      1  0.5006830000000  0.4394020000000  0.5288230000000 1.0
C      1  0.5574550000000  0.5016300000000  0.5271250000000 1.0
C      1  0.4976290000000  0.5609270000000  0.5288740000000 1.0
C      1  0.4565580000000  0.5412050000000  0.5287600000000 1.0
C      1  0.4586730000000  0.4570360000000  0.5287250000000 1.0
C      1  0.5424640000000  0.4585010000000  0.5294370000000 1.0
C      1  0.5403170000000  0.5439490000000  0.5294730000000 1.0
C      1  0.4568120000000  0.5409090000000  0.4728980000000 1.0
C      1  0.4589110000000  0.4573920000000  0.4728630000000 1.0
C      1  0.5426750000000  0.4589680000000  0.4722950000000 1.0
C      1  0.5405500000000  0.5435420000000  0.4723300000000 1.0
C      1  0.4382930000000  0.5237760000000  0.4862660000000 1.0
C      1  0.4755500000000  0.4391630000000  0.4860900000000 1.0
C      1  0.5615830000000  0.4761200000000  0.4859420000000 1.0
C      1  0.5232510000000  0.5622670000000  0.4862480000000 1.0
C      1  0.4383200000000  0.5235460000000  0.5153760000000 1.0
C      1  0.4754420000000  0.4383570000000  0.5147470000000 1.0
C      1  0.5614160000000  0.4759230000000  0.5152630000000 1.0
C      1  0.5232250000000  0.5627180000000  0.5153610000000 1.0
C      1  0.4395700000000  0.4737690000000  0.5153550000000 1.0
C      1  0.5263360000000  0.4389100000000  0.5153090000000 1.0
C      1  0.5601200000000  0.5275130000000  0.5152850000000 1.0
C      1  0.4723680000000  0.5607150000000  0.5147980000000 1.0
C      1  0.4395550000000  0.4735620000000  0.4862450000000 1.0
C      1  0.5263380000000  0.4393850000000  0.4861970000000 1.0
C      1  0.5602960000000  0.5273500000000  0.4859640000000 1.0
C      1  0.4725160000000  0.5599390000000  0.4861400000000 1.0
C      1  0.5090980000000  0.5004220000000  0.5105990000000 1.0
END
