TITL C-2441163-1170-321 0.0296455400133054 125000 -17368.4640592221 0 0 121 (C1) n - 1
REM
REM in /home/bkarasulu/work/CARBON/AIRSS/Generating-Clusters/ReaxFF-fromJPCA2015/Units_Real/with-SteepDescent/Higher-Symm
REM
REM
REM
REM
REM
REM ./C.cell (1df0a924f5614ab8850e4351716899ee)
REM
REM compiler GCC version 9.2.1 20190827 (Red Hat 9.2.1-1)
REM options -cpp -mtune=generic -march=x86-64 -g -O0 -fpre-include=/usr/include/finclude/math-vector-fortran.h
REM seed 860454057 -953922860 -753603963 1804270292 -514061225 -635864028 1003678290 -1979691605 -2121575941 -805892643 -674177355 1367309329 1386885898 -896228840 -476851625 1464335944 410916665 -358811393 1051891089 102810610 -2117531718 -228705240 1659036298 100326010 1372480886 -240070730 -924833849 -226044099 -1980569205 -1598881300 1491526940 935489688 635350925
REM
CELL 1.54180   50.00000   50.00000   50.00000   90.00000   90.00000   90.00000
LATT -1
SFAC C  
C      1  0.5419190000000  0.5798740000000  0.5503550000000 1.0
C      1  0.4631160000000  0.5791090000000  0.4462810000000 1.0
C      1  0.4938600000000  0.4350260000000  0.5677080000000 1.0
C      1  0.5055960000000  0.4358450000000  0.4309170000000 1.0
C      1  0.5798210000000  0.4945800000000  0.5320940000000 1.0
C      1  0.4133550000000  0.4921280000000  0.4652070000000 1.0
C      1  0.5542060000000  0.4614100000000  0.4477500000000 1.0
C      1  0.4450660000000  0.4501020000000  0.5636610000000 1.0
C      1  0.5183520000000  0.4091260000000  0.5324060000000 1.0
C      1  0.4817370000000  0.4093880000000  0.4673650000000 1.0
C      1  0.4641870000000  0.4984300000000  0.5033260000000 1.0
C      1  0.5377610000000  0.4983210000000  0.4921750000000 1.0
C      1  0.4863040000000  0.4134790000000  0.4958000000000 1.0
C      1  0.5133450000000  0.4114150000000  0.5040320000000 1.0
C      1  0.4594600000000  0.5700870000000  0.5498090000000 1.0
C      1  0.5419420000000  0.5738040000000  0.4476780000000 1.0
C      1  0.5079650000000  0.5283190000000  0.5925230000000 1.0
C      1  0.4928250000000  0.5278690000000  0.4066790000000 1.0
C      1  0.4346890000000  0.5448700000000  0.5045650000000 1.0
C      1  0.5648180000000  0.5466050000000  0.5010990000000 1.0
C      1  0.4588570000000  0.5833380000000  0.5232760000000 1.0
C      1  0.5427120000000  0.5870000000000  0.4743310000000 1.0
C      1  0.5141520000000  0.5837300000000  0.5406600000000 1.0
C      1  0.4917370000000  0.5775540000000  0.4494280000000 1.0
C      1  0.4545050000000  0.4179820000000  0.4661750000000 1.0
C      1  0.5427970000000  0.4241960000000  0.5325400000000 1.0
C      1  0.4472770000000  0.4765680000000  0.5773030000000 1.0
C      1  0.5508260000000  0.4796190000000  0.4245790000000 1.0
C      1  0.5038780000000  0.6039410000000  0.5218090000000 1.0
C      1  0.4948980000000  0.6050900000000  0.4924910000000 1.0
C      1  0.5480620000000  0.5294650000000  0.4220320000000 1.0
C      1  0.4493840000000  0.5284690000000  0.5788450000000 1.0
C      1  0.5708460000000  0.5081360000000  0.4587110000000 1.0
C      1  0.4387730000000  0.5051190000000  0.5398550000000 1.0
C      1  0.4141810000000  0.4556920000000  0.4988220000000 1.0
C      1  0.5840720000000  0.4564430000000  0.5030170000000 1.0
C      1  0.4729780000000  0.4524900000000  0.5557830000000 1.0
C      1  0.5209640000000  0.4567190000000  0.4445710000000 1.0
C      1  0.5569400000000  0.4338530000000  0.4619690000000 1.0
C      1  0.4411560000000  0.4310790000000  0.5404880000000 1.0
C      1  0.5141700000000  0.4531950000000  0.5790890000000 1.0
C      1  0.4838470000000  0.4516840000000  0.4189130000000 1.0
C      1  0.5187900000000  0.5961130000000  0.4836460000000 1.0
C      1  0.4773270000000  0.6028790000000  0.5160540000000 1.0
C      1  0.4960830000000  0.4758190000000  0.4088870000000 1.0
C      1  0.5007380000000  0.4770420000000  0.5901540000000 1.0
C      1  0.4710830000000  0.4347060000000  0.5077240000000 1.0
C      1  0.5235060000000  0.4346900000000  0.4912520000000 1.0
C      1  0.5596080000000  0.5756280000000  0.4984840000000 1.0
C      1  0.4450380000000  0.5714620000000  0.5009160000000 1.0
C      1  0.5559340000000  0.5491370000000  0.4427150000000 1.0
C      1  0.4439270000000  0.5463210000000  0.5566550000000 1.0
C      1  0.4934910000000  0.5005580000000  0.5052760000000 1.0
C      1  0.5093480000000  0.5051460000000  0.4799070000000 1.0
C      1  0.5918560000000  0.5044420000000  0.4840680000000 1.0
C      1  0.4142090000000  0.5045830000000  0.5160160000000 1.0
C      1  0.5442050000000  0.4425400000000  0.5089590000000 1.0
C      1  0.4478040000000  0.4275940000000  0.4934600000000 1.0
C      1  0.5287640000000  0.5410330000000  0.5800230000000 1.0
C      1  0.4709210000000  0.5397750000000  0.4182410000000 1.0
C      1  0.5517820000000  0.4666870000000  0.5433500000000 1.0
C      1  0.4442720000000  0.4612190000000  0.4559890000000 1.0
C      1  0.5448100000000  0.5276940000000  0.4912630000000 1.0
C      1  0.4607240000000  0.5287140000000  0.5108290000000 1.0
C      1  0.5815790000000  0.5379710000000  0.5236260000000 1.0
C      1  0.4198660000000  0.5381410000000  0.4805690000000 1.0
C      1  0.5781690000000  0.4659080000000  0.5306810000000 1.0
C      1  0.4178160000000  0.4643690000000  0.4710060000000 1.0
C      1  0.5625600000000  0.5051660000000  0.4279140000000 1.0
C      1  0.4369970000000  0.5031970000000  0.5707170000000 1.0
C      1  0.4341940000000  0.5036890000000  0.4471740000000 1.0
C      1  0.5579770000000  0.5096700000000  0.5445420000000 1.0
C      1  0.5487360000000  0.5539000000000  0.5654730000000 1.0
C      1  0.4516990000000  0.5546590000000  0.4325990000000 1.0
C      1  0.5337870000000  0.4170920000000  0.4553290000000 1.0
C      1  0.4651310000000  0.4139320000000  0.5437300000000 1.0
C      1  0.5092920000000  0.5333820000000  0.5214550000000 1.0
C      1  0.4949450000000  0.5311400000000  0.4751170000000 1.0
C      1  0.4836980000000  0.5588280000000  0.5611110000000 1.0
C      1  0.5162040000000  0.5634530000000  0.4372200000000 1.0
C      1  0.5670610000000  0.5362180000000  0.5497300000000 1.0
C      1  0.4362990000000  0.5494960000000  0.4587310000000 1.0
C      1  0.4204160000000  0.4772050000000  0.5178470000000 1.0
C      1  0.5856720000000  0.4770850000000  0.4826640000000 1.0
C      1  0.5173710000000  0.5011170000000  0.5859030000000 1.0
C      1  0.4811140000000  0.5005820000000  0.4081900000000 1.0
C      1  0.5590620000000  0.4840730000000  0.4703100000000 1.0
C      1  0.4499020000000  0.4820720000000  0.5243390000000 1.0
C      1  0.4817760000000  0.5082530000000  0.5594430000000 1.0
C      1  0.5116420000000  0.5072550000000  0.4438700000000 1.0
C      1  0.5182070000000  0.5312850000000  0.4252390000000 1.0
C      1  0.4796240000000  0.5349750000000  0.5795440000000 1.0
C      1  0.5558990000000  0.4400920000000  0.5522280000000 1.0
C      1  0.4454930000000  0.4346500000000  0.4462830000000 1.0
C      1  0.5666920000000  0.4373630000000  0.4900580000000 1.0
C      1  0.4278210000000  0.4341900000000  0.5131250000000 1.0
C      1  0.4739310000000  0.4581180000000  0.5266920000000 1.0
C      1  0.5121780000000  0.4529750000000  0.4720340000000 1.0
C      1  0.5200610000000  0.4820360000000  0.4269560000000 1.0
C      1  0.4747010000000  0.4868830000000  0.5798760000000 1.0
C      1  0.4473880000000  0.5729670000000  0.4707860000000 1.0
C      1  0.5524160000000  0.5792780000000  0.5249030000000 1.0
C      1  0.5542440000000  0.5303820000000  0.4643740000000 1.0
C      1  0.4583260000000  0.5248510000000  0.5397250000000 1.0
C      1  0.4917000000000  0.4657030000000  0.4845160000000 1.0
C      1  0.5009560000000  0.4731190000000  0.5125730000000 1.0
C      1  0.4624390000000  0.5016070000000  0.4569220000000 1.0
C      1  0.5282980000000  0.5066100000000  0.5336200000000 1.0
C      1  0.5029400000000  0.5569020000000  0.4656680000000 1.0
C      1  0.5049940000000  0.5553490000000  0.5406620000000 1.0
C      1  0.5411580000000  0.4556840000000  0.5695180000000 1.0
C      1  0.4569110000000  0.4522050000000  0.4294860000000 1.0
C      1  0.5105640000000  0.5021240000000  0.5568520000000 1.0
C      1  0.4840700000000  0.5026400000000  0.4379930000000 1.0
C      1  0.4096480000000  0.5119330000000  0.4886480000000 1.0
C      1  0.5915930000000  0.5125730000000  0.5119680000000 1.0
C      1  0.4940870000000  0.4115740000000  0.5499180000000 1.0
C      1  0.5049150000000  0.4129790000000  0.4486370000000 1.0
C      1  0.5311760000000  0.4802700000000  0.5173120000000 1.0
C      1  0.4670770000000  0.4791280000000  0.4764050000000 1.0
C      1  0.4887530000000  0.5408020000000  0.5018750000000 1.0
END
