TITL C-2441154-10-481 0.0528212710759499 125000 -18206.9539816948 0 0 126 (C1) n - 1
REM
REM in /home/bkarasulu/work/CARBON/AIRSS/Generating-Clusters/ReaxFF-fromJPCA2015/Units_Real/with-SteepDescent/Higher-Symm
REM
REM
REM
REM
REM
REM ./C.cell (1df0a924f5614ab8850e4351716899ee)
REM
REM compiler GCC version 9.2.1 20190827 (Red Hat 9.2.1-1)
REM options -cpp -mtune=generic -march=x86-64 -g -O0 -fpre-include=/usr/include/finclude/math-vector-fortran.h
REM seed 1522587566 -1675358412 314056791 419776960 187557914 962887406 -52391472 -433395959 1240529841 1929097373 1106125085 -156615193 -136036961 38108780 679553736 617595380 -61700101 1633628874 -1069440705 1651480959 1497674425 -1474476819 1710699066 722849436 1697734971 -1196190012 -1668383551 12065234 153537351 -265493511 85310179 -1488913521 -539210399
REM
CELL 1.54180   50.00000   50.00000   50.00000   90.00000   90.00000   90.00000
LATT -1
SFAC C  
C      1  0.5170430000000  0.4119660000000  0.5218550000000 1.0
C      1  0.4180030000000  0.5194660000000  0.5121650000000 1.0
C      1  0.5186310000000  0.5204890000000  0.4132840000000 1.0
C      1  0.4865060000000  0.4142760000000  0.4744910000000 1.0
C      1  0.4822700000000  0.5876350000000  0.5291440000000 1.0
C      1  0.5167760000000  0.5842850000000  0.4788680000000 1.0
C      1  0.5842940000000  0.5251260000000  0.4854150000000 1.0
C      1  0.5869010000000  0.4822340000000  0.5209540000000 1.0
C      1  0.4124740000000  0.4726410000000  0.4831020000000 1.0
C      1  0.4744360000000  0.5141760000000  0.5858930000000 1.0
C      1  0.4803700000000  0.4777760000000  0.4115780000000 1.0
C      1  0.5238160000000  0.4857440000000  0.5860480000000 1.0
C      1  0.4334010000000  0.5017420000000  0.5615290000000 1.0
C      1  0.5018840000000  0.5654540000000  0.4344270000000 1.0
C      1  0.5624630000000  0.4371460000000  0.5000990000000 1.0
C      1  0.5635650000000  0.5008260000000  0.4367210000000 1.0
C      1  0.5675750000000  0.4991300000000  0.5647900000000 1.0
C      1  0.4351790000000  0.4984190000000  0.4373880000000 1.0
C      1  0.4994850000000  0.5658600000000  0.5656810000000 1.0
C      1  0.4970050000000  0.4345930000000  0.4321300000000 1.0
C      1  0.5022120000000  0.4342550000000  0.5627500000000 1.0
C      1  0.4338830000000  0.4352770000000  0.5000740000000 1.0
C      1  0.4389830000000  0.5651550000000  0.5013340000000 1.0
C      1  0.5626940000000  0.5667770000000  0.4986910000000 1.0
C      1  0.4961250000000  0.5802990000000  0.4584250000000 1.0
C      1  0.5792710000000  0.4593500000000  0.4944360000000 1.0
C      1  0.4548330000000  0.4934320000000  0.5784160000000 1.0
C      1  0.5048230000000  0.5843970000000  0.5451670000000 1.0
C      1  0.5064660000000  0.4189130000000  0.4537400000000 1.0
C      1  0.4952310000000  0.4153010000000  0.5414610000000 1.0
C      1  0.4148950000000  0.4554210000000  0.5048200000000 1.0
C      1  0.4284260000000  0.5402510000000  0.4938910000000 1.0
C      1  0.5794160000000  0.5450020000000  0.5062880000000 1.0
C      1  0.5371860000000  0.4950950000000  0.4254520000000 1.0
C      1  0.5455520000000  0.5053680000000  0.5829360000000 1.0
C      1  0.4576460000000  0.5048900000000  0.4213150000000 1.0
C      1  0.5180340000000  0.4646140000000  0.5159260000000 1.0
C      1  0.4641820000000  0.5148790000000  0.5198580000000 1.0
C      1  0.5138890000000  0.5207900000000  0.4596940000000 1.0
C      1  0.4865750000000  0.4635050000000  0.4888680000000 1.0
C      1  0.4925660000000  0.5459470000000  0.5051580000000 1.0
C      1  0.5292800000000  0.5328390000000  0.4790280000000 1.0
C      1  0.5402460000000  0.5093110000000  0.4899920000000 1.0
C      1  0.5273160000000  0.4894130000000  0.5276240000000 1.0
C      1  0.4702800000000  0.4857120000000  0.4803770000000 1.0
C      1  0.4853810000000  0.5311330000000  0.5290430000000 1.0
C      1  0.4869840000000  0.4919130000000  0.4580740000000 1.0
C      1  0.5051150000000  0.4941880000000  0.5447590000000 1.0
C      1  0.4714420000000  0.5616910000000  0.5652150000000 1.0
C      1  0.5627370000000  0.5650140000000  0.4703440000000 1.0
C      1  0.5634730000000  0.4708400000000  0.5624770000000 1.0
C      1  0.5301460000000  0.5637930000000  0.4355400000000 1.0
C      1  0.5291680000000  0.4389940000000  0.5615800000000 1.0
C      1  0.4691580000000  0.4363850000000  0.4360050000000 1.0
C      1  0.4374670000000  0.5638150000000  0.5291810000000 1.0
C      1  0.4384180000000  0.4353610000000  0.4722530000000 1.0
C      1  0.5626280000000  0.4369560000000  0.5283120000000 1.0
C      1  0.4358190000000  0.4698970000000  0.4376460000000 1.0
C      1  0.4352780000000  0.5299840000000  0.5607870000000 1.0
C      1  0.5633420000000  0.5289750000000  0.4381090000000 1.0
C      1  0.4573250000000  0.4887960000000  0.5279210000000 1.0
C      1  0.4872530000000  0.5236110000000  0.4571130000000 1.0
C      1  0.5199430000000  0.4596330000000  0.4871280000000 1.0
C      1  0.5372120000000  0.4845490000000  0.4744420000000 1.0
C      1  0.5355410000000  0.5147010000000  0.5165850000000 1.0
C      1  0.4620570000000  0.5124030000000  0.4918230000000 1.0
C      1  0.5053830000000  0.5226410000000  0.5467300000000 1.0
C      1  0.5166990000000  0.4931120000000  0.4543710000000 1.0
C      1  0.4817700000000  0.4774280000000  0.5375980000000 1.0
C      1  0.4890990000000  0.4572560000000  0.5174910000000 1.0
C      1  0.4777090000000  0.5333270000000  0.4827460000000 1.0
C      1  0.5227330000000  0.5421430000000  0.5062560000000 1.0
C      1  0.4255710000000  0.5384630000000  0.5349100000000 1.0
C      1  0.5396610000000  0.5389070000000  0.4260760000000 1.0
C      1  0.5386540000000  0.4264060000000  0.5378730000000 1.0
C      1  0.5741030000000  0.5401190000000  0.4615960000000 1.0
C      1  0.5735960000000  0.4605770000000  0.5387890000000 1.0
C      1  0.4245410000000  0.4578100000000  0.4608590000000 1.0
C      1  0.4601000000000  0.5376740000000  0.5736780000000 1.0
C      1  0.4590990000000  0.4601450000000  0.4256820000000 1.0
C      1  0.5388750000000  0.4625960000000  0.5734540000000 1.0
C      1  0.4617430000000  0.4251320000000  0.4609180000000 1.0
C      1  0.4598480000000  0.5757000000000  0.5430660000000 1.0
C      1  0.5376590000000  0.5759250000000  0.4607710000000 1.0
C      1  0.4292730000000  0.4926800000000  0.5341210000000 1.0
C      1  0.4913720000000  0.5390010000000  0.4286520000000 1.0
C      1  0.5358040000000  0.4336540000000  0.4877230000000 1.0
C      1  0.5637330000000  0.4851940000000  0.4607820000000 1.0
C      1  0.5774110000000  0.5069730000000  0.5384070000000 1.0
C      1  0.4231180000000  0.5111860000000  0.4617600000000 1.0
C      1  0.5199540000000  0.5437740000000  0.5633840000000 1.0
C      1  0.5055380000000  0.4591100000000  0.4202370000000 1.0
C      1  0.4818260000000  0.4453090000000  0.5796120000000 1.0
C      1  0.4528210000000  0.4363760000000  0.5227270000000 1.0
C      1  0.4614020000000  0.5790090000000  0.4890070000000 1.0
C      1  0.5343040000000  0.5710770000000  0.5056190000000 1.0
C      1  0.5702450000000  0.5549270000000  0.5517910000000 1.0
C      1  0.5659280000000  0.5391130000000  0.5748630000000 1.0
C      1  0.5428620000000  0.5643880000000  0.5514340000000 1.0
C      1  0.4269930000000  0.5577380000000  0.4475510000000 1.0
C      1  0.4335730000000  0.4471050000000  0.5423840000000 1.0
C      1  0.5739800000000  0.4428310000000  0.4471540000000 1.0
C      1  0.4430280000000  0.5523510000000  0.4248740000000 1.0
C      1  0.4417710000000  0.4468650000000  0.5699650000000 1.0
C      1  0.5551170000000  0.4484570000000  0.4270590000000 1.0
C      1  0.4482960000000  0.5741100000000  0.4422480000000 1.0
C      1  0.4622680000000  0.4270280000000  0.5681550000000 1.0
C      1  0.5523570000000  0.4262030000000  0.4433350000000 1.0
C      1  0.4639590000000  0.5323690000000  0.4187230000000 1.0
C      1  0.5328260000000  0.4202290000000  0.4623090000000 1.0
C      1  0.4160370000000  0.4665070000000  0.5305370000000 1.0
C      1  0.5399750000000  0.5324680000000  0.5823820000000 1.0
C      1  0.5328650000000  0.4664630000000  0.4204060000000 1.0
C      1  0.4609010000000  0.4658140000000  0.5803950000000 1.0
C      1  0.4662590000000  0.4174830000000  0.5405320000000 1.0
C      1  0.4676710000000  0.5803410000000  0.4617520000000 1.0
C      1  0.5302850000000  0.5817320000000  0.5329820000000 1.0
C      1  0.5813190000000  0.4630610000000  0.4662880000000 1.0
C      1  0.5791440000000  0.5343460000000  0.5319070000000 1.0
C      1  0.4233150000000  0.5385700000000  0.4671090000000 1.0
C      1  0.4989170000000  0.4134880000000  0.5002860000000 1.0
C      1  0.4166520000000  0.5006160000000  0.4871520000000 1.0
C      1  0.4975210000000  0.5007340000000  0.4127280000000 1.0
C      1  0.4874420000000  0.5781540000000  0.5020730000000 1.0
C      1  0.5840310000000  0.4990750000000  0.4974690000000 1.0
C      1  0.4992140000000  0.4999840000000  0.5861510000000 1.0
END
