TITL C-2441156-4686-42 0.00994449587458327 125000 -8047.78917614177 0 0 56 (C1) n - 1
REM
REM in /home/bkarasulu/work/CARBON/AIRSS/Generating-Clusters/ReaxFF-fromJPCA2015/Units_Real/with-SteepDescent/Higher-Symm
REM
REM
REM
REM
REM
REM ./C.cell (1df0a924f5614ab8850e4351716899ee)
REM
REM compiler GCC version 9.2.1 20190827 (Red Hat 9.2.1-1)
REM options -cpp -mtune=generic -march=x86-64 -g -O0 -fpre-include=/usr/include/finclude/math-vector-fortran.h
REM seed 1876017976 1634338091 -1009374312 -1468196310 2008817364 -572063442 -2101288127 1181420288 -867256742 -1460856522 1357925230 -708837163 -2007134499 -1244703361 1943393670 26069073 -1775600511 -522539847 -204344367 1470065522 -1084127807 -1893858130 986164826 -1840243124 923353760 281693342 1966052274 -1282379257 -467671026 972379428 371863217 -38565256 1666837700
REM
CELL 1.54180   50.00000   50.00000   50.00000   90.00000   90.00000   90.00000
LATT -1
SFAC C  
C      1  0.5386420000000  0.4808850000000  0.5471350000000 1.0
C      1  0.5012160000000  0.5460540000000  0.5501000000000 1.0
C      1  0.4649910000000  0.4764470000000  0.5430420000000 1.0
C      1  0.5443970000000  0.5284400000000  0.5482570000000 1.0
C      1  0.4529460000000  0.5296910000000  0.5423980000000 1.0
C      1  0.4962280000000  0.4366140000000  0.5433420000000 1.0
C      1  0.4592700000000  0.4962950000000  0.4946630000000 1.0
C      1  0.5264920000000  0.4706780000000  0.5000790000000 1.0
C      1  0.5266900000000  0.5434180000000  0.4854130000000 1.0
C      1  0.4374020000000  0.4852940000000  0.5347160000000 1.0
C      1  0.5441130000000  0.4531340000000  0.5345770000000 1.0
C      1  0.5179750000000  0.5632790000000  0.5334790000000 1.0
C      1  0.4869070000000  0.5475300000000  0.4635850000000 1.0
C      1  0.4642740000000  0.4638950000000  0.4624370000000 1.0
C      1  0.5483060000000  0.4876590000000  0.4650760000000 1.0
C      1  0.5021430000000  0.5754650000000  0.5107100000000 1.0
C      1  0.4380530000000  0.4666040000000  0.5133530000000 1.0
C      1  0.5639220000000  0.4520880000000  0.5140990000000 1.0
C      1  0.5560300000000  0.5026180000000  0.5391780000000 1.0
C      1  0.4730570000000  0.5489140000000  0.5451540000000 1.0
C      1  0.4707450000000  0.4489650000000  0.5422350000000 1.0
C      1  0.5492940000000  0.5604860000000  0.4851340000000 1.0
C      1  0.4339170000000  0.5070890000000  0.4804760000000 1.0
C      1  0.5271530000000  0.4460590000000  0.4851430000000 1.0
C      1  0.4866150000000  0.4459820000000  0.4675890000000 1.0
C      1  0.5546780000000  0.5150640000000  0.4668520000000 1.0
C      1  0.4596120000000  0.5387580000000  0.4680280000000 1.0
C      1  0.5647150000000  0.5020060000000  0.5113390000000 1.0
C      1  0.4637800000000  0.5444840000000  0.5196820000000 1.0
C      1  0.4785170000000  0.4346200000000  0.5202620000000 1.0
C      1  0.5035430000000  0.5153000000000  0.4266560000000 1.0
C      1  0.4850810000000  0.4937650000000  0.4275350000000 1.0
C      1  0.5126830000000  0.4893140000000  0.4283320000000 1.0
C      1  0.5142360000000  0.4517540000000  0.4596850000000 1.0
C      1  0.5349460000000  0.5358780000000  0.4576440000000 1.0
C      1  0.4492900000000  0.5134540000000  0.4563610000000 1.0
C      1  0.5546030000000  0.4782890000000  0.4951430000000 1.0
C      1  0.4995140000000  0.5546180000000  0.4895250000000 1.0
C      1  0.4531170000000  0.4665010000000  0.4901080000000 1.0
C      1  0.5629710000000  0.5507360000000  0.5074560000000 1.0
C      1  0.4275560000000  0.5249610000000  0.5028390000000 1.0
C      1  0.5155780000000  0.4260260000000  0.5026660000000 1.0
C      1  0.5453570000000  0.5519640000000  0.5315790000000 1.0
C      1  0.4324360000000  0.5141900000000  0.5295930000000 1.0
C      1  0.5215080000000  0.4332380000000  0.5301540000000 1.0
C      1  0.4909120000000  0.4883140000000  0.5355420000000 1.0
C      1  0.5131690000000  0.4938380000000  0.5536090000000 1.0
C      1  0.5172450000000  0.5231540000000  0.5572280000000 1.0
C      1  0.5075960000000  0.5354860000000  0.4469270000000 1.0
C      1  0.4646140000000  0.4893300000000  0.4477670000000 1.0
C      1  0.5272330000000  0.4758930000000  0.4494230000000 1.0
C      1  0.5668540000000  0.5238500000000  0.4931820000000 1.0
C      1  0.4479060000000  0.5442960000000  0.4952560000000 1.0
C      1  0.4886070000000  0.4312060000000  0.4932400000000 1.0
C      1  0.5033960000000  0.4869000000000  0.5081710000000 1.0
C      1  0.4876730000000  0.5029820000000  0.4881800000000 1.0
END
