TITL C-2441169-1362-474 0.0906188487827068 125000 -16408.2060029902 0 0 128 (C1) n - 1
REM
REM in /home/bkarasulu/work/CARBON/AIRSS/Generating-Clusters/ReaxFF-fromJPCA2015/Units_Real/with-SteepDescent/Higher-Symm
REM
REM
REM
REM
REM
REM ./C.cell (1df0a924f5614ab8850e4351716899ee)
REM
REM compiler GCC version 9.2.1 20190827 (Red Hat 9.2.1-1)
REM options -cpp -mtune=generic -march=x86-64 -g -O0 -fpre-include=/usr/include/finclude/math-vector-fortran.h
REM seed -212783000 -795304011 -559556553 -1958677133 -843222297 -1586998709 1690184300 -1312721671 849470857 -807431773 -1476969770 1077182810 -71041200 -1548394523 -327529247 -1364193849 -1944729833 -491627427 2052771429 935052010 -1850756707 -271661213 -1103208694 1192848821 206206348 -2021999145 837251577 1872916045 -1273121804 -1094367823 2083174579 -1447284495 747885070
REM
CELL 1.54180   50.00000   50.00000   50.00000   90.00000   90.00000   90.00000
LATT -1
SFAC C  
C      1  0.4656430000000  0.4098100000000  0.4974080000000 1.0
C      1  0.4866260000000  0.4091540000000  0.4645880000000 1.0
C      1  0.5221430000000  0.4106880000000  0.4843130000000 1.0
C      1  0.5280070000000  0.4093330000000  0.5251420000000 1.0
C      1  0.4888480000000  0.4102920000000  0.5316370000000 1.0
C      1  0.4671390000000  0.5920970000000  0.4961930000000 1.0
C      1  0.4915850000000  0.5919380000000  0.4642390000000 1.0
C      1  0.5288950000000  0.5887950000000  0.4791600000000 1.0
C      1  0.5331310000000  0.5871290000000  0.5305070000000 1.0
C      1  0.4889760000000  0.5886170000000  0.5296840000000 1.0
C      1  0.5614360000000  0.5624600000000  0.4719200000000 1.0
C      1  0.5397000000000  0.5594380000000  0.5409610000000 1.0
C      1  0.4752780000000  0.5519600000000  0.5505000000000 1.0
C      1  0.4434970000000  0.5579010000000  0.4895940000000 1.0
C      1  0.4871970000000  0.5509340000000  0.4423800000000 1.0
C      1  0.5471740000000  0.4478160000000  0.4751740000000 1.0
C      1  0.5384970000000  0.4475730000000  0.5401320000000 1.0
C      1  0.4651360000000  0.4434420000000  0.5602650000000 1.0
C      1  0.4337380000000  0.4428990000000  0.4853160000000 1.0
C      1  0.4890770000000  0.4473480000000  0.4425670000000 1.0
C      1  0.5094460000000  0.5873590000000  0.5484390000000 1.0
C      1  0.4618690000000  0.5861830000000  0.5238570000000 1.0
C      1  0.4640720000000  0.5866690000000  0.4682370000000 1.0
C      1  0.5133190000000  0.5808820000000  0.4611530000000 1.0
C      1  0.5436980000000  0.5858970000000  0.5026030000000 1.0
C      1  0.5112500000000  0.4154150000000  0.5435600000000 1.0
C      1  0.4700080000000  0.4213880000000  0.5193830000000 1.0
C      1  0.4636800000000  0.4164870000000  0.4722320000000 1.0
C      1  0.5116330000000  0.4173420000000  0.4603830000000 1.0
C      1  0.5445680000000  0.4132070000000  0.5035920000000 1.0
C      1  0.5387550000000  0.5236270000000  0.4504120000000 1.0
C      1  0.5657450000000  0.5131440000000  0.5279980000000 1.0
C      1  0.5010800000000  0.5207060000000  0.5544270000000 1.0
C      1  0.4328630000000  0.5217940000000  0.5034120000000 1.0
C      1  0.4834920000000  0.5226040000000  0.4461710000000 1.0
C      1  0.5550090000000  0.4875480000000  0.4548740000000 1.0
C      1  0.5624300000000  0.4884980000000  0.5192320000000 1.0
C      1  0.4961020000000  0.4947940000000  0.5698200000000 1.0
C      1  0.4352720000000  0.4857800000000  0.5188920000000 1.0
C      1  0.4713460000000  0.4827350000000  0.4512270000000 1.0
C      1  0.5165590000000  0.4390660000000  0.4403820000000 1.0
C      1  0.5622390000000  0.4362830000000  0.4974620000000 1.0
C      1  0.5206240000000  0.4371620000000  0.5607560000000 1.0
C      1  0.4494700000000  0.4365010000000  0.5397300000000 1.0
C      1  0.4465490000000  0.4398550000000  0.4628700000000 1.0
C      1  0.5147890000000  0.5608340000000  0.4407690000000 1.0
C      1  0.5653870000000  0.5647700000000  0.4981110000000 1.0
C      1  0.5211330000000  0.5640620000000  0.5638310000000 1.0
C      1  0.4498680000000  0.5618550000000  0.5414190000000 1.0
C      1  0.4461910000000  0.5601880000000  0.4614070000000 1.0
C      1  0.4792470000000  0.4527620000000  0.5821450000000 1.0
C      1  0.4174800000000  0.4513690000000  0.5057210000000 1.0
C      1  0.4690480000000  0.4540300000000  0.4217700000000 1.0
C      1  0.5598300000000  0.4489960000000  0.4482630000000 1.0
C      1  0.5669850000000  0.4537370000000  0.5430200000000 1.0
C      1  0.4805240000000  0.5465460000000  0.5782410000000 1.0
C      1  0.4206410000000  0.5483720000000  0.5049890000000 1.0
C      1  0.4669170000000  0.5489920000000  0.4203490000000 1.0
C      1  0.5652070000000  0.5525860000000  0.4465000000000 1.0
C      1  0.5688570000000  0.5500980000000  0.5443360000000 1.0
C      1  0.4606380000000  0.4757740000000  0.5855630000000 1.0
C      1  0.4096580000000  0.4757060000000  0.4902390000000 1.0
C      1  0.4791300000000  0.4796780000000  0.4107350000000 1.0
C      1  0.5778930000000  0.4702900000000  0.4563100000000 1.0
C      1  0.5694740000000  0.4770070000000  0.5611280000000 1.0
C      1  0.4626310000000  0.5252030000000  0.5853330000000 1.0
C      1  0.4018630000000  0.5322920000000  0.4823390000000 1.0
C      1  0.4848970000000  0.5322470000000  0.4056220000000 1.0
C      1  0.5817400000000  0.5295660000000  0.4541640000000 1.0
C      1  0.5681320000000  0.5290170000000  0.5637930000000 1.0
C      1  0.5101240000000  0.5462500000000  0.5847850000000 1.0
C      1  0.4266410000000  0.5449100000000  0.5379470000000 1.0
C      1  0.4438860000000  0.5421960000000  0.4381740000000 1.0
C      1  0.5384890000000  0.5457880000000  0.4318640000000 1.0
C      1  0.5817850000000  0.5489380000000  0.5182750000000 1.0
C      1  0.5091650000000  0.4548830000000  0.5803220000000 1.0
C      1  0.4245460000000  0.4515120000000  0.5351510000000 1.0
C      1  0.4442180000000  0.4598120000000  0.4380810000000 1.0
C      1  0.5385350000000  0.4570940000000  0.4297750000000 1.0
C      1  0.5790010000000  0.4510790000000  0.5164770000000 1.0
C      1  0.4274100000000  0.4789800000000  0.5457110000000 1.0
C      1  0.4300430000000  0.4855690000000  0.4398860000000 1.0
C      1  0.5354830000000  0.4833770000000  0.4152600000000 1.0
C      1  0.5863930000000  0.4776730000000  0.5072010000000 1.0
C      1  0.5203040000000  0.4809810000000  0.5860260000000 1.0
C      1  0.4220930000000  0.5192690000000  0.5478720000000 1.0
C      1  0.4295890000000  0.5160770000000  0.4383230000000 1.0
C      1  0.5360770000000  0.5131410000000  0.4128360000000 1.0
C      1  0.5868500000000  0.5231640000000  0.5076230000000 1.0
C      1  0.5214570000000  0.5205270000000  0.5891840000000 1.0
C      1  0.4441170000000  0.5153260000000  0.5634350000000 1.0
C      1  0.4209630000000  0.5167530000000  0.4660660000000 1.0
C      1  0.5079160000000  0.5157840000000  0.4075100000000 1.0
C      1  0.5855540000000  0.5150820000000  0.4798610000000 1.0
C      1  0.5395140000000  0.5161940000000  0.5672890000000 1.0
C      1  0.4516500000000  0.4850580000000  0.5593050000000 1.0
C      1  0.4215600000000  0.4876300000000  0.4665850000000 1.0
C      1  0.5064170000000  0.4842880000000  0.4223920000000 1.0
C      1  0.5865470000000  0.4857990000000  0.4790870000000 1.0
C      1  0.5447100000000  0.4872240000000  0.5721900000000 1.0
C      1  0.4576810000000  0.4870190000000  0.5008880000000 1.0
C      1  0.5005510000000  0.4841510000000  0.4528990000000 1.0
C      1  0.5367860000000  0.4928760000000  0.4762900000000 1.0
C      1  0.5346070000000  0.4881970000000  0.5182740000000 1.0
C      1  0.4808560000000  0.4875180000000  0.5426060000000 1.0
C      1  0.4563530000000  0.5138590000000  0.4912500000000 1.0
C      1  0.4988610000000  0.5082110000000  0.4643000000000 1.0
C      1  0.5334350000000  0.5222560000000  0.4779380000000 1.0
C      1  0.5322790000000  0.5152740000000  0.5289090000000 1.0
C      1  0.4838050000000  0.5151850000000  0.5332620000000 1.0
C      1  0.5186220000000  0.5429000000000  0.4920180000000 1.0
C      1  0.5180840000000  0.5399430000000  0.5202840000000 1.0
C      1  0.4891750000000  0.5427460000000  0.5253100000000 1.0
C      1  0.4730120000000  0.5536630000000  0.5033390000000 1.0
C      1  0.4786070000000  0.5307360000000  0.4903580000000 1.0
C      1  0.5242920000000  0.4666000000000  0.4788310000000 1.0
C      1  0.5212160000000  0.4634050000000  0.5234460000000 1.0
C      1  0.4926890000000  0.4670740000000  0.5249410000000 1.0
C      1  0.4790710000000  0.4677090000000  0.5005250000000 1.0
C      1  0.4943680000000  0.4543670000000  0.4787420000000 1.0
C      1  0.4129850000000  0.5005670000000  0.5060010000000 1.0
C      1  0.5626860000000  0.5109550000000  0.4404180000000 1.0
C      1  0.4752430000000  0.4998980000000  0.5906180000000 1.0
C      1  0.4688860000000  0.5016770000000  0.4286240000000 1.0
C      1  0.5787050000000  0.5039780000000  0.5547200000000 1.0
C      1  0.4991490000000  0.5638910000000  0.4940540000000 1.0
C      1  0.5018360000000  0.4331640000000  0.4980290000000 1.0
C      1  0.4969740000000  0.5079670000000  0.4950250000000 1.0
END
