TITL C-2441163-1170-921 0.00200576764943618 125000 -3126.55049978538 0 0 24 (C1) n - 1
REM
REM in /home/bkarasulu/work/CARBON/AIRSS/Generating-Clusters/ReaxFF-fromJPCA2015/Units_Real/with-SteepDescent/Higher-Symm
REM
REM
REM
REM
REM
REM ./C.cell (1df0a924f5614ab8850e4351716899ee)
REM
REM compiler GCC version 9.2.1 20190827 (Red Hat 9.2.1-1)
REM options -cpp -mtune=generic -march=x86-64 -g -O0 -fpre-include=/usr/include/finclude/math-vector-fortran.h
REM seed 508210148 -1019714047 -1687933161 889091563 1575240566 1820998086 -620013272 1514584985 -1976842157 -1825884863 491042425 472604741 -1146958432 129978522 1393644192 -275388294 -359593822 1851078668 1956521560 1643994532 -318941105 1977150466 126185417 1912385116 -411613557 1446314193 -1910315720 -186659486 -473478928 -1096823129 -1313322575 -1904527559 -2000696688
REM
CELL 1.54180   50.00000   50.00000   50.00000   90.00000   90.00000   90.00000
LATT -1
SFAC C  
C      1  0.5203340000000  0.5366620000000  0.4995700000000 1.0
C      1  0.5127060000000  0.4609620000000  0.4686650000000 1.0
C      1  0.4922430000000  0.5359770000000  0.5126690000000 1.0
C      1  0.4619360000000  0.4800720000000  0.5553310000000 1.0
C      1  0.4433660000000  0.4939390000000  0.4813340000000 1.0
C      1  0.5672770000000  0.5151730000000  0.5071000000000 1.0
C      1  0.5276520000000  0.4541000000000  0.5391440000000 1.0
C      1  0.4873900000000  0.5053430000000  0.4474680000000 1.0
C      1  0.5208760000000  0.5262440000000  0.4730770000000 1.0
C      1  0.5101290000000  0.5013520000000  0.4658530000000 1.0
C      1  0.4580270000000  0.4967270000000  0.4584160000000 1.0
C      1  0.4855500000000  0.4905130000000  0.5391820000000 1.0
C      1  0.5320890000000  0.4787000000000  0.4583590000000 1.0
C      1  0.4746190000000  0.5099420000000  0.5198060000000 1.0
C      1  0.4855160000000  0.5584540000000  0.5025620000000 1.0
C      1  0.5088380000000  0.5399440000000  0.4517300000000 1.0
C      1  0.4765420000000  0.4516470000000  0.5292290000000 1.0
C      1  0.5427660000000  0.5290810000000  0.5158220000000 1.0
C      1  0.5408520000000  0.4791930000000  0.5352570000000 1.0
C      1  0.4574410000000  0.5011090000000  0.5006370000000 1.0
C      1  0.4999780000000  0.4663390000000  0.5289780000000 1.0
C      1  0.4501570000000  0.4549570000000  0.5415420000000 1.0
C      1  0.5530850000000  0.5024310000000  0.5315970000000 1.0
C      1  0.4906300000000  0.5311360000000  0.4366720000000 1.0
END
