TITL C-2441165-58-1228 0.162869081290078 125000 -24857.5183067366 0 0 192 (C1) n - 1
REM
REM in /home/bkarasulu/work/CARBON/AIRSS/Generating-Clusters/ReaxFF-fromJPCA2015/Units_Real/with-SteepDescent/Higher-Symm
REM
REM
REM
REM
REM
REM ./C.cell (1df0a924f5614ab8850e4351716899ee)
REM
REM compiler GCC version 9.2.1 20190827 (Red Hat 9.2.1-1)
REM options -cpp -mtune=generic -march=x86-64 -g -O0 -fpre-include=/usr/include/finclude/math-vector-fortran.h
REM seed 1564997572 -760119738 2034493087 -1593535839 -2065904862 417290348 -266871708 1233286285 1212892182 1262095866 -957197371 963926725 1263149545 169628450 -1206077761 34498852 -139489759 -1019091817 1775759523 -879224888 2136721963 -789318204 -278168381 -737585989 -1263022115 709438442 655791688 -1805143471 -1399933554 1794099478 -463140756 802636397 -2016226971
REM
CELL 1.54180   50.00000   50.00000   50.00000   90.00000   90.00000   90.00000
LATT -1
SFAC C  
C      1  0.4915190000000  0.5994780000000  0.4735160000000 1.0
C      1  0.5612500000000  0.4841980000000  0.4095250000000 1.0
C      1  0.4472940000000  0.4790320000000  0.5912000000000 1.0
C      1  0.4521510000000  0.5577710000000  0.4883630000000 1.0
C      1  0.4834120000000  0.4645660000000  0.4398890000000 1.0
C      1  0.4855640000000  0.5251320000000  0.5108490000000 1.0
C      1  0.5036630000000  0.5557580000000  0.4926530000000 1.0
C      1  0.4937100000000  0.5928180000000  0.5561090000000 1.0
C      1  0.4793700000000  0.4485330000000  0.4151100000000 1.0
C      1  0.4820640000000  0.4063800000000  0.4348460000000 1.0
C      1  0.5369140000000  0.4973940000000  0.4729860000000 1.0
C      1  0.5514750000000  0.4053680000000  0.5261120000000 1.0
C      1  0.4240700000000  0.4797440000000  0.4360970000000 1.0
C      1  0.4667460000000  0.5570370000000  0.4634670000000 1.0
C      1  0.6103310000000  0.4866390000000  0.5406460000000 1.0
C      1  0.4392270000000  0.5210070000000  0.5241360000000 1.0
C      1  0.4915250000000  0.5476340000000  0.4680640000000 1.0
C      1  0.5181820000000  0.5311910000000  0.6007460000000 1.0
C      1  0.5653700000000  0.4574250000000  0.5106690000000 1.0
C      1  0.5701670000000  0.5626290000000  0.4419250000000 1.0
C      1  0.4328790000000  0.4572130000000  0.5717750000000 1.0
C      1  0.5254500000000  0.5388840000000  0.4830330000000 1.0
C      1  0.5695610000000  0.5837960000000  0.4931750000000 1.0
C      1  0.4449590000000  0.4337070000000  0.5594880000000 1.0
C      1  0.4039090000000  0.4517620000000  0.4729560000000 1.0
C      1  0.5445510000000  0.5435060000000  0.5265370000000 1.0
C      1  0.4424230000000  0.4124670000000  0.5151070000000 1.0
C      1  0.5282090000000  0.5943110000000  0.4938220000000 1.0
C      1  0.4598740000000  0.3918910000000  0.5057310000000 1.0
C      1  0.4140640000000  0.5248680000000  0.4333930000000 1.0
C      1  0.4081530000000  0.4892810000000  0.5465730000000 1.0
C      1  0.4405330000000  0.4323160000000  0.4424700000000 1.0
C      1  0.4368550000000  0.4292370000000  0.4942340000000 1.0
C      1  0.4966070000000  0.5675020000000  0.5718500000000 1.0
C      1  0.5209920000000  0.4378740000000  0.5899730000000 1.0
C      1  0.4782510000000  0.5157260000000  0.4660680000000 1.0
C      1  0.4425510000000  0.5198990000000  0.4230720000000 1.0
C      1  0.5223890000000  0.4361460000000  0.4395160000000 1.0
C      1  0.4492710000000  0.5304600000000  0.5914900000000 1.0
C      1  0.5164310000000  0.4457470000000  0.5223360000000 1.0
C      1  0.5959880000000  0.5027530000000  0.5611960000000 1.0
C      1  0.5735780000000  0.4777640000000  0.5287240000000 1.0
C      1  0.4468630000000  0.5491030000000  0.5673520000000 1.0
C      1  0.4103850000000  0.4620340000000  0.5544790000000 1.0
C      1  0.5001430000000  0.5648290000000  0.5201810000000 1.0
C      1  0.5461410000000  0.5763170000000  0.5110510000000 1.0
C      1  0.5138960000000  0.3915420000000  0.4596040000000 1.0
C      1  0.5486090000000  0.4389670000000  0.4325570000000 1.0
C      1  0.5105930000000  0.5863810000000  0.4531110000000 1.0
C      1  0.6020150000000  0.4753480000000  0.4627490000000 1.0
C      1  0.5127930000000  0.4606430000000  0.4483140000000 1.0
C      1  0.4928220000000  0.4661530000000  0.3955520000000 1.0
C      1  0.4955050000000  0.5135590000000  0.4255530000000 1.0
C      1  0.5968950000000  0.5409170000000  0.4799700000000 1.0
C      1  0.4597160000000  0.5132890000000  0.3969210000000 1.0
C      1  0.5471590000000  0.5189620000000  0.5807990000000 1.0
C      1  0.4630580000000  0.3955170000000  0.4775350000000 1.0
C      1  0.4429030000000  0.5696360000000  0.5308830000000 1.0
C      1  0.5627800000000  0.4344440000000  0.4568580000000 1.0
C      1  0.4028290000000  0.5617560000000  0.5192550000000 1.0
C      1  0.5223100000000  0.5158950000000  0.3854540000000 1.0
C      1  0.5516350000000  0.5456720000000  0.4767950000000 1.0
C      1  0.4719430000000  0.4869590000000  0.3967960000000 1.0
C      1  0.4757060000000  0.4986610000000  0.5090420000000 1.0
C      1  0.4803700000000  0.5857690000000  0.4168880000000 1.0
C      1  0.5917450000000  0.5446930000000  0.4514370000000 1.0
C      1  0.4965770000000  0.6069990000000  0.5015690000000 1.0
C      1  0.5194080000000  0.5108070000000  0.4382660000000 1.0
C      1  0.4558890000000  0.5475750000000  0.4372280000000 1.0
C      1  0.5472580000000  0.5225480000000  0.4251440000000 1.0
C      1  0.5676330000000  0.5042200000000  0.4307590000000 1.0
C      1  0.4660190000000  0.5602780000000  0.4120240000000 1.0
C      1  0.5893340000000  0.4431620000000  0.5178740000000 1.0
C      1  0.4332490000000  0.5051090000000  0.5894570000000 1.0
C      1  0.4854370000000  0.4016310000000  0.5482010000000 1.0
C      1  0.5578000000000  0.4754880000000  0.5905960000000 1.0
C      1  0.6077280000000  0.4937200000000  0.5122920000000 1.0
C      1  0.5133590000000  0.5153650000000  0.5130590000000 1.0
C      1  0.5600760000000  0.4663860000000  0.4850190000000 1.0
C      1  0.5889860000000  0.5317670000000  0.5593850000000 1.0
C      1  0.5657280000000  0.5002590000000  0.4775900000000 1.0
C      1  0.5309630000000  0.4694450000000  0.4760110000000 1.0
C      1  0.4752700000000  0.4905040000000  0.4281730000000 1.0
C      1  0.4632180000000  0.6049810000000  0.4641020000000 1.0
C      1  0.4702870000000  0.5002100000000  0.5559980000000 1.0
C      1  0.5135620000000  0.4712290000000  0.5032740000000 1.0
C      1  0.4895460000000  0.4835790000000  0.4948580000000 1.0
C      1  0.5388120000000  0.4570430000000  0.5776070000000 1.0
C      1  0.4705870000000  0.4630440000000  0.4677550000000 1.0
C      1  0.4858250000000  0.4394790000000  0.5219960000000 1.0
C      1  0.5929930000000  0.5496740000000  0.5332240000000 1.0
C      1  0.5033580000000  0.4748680000000  0.5643620000000 1.0
C      1  0.4710080000000  0.4527810000000  0.5884390000000 1.0
C      1  0.4842090000000  0.4543690000000  0.5623240000000 1.0
C      1  0.5545430000000  0.4015860000000  0.4963290000000 1.0
C      1  0.3949390000000  0.5254610000000  0.5029620000000 1.0
C      1  0.4051270000000  0.4352980000000  0.5228380000000 1.0
C      1  0.5211790000000  0.4827100000000  0.4312640000000 1.0
C      1  0.4959640000000  0.5488140000000  0.5966370000000 1.0
C      1  0.4858020000000  0.4887500000000  0.4712110000000 1.0
C      1  0.4826360000000  0.3876300000000  0.5230000000000 1.0
C      1  0.4039110000000  0.5413170000000  0.4812320000000 1.0
C      1  0.5969490000000  0.4607540000000  0.5402320000000 1.0
C      1  0.5501660000000  0.6100470000000  0.4860340000000 1.0
C      1  0.4727020000000  0.4962960000000  0.5846010000000 1.0
C      1  0.3938220000000  0.4608050000000  0.5213910000000 1.0
C      1  0.4974410000000  0.4231630000000  0.4927590000000 1.0
C      1  0.4526870000000  0.4225730000000  0.4714210000000 1.0
C      1  0.4655190000000  0.4594770000000  0.5216930000000 1.0
C      1  0.5178720000000  0.5155180000000  0.4664190000000 1.0
C      1  0.4093870000000  0.4318860000000  0.4927650000000 1.0
C      1  0.5503780000000  0.5634710000000  0.5758740000000 1.0
C      1  0.4094630000000  0.4972030000000  0.4966780000000 1.0
C      1  0.5817180000000  0.4539180000000  0.4680030000000 1.0
C      1  0.4356450000000  0.5904210000000  0.4620490000000 1.0
C      1  0.4770900000000  0.5408600000000  0.5572020000000 1.0
C      1  0.4753420000000  0.4287600000000  0.5476120000000 1.0
C      1  0.5825920000000  0.5088150000000  0.5169870000000 1.0
C      1  0.5905360000000  0.5172360000000  0.4417730000000 1.0
C      1  0.5495790000000  0.5519090000000  0.4245330000000 1.0
C      1  0.4232830000000  0.5320770000000  0.5489090000000 1.0
C      1  0.4483040000000  0.5776400000000  0.5577810000000 1.0
C      1  0.5581110000000  0.4780210000000  0.5502870000000 1.0
C      1  0.5495190000000  0.4273150000000  0.4825340000000 1.0
C      1  0.4711870000000  0.4848960000000  0.5330170000000 1.0
C      1  0.4314720000000  0.4956480000000  0.4768740000000 1.0
C      1  0.5713490000000  0.5281190000000  0.4885870000000 1.0
C      1  0.4666740000000  0.5276090000000  0.5338640000000 1.0
C      1  0.4672670000000  0.5988760000000  0.5465980000000 1.0
C      1  0.5346010000000  0.3891080000000  0.4793130000000 1.0
C      1  0.4967240000000  0.4514550000000  0.6014040000000 1.0
C      1  0.5603680000000  0.5709560000000  0.4679610000000 1.0
C      1  0.5314950000000  0.5295910000000  0.5060820000000 1.0
C      1  0.5217410000000  0.4909250000000  0.5217190000000 1.0
C      1  0.5047560000000  0.3945550000000  0.5057760000000 1.0
C      1  0.4164380000000  0.5093590000000  0.5665490000000 1.0
C      1  0.4403370000000  0.5329440000000  0.4971330000000 1.0
C      1  0.5297300000000  0.4178690000000  0.5697480000000 1.0
C      1  0.4268150000000  0.4917590000000  0.5209320000000 1.0
C      1  0.5013190000000  0.5247720000000  0.5553150000000 1.0
C      1  0.5496880000000  0.4238740000000  0.5490410000000 1.0
C      1  0.4408210000000  0.4657920000000  0.5085330000000 1.0
C      1  0.5180760000000  0.5459410000000  0.5425380000000 1.0
C      1  0.5455270000000  0.4994740000000  0.6027170000000 1.0
C      1  0.5203990000000  0.5583880000000  0.4217640000000 1.0
C      1  0.5474880000000  0.4588320000000  0.4105250000000 1.0
C      1  0.4763460000000  0.5275800000000  0.5988490000000 1.0
C      1  0.5402870000000  0.4520360000000  0.5484180000000 1.0
C      1  0.6118610000000  0.4735180000000  0.4904680000000 1.0
C      1  0.3938120000000  0.4698940000000  0.4937910000000 1.0
C      1  0.3986640000000  0.5374870000000  0.5307590000000 1.0
C      1  0.5130550000000  0.5578800000000  0.4511510000000 1.0
C      1  0.4720140000000  0.6005330000000  0.5167340000000 1.0
C      1  0.4679510000000  0.5713980000000  0.5147090000000 1.0
C      1  0.5211590000000  0.4711560000000  0.4043140000000 1.0
C      1  0.4992860000000  0.4822150000000  0.5921170000000 1.0
C      1  0.4778170000000  0.4353440000000  0.4753030000000 1.0
C      1  0.5148260000000  0.4961370000000  0.5488610000000 1.0
C      1  0.6018800000000  0.4465810000000  0.4918320000000 1.0
C      1  0.4619220000000  0.4261760000000  0.4242050000000 1.0
C      1  0.5172130000000  0.5035610000000  0.6069590000000 1.0
C      1  0.5607960000000  0.5193870000000  0.5338940000000 1.0
C      1  0.4121200000000  0.5471060000000  0.4541390000000 1.0
C      1  0.5792800000000  0.4809450000000  0.5715800000000 1.0
C      1  0.4299490000000  0.5769600000000  0.4866800000000 1.0
C      1  0.5412390000000  0.5942270000000  0.5350100000000 1.0
C      1  0.5027720000000  0.5328370000000  0.4042080000000 1.0
C      1  0.6056330000000  0.5519640000000  0.5058150000000 1.0
C      1  0.4207830000000  0.4525440000000  0.4475240000000 1.0
C      1  0.4289660000000  0.4234250000000  0.5385760000000 1.0
C      1  0.4476440000000  0.4950030000000  0.4339160000000 1.0
C      1  0.4675490000000  0.5997840000000  0.4378610000000 1.0
C      1  0.5909570000000  0.4997950000000  0.4627370000000 1.0
C      1  0.5095820000000  0.5873750000000  0.4237900000000 1.0
C      1  0.5246060000000  0.4332200000000  0.4973060000000 1.0
C      1  0.5108090000000  0.4113680000000  0.4371220000000 1.0
C      1  0.4506720000000  0.5165620000000  0.4758780000000 1.0
C      1  0.5246150000000  0.3956410000000  0.5271070000000 1.0
C      1  0.5668200000000  0.5388880000000  0.5765440000000 1.0
C      1  0.4320030000000  0.5666760000000  0.4450030000000 1.0
C      1  0.5534730000000  0.5849370000000  0.5583630000000 1.0
C      1  0.4741020000000  0.5383140000000  0.3951010000000 1.0
C      1  0.5226740000000  0.5607330000000  0.5648120000000 1.0
C      1  0.5470690000000  0.5075840000000  0.3959980000000 1.0
C      1  0.4830960000000  0.3888090000000  0.4581680000000 1.0
C      1  0.5456490000000  0.5044580000000  0.5549210000000 1.0
C      1  0.5891000000000  0.5726990000000  0.5167310000000 1.0
C      1  0.4437900000000  0.4708110000000  0.4802410000000 1.0
C      1  0.4211720000000  0.5822900000000  0.5138300000000 1.0
C      1  0.4006710000000  0.4997870000000  0.4397750000000 1.0
C      1  0.5102080000000  0.5918960000000  0.5316640000000 1.0
C      1  0.5132230000000  0.4016000000000  0.5530890000000 1.0
END
