TITL C-2441162-9305-516 0.00286038708980874 125000 -14209.8525498401 0 0 97 (C1) n - 1
REM
REM in /home/bkarasulu/work/CARBON/AIRSS/Generating-Clusters/ReaxFF-fromJPCA2015/Units_Real/with-SteepDescent/Higher-Symm
REM
REM
REM
REM
REM
REM ./C.cell (1df0a924f5614ab8850e4351716899ee)
REM
REM compiler GCC version 9.2.1 20190827 (Red Hat 9.2.1-1)
REM options -cpp -mtune=generic -march=x86-64 -g -O0 -fpre-include=/usr/include/finclude/math-vector-fortran.h
REM seed 2030659703 230878119 -700766733 -1462842804 290404291 -989663023 1140806811 -1214340946 1637849554 1860632958 1538395062 895698228 773406114 -1884102548 998654490 1366610699 -1215416538 -2050664114 -1873653630 -264839924 -1906558297 -1885778312 1479695401 -190955730 1534612363 -273656349 360836270 893479281 130847924 -1130465800 1815810171 1091380046 339575790
REM
CELL 1.54180   50.00000   50.00000   50.00000   90.00000   90.00000   90.00000
LATT -1
SFAC C  
C      1  0.5227700000000  0.4163650000000  0.5227760000000 1.0
C      1  0.5587130000000  0.5576480000000  0.5209080000000 1.0
C      1  0.4179530000000  0.5222820000000  0.5255710000000 1.0
C      1  0.4806890000000  0.4186420000000  0.4774650000000 1.0
C      1  0.4341990000000  0.5666950000000  0.4738850000000 1.0
C      1  0.5820640000000  0.5209380000000  0.4759280000000 1.0
C      1  0.4792560000000  0.5822530000000  0.4765850000000 1.0
C      1  0.4372940000000  0.4386970000000  0.4764090000000 1.0
C      1  0.5803220000000  0.4793770000000  0.4763390000000 1.0
C      1  0.5227020000000  0.5869500000000  0.5238240000000 1.0
C      1  0.5574870000000  0.4400110000000  0.5214550000000 1.0
C      1  0.4119150000000  0.4755080000000  0.5268480000000 1.0
C      1  0.4184870000000  0.4863090000000  0.5001500000000 1.0
C      1  0.5570590000000  0.4312370000000  0.4957430000000 1.0
C      1  0.5316530000000  0.5853370000000  0.4959680000000 1.0
C      1  0.5845810000000  0.4844500000000  0.5029570000000 1.0
C      1  0.4433400000000  0.4323940000000  0.5045550000000 1.0
C      1  0.4767890000000  0.5616570000000  0.4981920000000 1.0
C      1  0.5861030000000  0.5135620000000  0.5022810000000 1.0
C      1  0.4464490000000  0.5654430000000  0.5008440000000 1.0
C      1  0.4695040000000  0.4194130000000  0.5029070000000 1.0
C      1  0.4335180000000  0.5122370000000  0.5017810000000 1.0
C      1  0.5550160000000  0.5674040000000  0.4962120000000 1.0
C      1  0.5325720000000  0.4149650000000  0.4965690000000 1.0
C      1  0.5016520000000  0.4533720000000  0.4484840000000 1.0
C      1  0.5508410000000  0.5150540000000  0.4373660000000 1.0
C      1  0.4590430000000  0.5276110000000  0.4459600000000 1.0
C      1  0.5068140000000  0.4541220000000  0.5539300000000 1.0
C      1  0.4571250000000  0.5245900000000  0.5499580000000 1.0
C      1  0.5350020000000  0.5315720000000  0.5559640000000 1.0
C      1  0.5136940000000  0.5511390000000  0.5637450000000 1.0
C      1  0.4559980000000  0.4747920000000  0.5537960000000 1.0
C      1  0.5359580000000  0.4712000000000  0.5544260000000 1.0
C      1  0.5007320000000  0.5499690000000  0.4492360000000 1.0
C      1  0.5453860000000  0.4865050000000  0.4449500000000 1.0
C      1  0.4590220000000  0.4766830000000  0.4492690000000 1.0
C      1  0.4118730000000  0.4721460000000  0.4728090000000 1.0
C      1  0.5708000000000  0.4393790000000  0.4681520000000 1.0
C      1  0.5198900000000  0.5939770000000  0.4686120000000 1.0
C      1  0.5855790000000  0.4696890000000  0.5310760000000 1.0
C      1  0.4293040000000  0.4372770000000  0.5317460000000 1.0
C      1  0.4831780000000  0.5717540000000  0.5282110000000 1.0
C      1  0.5863440000000  0.5284050000000  0.5318140000000 1.0
C      1  0.4310650000000  0.5653660000000  0.5277320000000 1.0
C      1  0.4826560000000  0.4099310000000  0.5306630000000 1.0
C      1  0.4229820000000  0.5255890000000  0.4742870000000 1.0
C      1  0.5670570000000  0.5589090000000  0.4679370000000 1.0
C      1  0.5189910000000  0.4077370000000  0.4687090000000 1.0
C      1  0.4997450000000  0.4710150000000  0.4250530000000 1.0
C      1  0.5259740000000  0.5157810000000  0.4218580000000 1.0
C      1  0.4752770000000  0.5158500000000  0.4244440000000 1.0
C      1  0.4981240000000  0.4717650000000  0.5771180000000 1.0
C      1  0.4735500000000  0.5159880000000  0.5727210000000 1.0
C      1  0.5242230000000  0.5141750000000  0.5801830000000 1.0
C      1  0.4994290000000  0.5298030000000  0.5784410000000 1.0
C      1  0.4727110000000  0.4864780000000  0.5752480000000 1.0
C      1  0.5238580000000  0.4852210000000  0.5788020000000 1.0
C      1  0.5005940000000  0.5309120000000  0.4268710000000 1.0
C      1  0.5245360000000  0.4864100000000  0.4219920000000 1.0
C      1  0.4741900000000  0.4862930000000  0.4259630000000 1.0
C      1  0.4981840000000  0.4714770000000  0.5311590000000 1.0
C      1  0.5202890000000  0.5159940000000  0.5336380000000 1.0
C      1  0.4648430000000  0.5113850000000  0.5245620000000 1.0
C      1  0.5023020000000  0.4729680000000  0.4701510000000 1.0
C      1  0.4737450000000  0.5173080000000  0.4689110000000 1.0
C      1  0.5172170000000  0.5159910000000  0.4807200000000 1.0
C      1  0.4950960000000  0.5371450000000  0.4751510000000 1.0
C      1  0.4755090000000  0.4879560000000  0.4708350000000 1.0
C      1  0.5255200000000  0.4908680000000  0.4688030000000 1.0
C      1  0.4939260000000  0.5205580000000  0.5209280000000 1.0
C      1  0.5231680000000  0.4869780000000  0.5316880000000 1.0
C      1  0.4711880000000  0.4822380000000  0.5300980000000 1.0
C      1  0.5058760000000  0.4217830000000  0.5444960000000 1.0
C      1  0.5644810000000  0.5441580000000  0.5439640000000 1.0
C      1  0.4317780000000  0.5403940000000  0.5451080000000 1.0
C      1  0.4973700000000  0.4233460000000  0.4547440000000 1.0
C      1  0.4344430000000  0.5435120000000  0.4538260000000 1.0
C      1  0.5706250000000  0.5330460000000  0.4527390000000 1.0
C      1  0.4981750000000  0.5798470000000  0.4529710000000 1.0
C      1  0.4341450000000  0.4602800000000  0.4558540000000 1.0
C      1  0.5707520000000  0.4652900000000  0.4544540000000 1.0
C      1  0.5066650000000  0.5746610000000  0.5460470000000 1.0
C      1  0.5625610000000  0.4564940000000  0.5433020000000 1.0
C      1  0.4288450000000  0.4623000000000  0.5483860000000 1.0
C      1  0.4394610000000  0.5807700000000  0.5493870000000 1.0
C      1  0.4672680000000  0.4146210000000  0.5525930000000 1.0
C      1  0.5891500000000  0.5143800000000  0.5552600000000 1.0
C      1  0.5562580000000  0.5708760000000  0.4469810000000 1.0
C      1  0.5366650000000  0.4138680000000  0.4484820000000 1.0
C      1  0.4100580000000  0.5109370000000  0.4554770000000 1.0
C      1  0.5581760000000  0.4281680000000  0.4465870000000 1.0
C      1  0.5369610000000  0.5879330000000  0.4477330000000 1.0
C      1  0.4029210000000  0.4865860000000  0.4508570000000 1.0
C      1  0.4437650000000  0.4252610000000  0.5518420000000 1.0
C      1  0.4652500000000  0.5801820000000  0.5460360000000 1.0
C      1  0.5887010000000  0.4898830000000  0.5496240000000 1.0
C      1  0.5006230000000  0.5023510000000  0.5000190000000 1.0
END
