TITL C-2441154-10-1010 -0.00892272238124923 125000 -3197.41354908084 0 0 20 (Ih) n - 1
REM
REM in /home/bkarasulu/work/CARBON/AIRSS/Generating-Clusters/ReaxFF-fromJPCA2015/Units_Real/with-SteepDescent/Higher-Symm
REM
REM
REM
REM
REM
REM ./C.cell (1df0a924f5614ab8850e4351716899ee)
REM
REM compiler GCC version 9.2.1 20190827 (Red Hat 9.2.1-1)
REM options -cpp -mtune=generic -march=x86-64 -g -O0 -fpre-include=/usr/include/finclude/math-vector-fortran.h
REM seed 483329686 1468607198 1919941746 1490900009 1244560641 -1114478689 1090214647 -1755137455 1546401908 -2145770521 1416989253 -304664367 -1378239230 -886448539 -962152422 1241030228 -2115638382 -1563847900 553802547 1630960255 -434325379 1240351506 -1139867961 822553202 -916377980 -440497895 -2078657692 -2001237548 1046490356 586335057 -1098581894 359160793 976737460
REM
CELL 1.54180   50.00000   50.00000   50.00000   90.00000   90.00000   90.00000
LATT -1
SFAC C  
C      1  0.4989980000000  0.4603820000000  0.5143720000000 1.0
C      1  0.5138430000000  0.4985250000000  0.4613840000000 1.0
C      1  0.4608560000000  0.5133700000000  0.4995270000000 1.0
C      1  0.4989980000000  0.4603820000000  0.4846820000000 1.0
C      1  0.4989980000000  0.5366680000000  0.4846820000000 1.0
C      1  0.4989980000000  0.5366680000000  0.5143720000000 1.0
C      1  0.4841530000000  0.4985250000000  0.5376690000000 1.0
C      1  0.5138430000000  0.4985250000000  0.5376690000000 1.0
C      1  0.4841530000000  0.4985250000000  0.4613840000000 1.0
C      1  0.5371410000000  0.5133700000000  0.4995270000000 1.0
C      1  0.4608560000000  0.4836800000000  0.4995270000000 1.0
C      1  0.5371410000000  0.4836800000000  0.4995270000000 1.0
C      1  0.4749380000000  0.4744650000000  0.4754670000000 1.0
C      1  0.5230580000000  0.4744650000000  0.5235870000000 1.0
C      1  0.4749380000000  0.5225850000000  0.5235870000000 1.0
C      1  0.5230580000000  0.5225850000000  0.4754670000000 1.0
C      1  0.4749380000000  0.5225850000000  0.4754670000000 1.0
C      1  0.5230580000000  0.5225850000000  0.5235870000000 1.0
C      1  0.4749380000000  0.4744650000000  0.5235870000000 1.0
C      1  0.5230580000000  0.4744650000000  0.4754670000000 1.0
END
