TITL C-2441166-8118-570 0.15513799453124 125000 -20730.1015796385 0 0 165 (C1) n - 1
REM
REM in /home/bkarasulu/work/CARBON/AIRSS/Generating-Clusters/ReaxFF-fromJPCA2015/Units_Real/with-SteepDescent/Higher-Symm
REM
REM
REM
REM
REM
REM ./C.cell (1df0a924f5614ab8850e4351716899ee)
REM
REM compiler GCC version 9.2.1 20190827 (Red Hat 9.2.1-1)
REM options -cpp -mtune=generic -march=x86-64 -g -O0 -fpre-include=/usr/include/finclude/math-vector-fortran.h
REM seed -2023252563 -759395364 1274959783 -2021664341 -1853354332 1860258753 1009758374 1379401824 1081729214 211547314 2023704963 1734111725 -752084703 -386993953 -696344898 2090389938 -676377666 1916077017 2144319349 -837153030 1650416684 -990936602 1020780823 2106474064 1208832544 -1106122592 -725653779 -515077439 1041799615 -1183682489 -1915595857 -493765775 1157502133
REM
CELL 1.54180   50.00000   50.00000   50.00000   90.00000   90.00000   90.00000
LATT -1
SFAC C  
C      1  0.4619990000000  0.4733200000000  0.4220720000000 1.0
C      1  0.4613680000000  0.5292340000000  0.4184000000000 1.0
C      1  0.5165940000000  0.5460450000000  0.4162510000000 1.0
C      1  0.5486210000000  0.5005650000000  0.4168480000000 1.0
C      1  0.5135790000000  0.4478080000000  0.4206400000000 1.0
C      1  0.5370470000000  0.4727150000000  0.4224900000000 1.0
C      1  0.5399790000000  0.5278400000000  0.4181720000000 1.0
C      1  0.4875590000000  0.5420360000000  0.4222080000000 1.0
C      1  0.4496530000000  0.5025200000000  0.4188680000000 1.0
C      1  0.4855300000000  0.4483000000000  0.4209240000000 1.0
C      1  0.6010450000000  0.4831150000000  0.4596040000000 1.0
C      1  0.5136900000000  0.3966980000000  0.4599080000000 1.0
C      1  0.4069860000000  0.4498500000000  0.4605380000000 1.0
C      1  0.4217920000000  0.5703090000000  0.4613470000000 1.0
C      1  0.5499210000000  0.5885900000000  0.4605750000000 1.0
C      1  0.3993000000000  0.4772620000000  0.4614090000000 1.0
C      1  0.4856760000000  0.3964940000000  0.4595700000000 1.0
C      1  0.5920450000000  0.4547790000000  0.4607260000000 1.0
C      1  0.5736630000000  0.5716270000000  0.4604490000000 1.0
C      1  0.4469420000000  0.5865600000000  0.4597890000000 1.0
C      1  0.6049080000000  0.5186010000000  0.5343180000000 1.0
C      1  0.5464200000000  0.4103170000000  0.5333180000000 1.0
C      1  0.4282610000000  0.4269810000000  0.5348960000000 1.0
C      1  0.4032850000000  0.5438610000000  0.5322060000000 1.0
C      1  0.5122480000000  0.6029500000000  0.5328550000000 1.0
C      1  0.3915340000000  0.5202420000000  0.5384970000000 1.0
C      1  0.4511610000000  0.4080770000000  0.5329880000000 1.0
C      1  0.5721170000000  0.4259170000000  0.5341510000000 1.0
C      1  0.5939250000000  0.5458940000000  0.5363660000000 1.0
C      1  0.4832160000000  0.6009360000000  0.5300210000000 1.0
C      1  0.4241200000000  0.5412440000000  0.4912750000000 1.0
C      1  0.5127470000000  0.5986230000000  0.4887400000000 1.0
C      1  0.5871320000000  0.5088150000000  0.4886850000000 1.0
C      1  0.5446470000000  0.4173760000000  0.4779480000000 1.0
C      1  0.4352340000000  0.4376860000000  0.4900420000000 1.0
C      1  0.5758080000000  0.5442310000000  0.4893150000000 1.0
C      1  0.4863810000000  0.6011530000000  0.4754850000000 1.0
C      1  0.4087990000000  0.5141340000000  0.4759900000000 1.0
C      1  0.4581290000000  0.4193100000000  0.4788460000000 1.0
C      1  0.5657950000000  0.4372160000000  0.4893710000000 1.0
C      1  0.4505500000000  0.5515610000000  0.5820300000000 1.0
C      1  0.5338150000000  0.5654770000000  0.5858270000000 1.0
C      1  0.5710630000000  0.4874260000000  0.5838050000000 1.0
C      1  0.5127710000000  0.4272990000000  0.5865220000000 1.0
C      1  0.4357800000000  0.4658000000000  0.5820530000000 1.0
C      1  0.5518080000000  0.5486970000000  0.5820830000000 1.0
C      1  0.4703520000000  0.5659680000000  0.5876740000000 1.0
C      1  0.4267850000000  0.4892630000000  0.5842420000000 1.0
C      1  0.4893490000000  0.4285950000000  0.5851080000000 1.0
C      1  0.5636200000000  0.4639360000000  0.5873030000000 1.0
C      1  0.6138100000000  0.4778580000000  0.5103680000000 1.0
C      1  0.5140540000000  0.3880440000000  0.5098140000000 1.0
C      1  0.3965100000000  0.4523360000000  0.5106200000000 1.0
C      1  0.4210510000000  0.5830560000000  0.5114190000000 1.0
C      1  0.5559210000000  0.6006730000000  0.5096790000000 1.0
C      1  0.3863950000000  0.4789500000000  0.5092690000000 1.0
C      1  0.4855980000000  0.3862860000000  0.5093440000000 1.0
C      1  0.6026810000000  0.4517460000000  0.5111780000000 1.0
C      1  0.5789220000000  0.5842920000000  0.5116470000000 1.0
C      1  0.4447410000000  0.5992750000000  0.5095420000000 1.0
C      1  0.6066240000000  0.4893480000000  0.5364770000000 1.0
C      1  0.5192070000000  0.3997270000000  0.5370230000000 1.0
C      1  0.4117520000000  0.4517490000000  0.5362340000000 1.0
C      1  0.4224590000000  0.5679430000000  0.5371710000000 1.0
C      1  0.5405780000000  0.5964930000000  0.5355860000000 1.0
C      1  0.3924440000000  0.4921940000000  0.5356650000000 1.0
C      1  0.4766640000000  0.3926520000000  0.5377220000000 1.0
C      1  0.5895460000000  0.4500130000000  0.5379250000000 1.0
C      1  0.5762480000000  0.5697760000000  0.5382930000000 1.0
C      1  0.4561960000000  0.5919560000000  0.5362910000000 1.0
C      1  0.5745520000000  0.5375290000000  0.5160300000000 1.0
C      1  0.5590800000000  0.4422630000000  0.5150600000000 1.0
C      1  0.4671260000000  0.4276390000000  0.5208590000000 1.0
C      1  0.4312150000000  0.5019500000000  0.5206180000000 1.0
C      1  0.4853690000000  0.5781100000000  0.5123420000000 1.0
C      1  0.4248630000000  0.5292610000000  0.5177900000000 1.0
C      1  0.4441610000000  0.4434470000000  0.5158840000000 1.0
C      1  0.5347940000000  0.4330590000000  0.5207780000000 1.0
C      1  0.5824650000000  0.5134320000000  0.5159770000000 1.0
C      1  0.5123080000000  0.5809560000000  0.5124700000000 1.0
C      1  0.4564930000000  0.5022750000000  0.4605040000000 1.0
C      1  0.4875120000000  0.5361410000000  0.4492910000000 1.0
C      1  0.5353520000000  0.5253540000000  0.4596420000000 1.0
C      1  0.5310930000000  0.4758960000000  0.4512230000000 1.0
C      1  0.4862160000000  0.4606410000000  0.4640700000000 1.0
C      1  0.5424980000000  0.5001120000000  0.4609330000000 1.0
C      1  0.5123920000000  0.5401310000000  0.4615610000000 1.0
C      1  0.4649260000000  0.5273430000000  0.4643720000000 1.0
C      1  0.4694230000000  0.4792580000000  0.4501620000000 1.0
C      1  0.5131360000000  0.4590900000000  0.4638480000000 1.0
C      1  0.5133150000000  0.5420160000000  0.5032290000000 1.0
C      1  0.5355080000000  0.4988030000000  0.5126090000000 1.0
C      1  0.5158660000000  0.4531080000000  0.5052710000000 1.0
C      1  0.4650520000000  0.4744020000000  0.4989740000000 1.0
C      1  0.4731130000000  0.5182630000000  0.5126350000000 1.0
C      1  0.4873650000000  0.5372490000000  0.4996830000000 1.0
C      1  0.4542220000000  0.4999840000000  0.5049050000000 1.0
C      1  0.4876000000000  0.4630640000000  0.5106760000000 1.0
C      1  0.5333130000000  0.4747350000000  0.4982310000000 1.0
C      1  0.5340340000000  0.5246420000000  0.5027280000000 1.0
C      1  0.5376410000000  0.4990720000000  0.5384650000000 1.0
C      1  0.5126490000000  0.4593870000000  0.5502460000000 1.0
C      1  0.4643790000000  0.4741610000000  0.5505810000000 1.0
C      1  0.4716930000000  0.5205840000000  0.5386540000000 1.0
C      1  0.5158190000000  0.5450540000000  0.5458630000000 1.0
C      1  0.4573950000000  0.5004390000000  0.5525030000000 1.0
C      1  0.4880280000000  0.4654080000000  0.5375650000000 1.0
C      1  0.5352990000000  0.4742570000000  0.5486600000000 1.0
C      1  0.5353020000000  0.5242920000000  0.5494530000000 1.0
C      1  0.4865610000000  0.5437950000000  0.5475690000000 1.0
C      1  0.4836310000000  0.4366440000000  0.4803060000000 1.0
C      1  0.4363710000000  0.4943680000000  0.4779510000000 1.0
C      1  0.4727620000000  0.5614280000000  0.4919790000000 1.0
C      1  0.5475790000000  0.5397480000000  0.4812500000000 1.0
C      1  0.5550880000000  0.4675550000000  0.4825630000000 1.0
C      1  0.5134020000000  0.4364830000000  0.4811200000000 1.0
C      1  0.5647680000000  0.4934790000000  0.4771860000000 1.0
C      1  0.5226170000000  0.5597990000000  0.4813830000000 1.0
C      1  0.4516060000000  0.5451940000000  0.4811070000000 1.0
C      1  0.4453410000000  0.4663860000000  0.4803920000000 1.0
C      1  0.5871200000000  0.5711060000000  0.4861090000000 1.0
C      1  0.5938120000000  0.4405400000000  0.4858890000000 1.0
C      1  0.4716120000000  0.3921610000000  0.4841970000000 1.0
C      1  0.3884090000000  0.4918980000000  0.4828070000000 1.0
C      1  0.4581530000000  0.6010930000000  0.4833290000000 1.0
C      1  0.4120760000000  0.5680980000000  0.4882270000000 1.0
C      1  0.4066500000000  0.4382860000000  0.4873390000000 1.0
C      1  0.5285060000000  0.3930500000000  0.4843980000000 1.0
C      1  0.6119290000000  0.4923290000000  0.4844120000000 1.0
C      1  0.5414920000000  0.6034050000000  0.4839620000000 1.0
C      1  0.4735000000000  0.4313530000000  0.5643490000000 1.0
C      1  0.4324650000000  0.5094580000000  0.5645200000000 1.0
C      1  0.4855630000000  0.5679660000000  0.5642050000000 1.0
C      1  0.5597690000000  0.5296960000000  0.5630720000000 1.0
C      1  0.5518720000000  0.4541510000000  0.5632540000000 1.0
C      1  0.5254870000000  0.4372520000000  0.5641450000000 1.0
C      1  0.5743980000000  0.5031180000000  0.5629530000000 1.0
C      1  0.5165290000000  0.5689730000000  0.5634100000000 1.0
C      1  0.4347400000000  0.5390460000000  0.5642940000000 1.0
C      1  0.4520720000000  0.4523380000000  0.5638440000000 1.0
C      1  0.5459860000000  0.4224750000000  0.4487650000000 1.0
C      1  0.4311140000000  0.4409420000000  0.4439410000000 1.0
C      1  0.4220870000000  0.5461820000000  0.4443590000000 1.0
C      1  0.5194380000000  0.5865950000000  0.4461140000000 1.0
C      1  0.5889320000000  0.5124420000000  0.4457180000000 1.0
C      1  0.4539910000000  0.4218450000000  0.4482630000000 1.0
C      1  0.5696340000000  0.4422680000000  0.4449870000000 1.0
C      1  0.5801180000000  0.5406230000000  0.4458450000000 1.0
C      1  0.4901170000000  0.5877230000000  0.4500660000000 1.0
C      1  0.4120620000000  0.5179810000000  0.4469410000000 1.0
C      1  0.4481320000000  0.5511200000000  0.4318400000000 1.0
C      1  0.5306100000000  0.5682260000000  0.4292290000000 1.0
C      1  0.5746190000000  0.4938310000000  0.4291820000000 1.0
C      1  0.5204130000000  0.4252690000000  0.4360740000000 1.0
C      1  0.4339380000000  0.4653800000000  0.4301280000000 1.0
C      1  0.5573060000000  0.5479550000000  0.4304480000000 1.0
C      1  0.4642730000000  0.5754440000000  0.4400770000000 1.0
C      1  0.4247460000000  0.4952270000000  0.4323550000000 1.0
C      1  0.4794600000000  0.4252150000000  0.4356110000000 1.0
C      1  0.5651550000000  0.4645750000000  0.4290590000000 1.0
C      1  0.4199490000000  0.4809140000000  0.5368300000000 1.0
C      1  0.4940220000000  0.4156720000000  0.5427630000000 1.0
C      1  0.4505410000000  0.5637970000000  0.5431370000000 1.0
C      1  0.5811420000000  0.4782560000000  0.5452360000000 1.0
C      1  0.5476140000000  0.5694240000000  0.5411320000000 1.0
END
