TITL C-2441160-1326-1246 0.00212207624597817 125000 -9021.69100927112 0 0 62 (C1) n - 1
REM
REM in /home/bkarasulu/work/CARBON/AIRSS/Generating-Clusters/ReaxFF-fromJPCA2015/Units_Real/with-SteepDescent/Higher-Symm
REM
REM
REM
REM
REM
REM ./C.cell (1df0a924f5614ab8850e4351716899ee)
REM
REM compiler GCC version 9.2.1 20190827 (Red Hat 9.2.1-1)
REM options -cpp -mtune=generic -march=x86-64 -g -O0 -fpre-include=/usr/include/finclude/math-vector-fortran.h
REM seed 367901828 -153878011 1588976038 1804955460 988090326 -1788141822 1528344570 1873198073 491584293 919424381 -227329225 1625057296 1247087753 14780346 -143325377 -262546523 960790794 -2088057974 978672887 -745201965 2078536124 -1140064425 -56407249 198542731 -1822424909 686192001 1479516187 -1885126378 1425637501 -1487782954 -981847719 1511077667 -842421454
REM
CELL 1.54180   50.00000   50.00000   50.00000   90.00000   90.00000   90.00000
LATT -1
SFAC C  
C      1  0.5064490000000  0.5516850000000  0.5640970000000 1.0
C      1  0.4552240000000  0.4962100000000  0.5662800000000 1.0
C      1  0.4970130000000  0.4386450000000  0.5637360000000 1.0
C      1  0.5519850000000  0.4932230000000  0.5631470000000 1.0
C      1  0.5029170000000  0.5432290000000  0.4375000000000 1.0
C      1  0.5586820000000  0.4992220000000  0.4397760000000 1.0
C      1  0.5045200000000  0.4505120000000  0.4357980000000 1.0
C      1  0.4448990000000  0.4929280000000  0.4471820000000 1.0
C      1  0.5226110000000  0.5281320000000  0.5573620000000 1.0
C      1  0.4789230000000  0.5118550000000  0.5640980000000 1.0
C      1  0.4748490000000  0.4512250000000  0.5496930000000 1.0
C      1  0.5248380000000  0.4825100000000  0.5648810000000 1.0
C      1  0.4854910000000  0.5255670000000  0.4521770000000 1.0
C      1  0.5518620000000  0.5265340000000  0.4429450000000 1.0
C      1  0.5138100000000  0.4773570000000  0.4427310000000 1.0
C      1  0.4702740000000  0.4809810000000  0.4381680000000 1.0
C      1  0.5196860000000  0.4449130000000  0.5013150000000 1.0
C      1  0.5625110000000  0.5355740000000  0.4685200000000 1.0
C      1  0.4778170000000  0.5462290000000  0.4770000000000 1.0
C      1  0.4373460000000  0.4808160000000  0.4746400000000 1.0
C      1  0.4704240000000  0.4443490000000  0.5214750000000 1.0
C      1  0.4299730000000  0.5239890000000  0.5056210000000 1.0
C      1  0.5202920000000  0.5626490000000  0.5008030000000 1.0
C      1  0.5667610000000  0.4799680000000  0.5196890000000 1.0
C      1  0.4499830000000  0.5392500000000  0.5171540000000 1.0
C      1  0.4405990000000  0.4479270000000  0.5161320000000 1.0
C      1  0.5533190000000  0.4579230000000  0.5264580000000 1.0
C      1  0.5390470000000  0.5454980000000  0.5127120000000 1.0
C      1  0.5600090000000  0.5654900000000  0.4741930000000 1.0
C      1  0.5336640000000  0.4640660000000  0.4859380000000 1.0
C      1  0.4498860000000  0.4545740000000  0.4758660000000 1.0
C      1  0.4524210000000  0.5615200000000  0.4774640000000 1.0
C      1  0.4557450000000  0.4685330000000  0.5635080000000 1.0
C      1  0.5203370000000  0.4542540000000  0.5718460000000 1.0
C      1  0.5510210000000  0.5212450000000  0.5589730000000 1.0
C      1  0.4801180000000  0.5403990000000  0.5706560000000 1.0
C      1  0.5420890000000  0.4781110000000  0.4402160000000 1.0
C      1  0.4761710000000  0.4530090000000  0.4305340000000 1.0
C      1  0.4544520000000  0.5203680000000  0.4448450000000 1.0
C      1  0.5299870000000  0.5419760000000  0.4326100000000 1.0
C      1  0.5237670000000  0.4317180000000  0.5534090000000 1.0
C      1  0.5683860000000  0.5033880000000  0.5390590000000 1.0
C      1  0.4822410000000  0.5616420000000  0.5512340000000 1.0
C      1  0.4358390000000  0.4834410000000  0.5504240000000 1.0
C      1  0.4855020000000  0.4327900000000  0.4492490000000 1.0
C      1  0.4326860000000  0.5298360000000  0.4587410000000 1.0
C      1  0.5194860000000  0.5637630000000  0.4474020000000 1.0
C      1  0.5623740000000  0.4791610000000  0.4601930000000 1.0
C      1  0.5310390000000  0.5713720000000  0.4736330000000 1.0
C      1  0.4269580000000  0.5437330000000  0.4826570000000 1.0
C      1  0.4736940000000  0.4360960000000  0.4761930000000 1.0
C      1  0.5576780000000  0.4853770000000  0.4893540000000 1.0
C      1  0.4723750000000  0.5551770000000  0.5236260000000 1.0
C      1  0.5583120000000  0.5269590000000  0.5174040000000 1.0
C      1  0.5360580000000  0.4371230000000  0.5273550000000 1.0
C      1  0.4307220000000  0.4759910000000  0.5224040000000 1.0
C      1  0.5588240000000  0.5165670000000  0.4902960000000 1.0
C      1  0.4917650000000  0.5547490000000  0.5007960000000 1.0
C      1  0.4306780000000  0.4942470000000  0.5001510000000 1.0
C      1  0.4896950000000  0.4388780000000  0.5002940000000 1.0
C      1  0.5061770000000  0.5041230000000  0.5582550000000 1.0
C      1  0.4926670000000  0.4958930000000  0.4474320000000 1.0
END
