TITL C-2441160-1326-779 0.00367917332608655 125000 -10064.5879692847 0 0 68 (C1) n - 1
REM
REM in /home/bkarasulu/work/CARBON/AIRSS/Generating-Clusters/ReaxFF-fromJPCA2015/Units_Real/with-SteepDescent/Higher-Symm
REM
REM
REM
REM
REM
REM ./C.cell (1df0a924f5614ab8850e4351716899ee)
REM
REM compiler GCC version 9.2.1 20190827 (Red Hat 9.2.1-1)
REM options -cpp -mtune=generic -march=x86-64 -g -O0 -fpre-include=/usr/include/finclude/math-vector-fortran.h
REM seed -679713857 -373883229 327035027 1728229838 352693341 -533290103 -1813530784 1250606337 -1360418606 -336220200 1171492922 -211275484 1128118956 -1056578706 1655345388 -720229534 -905157371 972218774 -1005440789 1315727917 -1334037976 -416471118 156008507 130473390 736629193 1463399479 721877663 -807982658 -419635277 152215963 3747621 -315485277 -400635539
REM
CELL 1.54180   50.00000   50.00000   50.00000   90.00000   90.00000   90.00000
LATT -1
SFAC C  
C      1  0.4895030000000  0.5319180000000  0.4375740000000 1.0
C      1  0.5432660000000  0.4326650000000  0.4674460000000 1.0
C      1  0.4854580000000  0.5589520000000  0.4773320000000 1.0
C      1  0.5310330000000  0.5016400000000  0.4343640000000 1.0
C      1  0.5586860000000  0.4540510000000  0.5002280000000 1.0
C      1  0.5563430000000  0.4940040000000  0.4437570000000 1.0
C      1  0.4235370000000  0.4695340000000  0.4828120000000 1.0
C      1  0.5279510000000  0.5188370000000  0.4779700000000 1.0
C      1  0.5301050000000  0.4441690000000  0.4926940000000 1.0
C      1  0.4801320000000  0.4584940000000  0.4740240000000 1.0
C      1  0.4162390000000  0.5084000000000  0.5112670000000 1.0
C      1  0.5050030000000  0.5082260000000  0.4270900000000 1.0
C      1  0.4989320000000  0.5721190000000  0.4981820000000 1.0
C      1  0.4901090000000  0.5030150000000  0.5240170000000 1.0
C      1  0.4931890000000  0.4907270000000  0.5705140000000 1.0
C      1  0.5272240000000  0.5704740000000  0.4912270000000 1.0
C      1  0.4677240000000  0.4632480000000  0.4994930000000 1.0
C      1  0.5651500000000  0.5017930000000  0.5205400000000 1.0
C      1  0.5175790000000  0.4943390000000  0.4877080000000 1.0
C      1  0.4446280000000  0.5459070000000  0.4617560000000 1.0
C      1  0.4250360000000  0.4971810000000  0.4856660000000 1.0
C      1  0.5656500000000  0.5487770000000  0.5208840000000 1.0
C      1  0.5679380000000  0.5127120000000  0.4653750000000 1.0
C      1  0.4556520000000  0.5072880000000  0.4856190000000 1.0
C      1  0.5125140000000  0.4616610000000  0.4463130000000 1.0
C      1  0.5677470000000  0.5057900000000  0.4924490000000 1.0
C      1  0.4469150000000  0.5328120000000  0.5349270000000 1.0
C      1  0.4647760000000  0.4862370000000  0.5585810000000 1.0
C      1  0.5453390000000  0.5664410000000  0.5144670000000 1.0
C      1  0.5217720000000  0.5325500000000  0.5438160000000 1.0
C      1  0.5510310000000  0.4620780000000  0.5418820000000 1.0
C      1  0.4612100000000  0.5281160000000  0.4447200000000 1.0
C      1  0.4609560000000  0.5416770000000  0.4869070000000 1.0
C      1  0.5342740000000  0.5059270000000  0.5392380000000 1.0
C      1  0.4801570000000  0.4428440000000  0.5375850000000 1.0
C      1  0.5278300000000  0.4579400000000  0.5565360000000 1.0
C      1  0.5379150000000  0.4474070000000  0.4421530000000 1.0
C      1  0.5829150000000  0.5285060000000  0.5293140000000 1.0
C      1  0.5072710000000  0.4392080000000  0.5409840000000 1.0
C      1  0.4389800000000  0.4551610000000  0.5019870000000 1.0
C      1  0.4322140000000  0.5500610000000  0.4878980000000 1.0
C      1  0.5215190000000  0.4858040000000  0.5599610000000 1.0
C      1  0.4604360000000  0.5013010000000  0.4566600000000 1.0
C      1  0.5301730000000  0.5600610000000  0.5399430000000 1.0
C      1  0.5116760000000  0.4298580000000  0.5136120000000 1.0
C      1  0.5611190000000  0.4648290000000  0.4473330000000 1.0
C      1  0.5294950000000  0.5584630000000  0.4645140000000 1.0
C      1  0.4456090000000  0.5056590000000  0.5479840000000 1.0
C      1  0.4251750000000  0.4908510000000  0.5334220000000 1.0
C      1  0.5067170000000  0.5796750000000  0.5441740000000 1.0
C      1  0.4730240000000  0.4764740000000  0.4498090000000 1.0
C      1  0.4269290000000  0.5354720000000  0.5131150000000 1.0
C      1  0.4949490000000  0.4798000000000  0.4310700000000 1.0
C      1  0.5107860000000  0.4658720000000  0.4760820000000 1.0
C      1  0.5481880000000  0.5361030000000  0.4702260000000 1.0
C      1  0.4586050000000  0.4596480000000  0.5468040000000 1.0
C      1  0.4714800000000  0.5475480000000  0.5370180000000 1.0
C      1  0.4920360000000  0.5269980000000  0.5453620000000 1.0
C      1  0.5160180000000  0.4952850000000  0.5172810000000 1.0
C      1  0.5670730000000  0.4494780000000  0.4722990000000 1.0
C      1  0.4768350000000  0.4255500000000  0.4759920000000 1.0
C      1  0.4852940000000  0.5714810000000  0.5258760000000 1.0
C      1  0.5689070000000  0.4704460000000  0.5224870000000 1.0
C      1  0.5018770000000  0.5519740000000  0.4546430000000 1.0
C      1  0.4704170000000  0.4914310000000  0.5065700000000 1.0
C      1  0.4861510000000  0.5174630000000  0.5774930000000 1.0
C      1  0.4851110000000  0.4261000000000  0.5029790000000 1.0
C      1  0.4345200000000  0.4634880000000  0.5299940000000 1.0
END
