TITL C-2441161-5029-1462 0.0536171274728715 125000 -18245.2821490786 0 0 130 (C1) n - 1
REM
REM in /home/bkarasulu/work/CARBON/AIRSS/Generating-Clusters/ReaxFF-fromJPCA2015/Units_Real/with-SteepDescent/Higher-Symm
REM
REM
REM
REM
REM
REM ./C.cell (1df0a924f5614ab8850e4351716899ee)
REM
REM compiler GCC version 9.2.1 20190827 (Red Hat 9.2.1-1)
REM options -cpp -mtune=generic -march=x86-64 -g -O0 -fpre-include=/usr/include/finclude/math-vector-fortran.h
REM seed 1330994286 2115491426 1892288375 1497259091 1577392961 286595272 621058024 -601597916 -1446652519 -1662359456 1354595040 767927796 408002519 -602587881 -626069362 56402243 -1415840943 -125813251 1996322843 -791793571 481142518 209679524 -1262031040 -433527043 1561876444 -1942171255 -1973883090 1560838550 580898716 1145602717 2001566456 244388928 368208516
REM
CELL 1.54180   50.00000   50.00000   50.00000   90.00000   90.00000   90.00000
LATT -1
SFAC C  
C      1  0.5203600000000  0.4628560000000  0.5252230000000 1.0
C      1  0.4813020000000  0.5655410000000  0.4653020000000 1.0
C      1  0.5526190000000  0.5342250000000  0.4940060000000 1.0
C      1  0.4447920000000  0.4669970000000  0.5052280000000 1.0
C      1  0.4700780000000  0.4737410000000  0.4843280000000 1.0
C      1  0.5328360000000  0.5293760000000  0.5159360000000 1.0
C      1  0.5411650000000  0.5610030000000  0.5754110000000 1.0
C      1  0.4642900000000  0.4385390000000  0.4263290000000 1.0
C      1  0.5906670000000  0.5098810000000  0.4766380000000 1.0
C      1  0.4100330000000  0.4915170000000  0.5227910000000 1.0
C      1  0.5435120000000  0.4151300000000  0.4959260000000 1.0
C      1  0.4719420000000  0.5840050000000  0.5139250000000 1.0
C      1  0.5675420000000  0.5230140000000  0.4344960000000 1.0
C      1  0.4309550000000  0.4731970000000  0.5670310000000 1.0
C      1  0.4607640000000  0.5438890000000  0.5687380000000 1.0
C      1  0.5390970000000  0.4526880000000  0.4363800000000 1.0
C      1  0.4553510000000  0.5689580000000  0.5564790000000 1.0
C      1  0.5436140000000  0.4292380000000  0.4513680000000 1.0
C      1  0.4920500000000  0.5239620000000  0.4341670000000 1.0
C      1  0.4933040000000  0.4706460000000  0.5632050000000 1.0
C      1  0.4785410000000  0.5686140000000  0.4364330000000 1.0
C      1  0.5185050000000  0.4354720000000  0.5375150000000 1.0
C      1  0.4816980000000  0.4501010000000  0.4969250000000 1.0
C      1  0.5092080000000  0.5474230000000  0.5007800000000 1.0
C      1  0.5183600000000  0.5221410000000  0.6035730000000 1.0
C      1  0.4859760000000  0.4823010000000  0.4065540000000 1.0
C      1  0.5774510000000  0.5217670000000  0.4978770000000 1.0
C      1  0.4216640000000  0.4815640000000  0.4994720000000 1.0
C      1  0.4695390000000  0.4728810000000  0.4547080000000 1.0
C      1  0.5329470000000  0.5315730000000  0.5451710000000 1.0
C      1  0.4338990000000  0.5639070000000  0.5362160000000 1.0
C      1  0.5699610000000  0.4359970000000  0.4623750000000 1.0
C      1  0.4046110000000  0.5204670000000  0.4758300000000 1.0
C      1  0.5839760000000  0.4897630000000  0.5303420000000 1.0
C      1  0.4268230000000  0.4450890000000  0.5365780000000 1.0
C      1  0.5731920000000  0.5539820000000  0.4621120000000 1.0
C      1  0.4302640000000  0.4580100000000  0.4600160000000 1.0
C      1  0.5743620000000  0.5434700000000  0.5370930000000 1.0
C      1  0.5670920000000  0.4778630000000  0.5524690000000 1.0
C      1  0.4167360000000  0.5076740000000  0.4548470000000 1.0
C      1  0.5882630000000  0.5298710000000  0.4550060000000 1.0
C      1  0.4134430000000  0.4703650000000  0.5431110000000 1.0
C      1  0.4410870000000  0.5716010000000  0.5095400000000 1.0
C      1  0.5696900000000  0.4267780000000  0.4900970000000 1.0
C      1  0.4376780000000  0.5524440000000  0.4616510000000 1.0
C      1  0.5630470000000  0.4404150000000  0.5330250000000 1.0
C      1  0.5246690000000  0.5906720000000  0.5064430000000 1.0
C      1  0.4725620000000  0.4059420000000  0.4906590000000 1.0
C      1  0.4733050000000  0.4543310000000  0.5468340000000 1.0
C      1  0.5023160000000  0.5360380000000  0.4602000000000 1.0
C      1  0.5190000000000  0.5837330000000  0.4591210000000 1.0
C      1  0.4804170000000  0.4151150000000  0.5383580000000 1.0
C      1  0.4602310000000  0.4909140000000  0.4189250000000 1.0
C      1  0.5356840000000  0.5029650000000  0.5894990000000 1.0
C      1  0.5185160000000  0.5474320000000  0.5868450000000 1.0
C      1  0.4862900000000  0.4531160000000  0.4149900000000 1.0
C      1  0.5817210000000  0.4441470000000  0.5106400000000 1.0
C      1  0.4280430000000  0.5560640000000  0.4893940000000 1.0
C      1  0.5199320000000  0.5641940000000  0.4069550000000 1.0
C      1  0.4918190000000  0.4325820000000  0.5866710000000 1.0
C      1  0.4563760000000  0.4165150000000  0.4684940000000 1.0
C      1  0.5426620000000  0.5818800000000  0.5282450000000 1.0
C      1  0.4221620000000  0.5376230000000  0.5438060000000 1.0
C      1  0.5803350000000  0.4630540000000  0.4576550000000 1.0
C      1  0.5048290000000  0.4447480000000  0.4821970000000 1.0
C      1  0.4858230000000  0.5573680000000  0.5158830000000 1.0
C      1  0.4380580000000  0.4373840000000  0.5082180000000 1.0
C      1  0.5599960000000  0.5624110000000  0.4892560000000 1.0
C      1  0.5032720000000  0.4263590000000  0.4598400000000 1.0
C      1  0.5028600000000  0.5842460000000  0.5514490000000 1.0
C      1  0.4447320000000  0.4989350000000  0.5650330000000 1.0
C      1  0.5543520000000  0.4980730000000  0.4404670000000 1.0
C      1  0.5886960000000  0.4723510000000  0.5071570000000 1.0
C      1  0.4067580000000  0.5357860000000  0.4988220000000 1.0
C      1  0.4853700000000  0.5249700000000  0.5603660000000 1.0
C      1  0.5155150000000  0.4726920000000  0.4438260000000 1.0
C      1  0.5178070000000  0.4809730000000  0.4688370000000 1.0
C      1  0.4816410000000  0.5124770000000  0.5348680000000 1.0
C      1  0.4569710000000  0.5709860000000  0.4541700000000 1.0
C      1  0.5413720000000  0.4216430000000  0.5244020000000 1.0
C      1  0.4919430000000  0.4610130000000  0.4422810000000 1.0
C      1  0.5107810000000  0.5381050000000  0.5605820000000 1.0
C      1  0.4670960000000  0.4283280000000  0.5113870000000 1.0
C      1  0.5302280000000  0.5715730000000  0.4846420000000 1.0
C      1  0.5647340000000  0.5651060000000  0.5203610000000 1.0
C      1  0.4358740000000  0.4358690000000  0.4769920000000 1.0
C      1  0.4948300000000  0.4610080000000  0.5907220000000 1.0
C      1  0.5093570000000  0.5373330000000  0.4110690000000 1.0
C      1  0.5457300000000  0.4869680000000  0.4958820000000 1.0
C      1  0.4568200000000  0.5178770000000  0.4961810000000 1.0
C      1  0.4966690000000  0.5974250000000  0.5009950000000 1.0
C      1  0.5010050000000  0.4005220000000  0.4933840000000 1.0
C      1  0.4387100000000  0.5269810000000  0.4474160000000 1.0
C      1  0.5477740000000  0.4653710000000  0.5345760000000 1.0
C      1  0.4608350000000  0.5168340000000  0.4310030000000 1.0
C      1  0.5511590000000  0.4901980000000  0.5734060000000 1.0
C      1  0.4612650000000  0.4725990000000  0.5282160000000 1.0
C      1  0.5331410000000  0.5313460000000  0.4652300000000 1.0
C      1  0.5069710000000  0.5742180000000  0.4335030000000 1.0
C      1  0.5002410000000  0.4229830000000  0.5583290000000 1.0
C      1  0.4096700000000  0.5205480000000  0.5243490000000 1.0
C      1  0.5898460000000  0.4809260000000  0.4787770000000 1.0
C      1  0.5000540000000  0.4027210000000  0.5216460000000 1.0
C      1  0.4953810000000  0.5916860000000  0.4731770000000 1.0
C      1  0.5390420000000  0.4999290000000  0.4671670000000 1.0
C      1  0.4589030000000  0.4972640000000  0.5402010000000 1.0
C      1  0.5022410000000  0.4921760000000  0.5198630000000 1.0
C      1  0.4965250000000  0.5251800000000  0.4857090000000 1.0
C      1  0.5508610000000  0.5451830000000  0.4456270000000 1.0
C      1  0.4460720000000  0.4490220000000  0.5580850000000 1.0
C      1  0.4486940000000  0.4636790000000  0.4356330000000 1.0
C      1  0.5557860000000  0.5407620000000  0.5595950000000 1.0
C      1  0.4186380000000  0.4819660000000  0.4712740000000 1.0
C      1  0.5835620000000  0.5179840000000  0.5246460000000 1.0
C      1  0.4800530000000  0.4882340000000  0.5993220000000 1.0
C      1  0.5235710000000  0.5106070000000  0.4034860000000 1.0
C      1  0.4755950000000  0.4216910000000  0.4471240000000 1.0
C      1  0.5300020000000  0.5810740000000  0.5558530000000 1.0
C      1  0.4764870000000  0.5871840000000  0.5453790000000 1.0
C      1  0.5249380000000  0.4094590000000  0.4721240000000 1.0
C      1  0.5147110000000  0.4909860000000  0.3863520000000 1.0
C      1  0.4936910000000  0.5099370000000  0.6100510000000 1.0
C      1  0.5621640000000  0.4706730000000  0.4356030000000 1.0
C      1  0.4373110000000  0.5275850000000  0.5672560000000 1.0
C      1  0.4845710000000  0.5001610000000  0.4949090000000 1.0
C      1  0.5289230000000  0.5015480000000  0.5139430000000 1.0
C      1  0.5059550000000  0.4979960000000  0.4253860000000 1.0
C      1  0.4875560000000  0.4974480000000  0.5725540000000 1.0
C      1  0.4671510000000  0.5342800000000  0.5168520000000 1.0
C      1  0.5285050000000  0.4628030000000  0.4911550000000 1.0
END
