TITL C-2441163-1170-995 0.0135937552522005 125000 -3358.72498521898 0 0 27 (C1) n - 1
REM
REM in /home/bkarasulu/work/CARBON/AIRSS/Generating-Clusters/ReaxFF-fromJPCA2015/Units_Real/with-SteepDescent/Higher-Symm
REM
REM
REM
REM
REM
REM ./C.cell (1df0a924f5614ab8850e4351716899ee)
REM
REM compiler GCC version 9.2.1 20190827 (Red Hat 9.2.1-1)
REM options -cpp -mtune=generic -march=x86-64 -g -O0 -fpre-include=/usr/include/finclude/math-vector-fortran.h
REM seed 840682553 1430138214 1871146125 1078803411 1316801491 420051525 620677708 839162502 1408971670 -2139449869 -849465101 -675871723 -1571952783 467184309 -350472406 -1642039414 825234956 -478939309 1666550396 282569401 1750419815 1384942401 -620776986 -943105259 -326249027 -2063217410 -2079508822 -1632698395 -51483300 240219274 1438802697 -941377636 -792480254
REM
CELL 1.54180   50.00000   50.00000   50.00000   90.00000   90.00000   90.00000
LATT -1
SFAC C  
C      1  0.5338860000000  0.4840460000000  0.4645960000000 1.0
C      1  0.5380970000000  0.4660840000000  0.5138380000000 1.0
C      1  0.4845120000000  0.5594930000000  0.5024370000000 1.0
C      1  0.5577750000000  0.4950550000000  0.4798110000000 1.0
C      1  0.4759450000000  0.4861460000000  0.4775710000000 1.0
C      1  0.4861370000000  0.5365090000000  0.4840820000000 1.0
C      1  0.4844440000000  0.5137780000000  0.4668220000000 1.0
C      1  0.5246720000000  0.5115700000000  0.5203250000000 1.0
C      1  0.5327330000000  0.5317050000000  0.4422260000000 1.0
C      1  0.5258070000000  0.4858320000000  0.5335440000000 1.0
C      1  0.4445660000000  0.5202000000000  0.4868440000000 1.0
C      1  0.5368660000000  0.4461830000000  0.5313670000000 1.0
C      1  0.4876740000000  0.4580130000000  0.5181610000000 1.0
C      1  0.4947390000000  0.4635820000000  0.4906620000000 1.0
C      1  0.4441330000000  0.4927510000000  0.4760680000000 1.0
C      1  0.5221530000000  0.4679760000000  0.4858380000000 1.0
C      1  0.4756880000000  0.4893360000000  0.5450090000000 1.0
C      1  0.4627240000000  0.4722380000000  0.5243290000000 1.0
C      1  0.4566400000000  0.5174940000000  0.5151000000000 1.0
C      1  0.5000580000000  0.4732000000000  0.5412680000000 1.0
C      1  0.5028640000000  0.5287400000000  0.5312170000000 1.0
C      1  0.5038030000000  0.5066410000000  0.4478020000000 1.0
C      1  0.4759690000000  0.5173280000000  0.5374240000000 1.0
C      1  0.4702170000000  0.4941020000000  0.5056260000000 1.0
C      1  0.5084810000000  0.5561980000000  0.5215060000000 1.0
C      1  0.5447070000000  0.5140330000000  0.4989040000000 1.0
C      1  0.5247110000000  0.5117680000000  0.4576250000000 1.0
END
