TITL C-2441164-471-29 0.0146974987962265 125000 -16781.0699498692 0 0 115 (C1) n - 1
REM
REM in /home/bkarasulu/work/CARBON/AIRSS/Generating-Clusters/ReaxFF-fromJPCA2015/Units_Real/with-SteepDescent/Higher-Symm
REM
REM
REM
REM
REM
REM ./C.cell (1df0a924f5614ab8850e4351716899ee)
REM
REM compiler GCC version 9.2.1 20190827 (Red Hat 9.2.1-1)
REM options -cpp -mtune=generic -march=x86-64 -g -O0 -fpre-include=/usr/include/finclude/math-vector-fortran.h
REM seed -402487906 563280753 351239504 208418717 706861723 -1132659638 -990731127 -1156591874 -2126509184 2032251876 -1313137858 1437423580 1337039290 -1727870551 -53047713 -1084322348 -1285717460 980206717 -956228151 824726044 609720280 1371763220 -124618816 538537578 706342113 531576971 221237145 886576548 1354636445 846390273 -1758607667 -2119633090 -2051100049
REM
CELL 1.54180   50.00000   50.00000   50.00000   90.00000   90.00000   90.00000
LATT -1
SFAC C  
C      1  0.4667170000000  0.5437400000000  0.5652350000000 1.0
C      1  0.5723520000000  0.4734540000000  0.5379310000000 1.0
C      1  0.5418680000000  0.5681670000000  0.4724050000000 1.0
C      1  0.5281290000000  0.5405480000000  0.4378370000000 1.0
C      1  0.4670400000000  0.4560270000000  0.4305470000000 1.0
C      1  0.5353330000000  0.4551010000000  0.5657350000000 1.0
C      1  0.4295670000000  0.4702940000000  0.4536450000000 1.0
C      1  0.5686650000000  0.5253410000000  0.4658250000000 1.0
C      1  0.4279990000000  0.5295180000000  0.5401340000000 1.0
C      1  0.4527570000000  0.5685960000000  0.5266200000000 1.0
C      1  0.5490550000000  0.4325610000000  0.5277080000000 1.0
C      1  0.4559780000000  0.4336950000000  0.4698070000000 1.0
C      1  0.4749210000000  0.4620170000000  0.5693600000000 1.0
C      1  0.5655760000000  0.5321090000000  0.5465610000000 1.0
C      1  0.5356500000000  0.4309930000000  0.4718990000000 1.0
C      1  0.5243580000000  0.4625850000000  0.4288860000000 1.0
C      1  0.4732970000000  0.5380310000000  0.4307860000000 1.0
C      1  0.5238920000000  0.5394480000000  0.5718550000000 1.0
C      1  0.4335250000000  0.5275510000000  0.4550370000000 1.0
C      1  0.5642910000000  0.4676320000000  0.4549570000000 1.0
C      1  0.4346710000000  0.4720980000000  0.5377280000000 1.0
C      1  0.4632990000000  0.4326880000000  0.5270880000000 1.0
C      1  0.5380310000000  0.5704620000000  0.5335460000000 1.0
C      1  0.4573720000000  0.5675340000000  0.4670180000000 1.0
C      1  0.4756070000000  0.4737530000000  0.4548700000000 1.0
C      1  0.4516500000000  0.4860940000000  0.4632720000000 1.0
C      1  0.4759770000000  0.4537800000000  0.4755070000000 1.0
C      1  0.5214580000000  0.4723130000000  0.5471940000000 1.0
C      1  0.4757590000000  0.5235020000000  0.5457120000000 1.0
C      1  0.5068860000000  0.5240780000000  0.4555590000000 1.0
C      1  0.5401220000000  0.4783210000000  0.5256780000000 1.0
C      1  0.4601660000000  0.5241280000000  0.5226760000000 1.0
C      1  0.5430100000000  0.5089150000000  0.4831940000000 1.0
C      1  0.5356750000000  0.4538970000000  0.5131540000000 1.0
C      1  0.4665170000000  0.5485110000000  0.5107360000000 1.0
C      1  0.5230920000000  0.5299630000000  0.4784830000000 1.0
C      1  0.4795180000000  0.5306160000000  0.4608320000000 1.0
C      1  0.4554700000000  0.5133450000000  0.4708560000000 1.0
C      1  0.4793410000000  0.5502890000000  0.4851490000000 1.0
C      1  0.5183440000000  0.5229320000000  0.5435830000000 1.0
C      1  0.4937360000000  0.4763300000000  0.5445000000000 1.0
C      1  0.5203010000000  0.4793070000000  0.4529390000000 1.0
C      1  0.5421600000000  0.5232600000000  0.5265300000000 1.0
C      1  0.4569020000000  0.4805900000000  0.5195860000000 1.0
C      1  0.5407900000000  0.4796280000000  0.4719370000000 1.0
C      1  0.5196290000000  0.5437360000000  0.5222270000000 1.0
C      1  0.4782590000000  0.4613880000000  0.5209080000000 1.0
C      1  0.5250200000000  0.4566970000000  0.4879710000000 1.0
C      1  0.5660030000000  0.5563140000000  0.5313150000000 1.0
C      1  0.5196000000000  0.5661920000000  0.5565490000000 1.0
C      1  0.5515400000000  0.5248960000000  0.5705180000000 1.0
C      1  0.4320620000000  0.5531060000000  0.4693470000000 1.0
C      1  0.5647290000000  0.4441660000000  0.4717380000000 1.0
C      1  0.4356740000000  0.4454370000000  0.5231100000000 1.0
C      1  0.4732950000000  0.5669880000000  0.4435380000000 1.0
C      1  0.5204440000000  0.4355840000000  0.4463640000000 1.0
C      1  0.4785980000000  0.4356610000000  0.5526410000000 1.0
C      1  0.4467690000000  0.5230650000000  0.4293170000000 1.0
C      1  0.5528510000000  0.4747800000000  0.4294010000000 1.0
C      1  0.4500950000000  0.4771150000000  0.5656730000000 1.0
C      1  0.5740550000000  0.4470580000000  0.5237410000000 1.0
C      1  0.5319140000000  0.4293990000000  0.5518480000000 1.0
C      1  0.5585570000000  0.4733980000000  0.5651820000000 1.0
C      1  0.4298550000000  0.4467860000000  0.4713850000000 1.0
C      1  0.5654230000000  0.5520860000000  0.4793270000000 1.0
C      1  0.4279610000000  0.5535220000000  0.5224790000000 1.0
C      1  0.4689940000000  0.4300390000000  0.4432200000000 1.0
C      1  0.5241200000000  0.5667420000000  0.4492510000000 1.0
C      1  0.4690340000000  0.5695500000000  0.5512140000000 1.0
C      1  0.4420970000000  0.4700930000000  0.4268010000000 1.0
C      1  0.5532720000000  0.5261720000000  0.4383460000000 1.0
C      1  0.4418630000000  0.5283110000000  0.5670440000000 1.0
C      1  0.4984170000000  0.5904490000000  0.4846160000000 1.0
C      1  0.4930210000000  0.4824380000000  0.5892980000000 1.0
C      1  0.5922320000000  0.4804850000000  0.4930070000000 1.0
C      1  0.5267080000000  0.5931910000000  0.5151390000000 1.0
C      1  0.4833850000000  0.4126350000000  0.5076490000000 1.0
C      1  0.5210400000000  0.4091480000000  0.4914230000000 1.0
C      1  0.5065330000000  0.4813700000000  0.4090340000000 1.0
C      1  0.4930770000000  0.5202210000000  0.4113690000000 1.0
C      1  0.5068890000000  0.5213910000000  0.5908100000000 1.0
C      1  0.4076120000000  0.4857900000000  0.5254990000000 1.0
C      1  0.5915700000000  0.5200950000000  0.5062560000000 1.0
C      1  0.4102930000000  0.5147570000000  0.4956270000000 1.0
C      1  0.4948420000000  0.4082580000000  0.4801630000000 1.0
C      1  0.4799700000000  0.5074870000000  0.5925410000000 1.0
C      1  0.5899170000000  0.5079810000000  0.4800170000000 1.0
C      1  0.5087450000000  0.4077180000000  0.5193350000000 1.0
C      1  0.4982770000000  0.5906890000000  0.5154300000000 1.0
C      1  0.5277400000000  0.5910650000000  0.4857570000000 1.0
C      1  0.5199180000000  0.5066000000000  0.4088730000000 1.0
C      1  0.4796760000000  0.4952550000000  0.4063560000000 1.0
C      1  0.5198730000000  0.4954560000000  0.5916270000000 1.0
C      1  0.4058020000000  0.5145620000000  0.5244650000000 1.0
C      1  0.5896490000000  0.4928770000000  0.5187080000000 1.0
C      1  0.4103360000000  0.4833230000000  0.4972170000000 1.0
C      1  0.4965240000000  0.4227480000000  0.4521940000000 1.0
C      1  0.4238380000000  0.4560440000000  0.4983990000000 1.0
C      1  0.5039600000000  0.4230630000000  0.5462020000000 1.0
C      1  0.4962060000000  0.5766220000000  0.5431620000000 1.0
C      1  0.4967780000000  0.5777650000000  0.4571690000000 1.0
C      1  0.5474200000000  0.4968630000000  0.5775300000000 1.0
C      1  0.4527910000000  0.5032460000000  0.5772420000000 1.0
C      1  0.5474600000000  0.5027190000000  0.4228980000000 1.0
C      1  0.5791670000000  0.4528710000000  0.4951820000000 1.0
C      1  0.4225780000000  0.5418940000000  0.4952080000000 1.0
C      1  0.5766380000000  0.5471100000000  0.5060570000000 1.0
C      1  0.4516690000000  0.4965250000000  0.4181060000000 1.0
C      1  0.5419680000000  0.5018670000000  0.5107960000000 1.0
C      1  0.5068990000000  0.5425440000000  0.4960750000000 1.0
C      1  0.4959360000000  0.5052190000000  0.5433410000000 1.0
C      1  0.4639230000000  0.5031950000000  0.5039040000000 1.0
C      1  0.4942920000000  0.4622820000000  0.4958330000000 1.0
C      1  0.4987990000000  0.4940740000000  0.4615950000000 1.0
C      1  0.4936290000000  0.4946780000000  0.4936590000000 1.0
END
