TITL C-2441165-58-502 0.0342936213244198 125000 -19081.8838347689 0 0 135 (C1) n - 1
REM
REM in /home/bkarasulu/work/CARBON/AIRSS/Generating-Clusters/ReaxFF-fromJPCA2015/Units_Real/with-SteepDescent/Higher-Symm
REM
REM
REM
REM
REM
REM ./C.cell (1df0a924f5614ab8850e4351716899ee)
REM
REM compiler GCC version 9.2.1 20190827 (Red Hat 9.2.1-1)
REM options -cpp -mtune=generic -march=x86-64 -g -O0 -fpre-include=/usr/include/finclude/math-vector-fortran.h
REM seed -928008677 1733481130 -593013270 1601442954 -206527659 -2055180645 -29828080 1491798910 2110319833 619374546 -1687407306 -1658021903 1440869895 -1814499861 1363491385 887173777 1457899599 1524872954 359719205 -807562772 2042641120 -1978233109 -2022082681 1829142516 1028887817 -1225746295 1693755101 1074057972 -405953563 111530114 -1495844054 779674594 1070687699
REM
CELL 1.54180   50.00000   50.00000   50.00000   90.00000   90.00000   90.00000
LATT -1
SFAC C  
C      1  0.5608990000000  0.4774210000000  0.4881320000000 1.0
C      1  0.4603920000000  0.4836690000000  0.4645890000000 1.0
C      1  0.4830260000000  0.4728670000000  0.5629370000000 1.0
C      1  0.4431000000000  0.4784740000000  0.4875170000000 1.0
C      1  0.5409850000000  0.4786290000000  0.4520350000000 1.0
C      1  0.5101310000000  0.4800470000000  0.5643240000000 1.0
C      1  0.5175320000000  0.4770640000000  0.5215090000000 1.0
C      1  0.5181560000000  0.4775150000000  0.4707370000000 1.0
C      1  0.4660060000000  0.4685170000000  0.5068770000000 1.0
C      1  0.4865680000000  0.4719240000000  0.5283810000000 1.0
C      1  0.4902940000000  0.4764340000000  0.4615460000000 1.0
C      1  0.5322970000000  0.4692160000000  0.4959260000000 1.0
C      1  0.4396610000000  0.5576700000000  0.4481510000000 1.0
C      1  0.4861610000000  0.5541230000000  0.5702420000000 1.0
C      1  0.5709520000000  0.5536720000000  0.4755340000000 1.0
C      1  0.5562960000000  0.5540270000000  0.4493110000000 1.0
C      1  0.5140120000000  0.5573970000000  0.5782860000000 1.0
C      1  0.4311030000000  0.5537850000000  0.4753870000000 1.0
C      1  0.4469470000000  0.4296120000000  0.5512480000000 1.0
C      1  0.5655460000000  0.4279700000000  0.5210340000000 1.0
C      1  0.4911000000000  0.4262770000000  0.4310480000000 1.0
C      1  0.5537130000000  0.4262900000000  0.5485800000000 1.0
C      1  0.4388640000000  0.4284180000000  0.5212700000000 1.0
C      1  0.5190410000000  0.4309370000000  0.4241340000000 1.0
C      1  0.4566190000000  0.4337810000000  0.5012350000000 1.0
C      1  0.5129960000000  0.4235760000000  0.5398860000000 1.0
C      1  0.5261500000000  0.4238100000000  0.4674030000000 1.0
C      1  0.5353960000000  0.4336560000000  0.4919470000000 1.0
C      1  0.4865220000000  0.4220060000000  0.5407470000000 1.0
C      1  0.4768720000000  0.4178180000000  0.4553620000000 1.0
C      1  0.4200660000000  0.4516740000000  0.5285530000000 1.0
C      1  0.5674650000000  0.4502580000000  0.5574270000000 1.0
C      1  0.5121170000000  0.4538200000000  0.4102340000000 1.0
C      1  0.5815360000000  0.4511800000000  0.5316150000000 1.0
C      1  0.4312590000000  0.4533110000000  0.5551620000000 1.0
C      1  0.4843480000000  0.4509440000000  0.4167410000000 1.0
C      1  0.4499240000000  0.4288630000000  0.4547490000000 1.0
C      1  0.4730020000000  0.4285410000000  0.5639560000000 1.0
C      1  0.5641170000000  0.4309830000000  0.4920400000000 1.0
C      1  0.5393850000000  0.4308020000000  0.4438060000000 1.0
C      1  0.5289510000000  0.4326520000000  0.5596580000000 1.0
C      1  0.4361430000000  0.4335460000000  0.4803730000000 1.0
C      1  0.4426580000000  0.5853440000000  0.5144640000000 1.0
C      1  0.5402210000000  0.5868010000000  0.5428570000000 1.0
C      1  0.5146170000000  0.5848720000000  0.4427930000000 1.0
C      1  0.5558000000000  0.5854110000000  0.5151130000000 1.0
C      1  0.4585830000000  0.5862810000000  0.5407520000000 1.0
C      1  0.4850010000000  0.5854030000000  0.4433000000000 1.0
C      1  0.4824110000000  0.5287330000000  0.3974030000000 1.0
C      1  0.4199200000000  0.5250980000000  0.5625320000000 1.0
C      1  0.5944310000000  0.5256940000000  0.5380570000000 1.0
C      1  0.5117770000000  0.5251780000000  0.3980950000000 1.0
C      1  0.5810950000000  0.5292780000000  0.5649560000000 1.0
C      1  0.4046810000000  0.5248430000000  0.5371120000000 1.0
C      1  0.4836870000000  0.5441360000000  0.4229260000000 1.0
C      1  0.4411640000000  0.5413350000000  0.5494500000000 1.0
C      1  0.5722850000000  0.5424930000000  0.5260190000000 1.0
C      1  0.5133560000000  0.5422680000000  0.4227650000000 1.0
C      1  0.5581330000000  0.5439000000000  0.5520130000000 1.0
C      1  0.4263060000000  0.5410140000000  0.5246780000000 1.0
C      1  0.4866500000000  0.5928660000000  0.5334510000000 1.0
C      1  0.5420950000000  0.5899140000000  0.4908840000000 1.0
C      1  0.4774620000000  0.5911650000000  0.4718600000000 1.0
C      1  0.5134890000000  0.5926610000000  0.5416680000000 1.0
C      1  0.4551240000000  0.5899830000000  0.4896190000000 1.0
C      1  0.5246060000000  0.5844590000000  0.4705550000000 1.0
C      1  0.5521640000000  0.4686170000000  0.5733510000000 1.0
C      1  0.5259790000000  0.4774980000000  0.4070660000000 1.0
C      1  0.4081570000000  0.4762820000000  0.5189050000000 1.0
C      1  0.4355650000000  0.4777330000000  0.5707550000000 1.0
C      1  0.4613220000000  0.4682870000000  0.4213230000000 1.0
C      1  0.5916220000000  0.4762340000000  0.5230800000000 1.0
C      1  0.4038620000000  0.5096870000000  0.4805170000000 1.0
C      1  0.5323520000000  0.5132870000000  0.5879170000000 1.0
C      1  0.5612150000000  0.5091020000000  0.4205980000000 1.0
C      1  0.5977760000000  0.5089270000000  0.4868060000000 1.0
C      1  0.4676410000000  0.5099540000000  0.5950570000000 1.0
C      1  0.4422580000000  0.5123870000000  0.4297330000000 1.0
C      1  0.5707940000000  0.5627290000000  0.5041510000000 1.0
C      1  0.4666670000000  0.5641570000000  0.4362120000000 1.0
C      1  0.4612970000000  0.5622000000000  0.5569780000000 1.0
C      1  0.4280320000000  0.5617190000000  0.5030430000000 1.0
C      1  0.5310100000000  0.5619550000000  0.4355560000000 1.0
C      1  0.5380540000000  0.5637240000000  0.5612430000000 1.0
C      1  0.4691990000000  0.4075060000000  0.5021980000000 1.0
C      1  0.5145470000000  0.3987350000000  0.5253220000000 1.0
C      1  0.5159400000000  0.4006590000000  0.4809080000000 1.0
C      1  0.5341800000000  0.4058170000000  0.5046390000000 1.0
C      1  0.4855230000000  0.3994150000000  0.5244950000000 1.0
C      1  0.4868230000000  0.4039530000000  0.4788230000000 1.0
C      1  0.4242750000000  0.5353850000000  0.4363420000000 1.0
C      1  0.4900720000000  0.5251750000000  0.6046030000000 1.0
C      1  0.5966270000000  0.5243120000000  0.4611830000000 1.0
C      1  0.5820780000000  0.5246680000000  0.4353490000000 1.0
C      1  0.5170230000000  0.5361200000000  0.5992560000000 1.0
C      1  0.4061980000000  0.5253690000000  0.4569460000000 1.0
C      1  0.4160270000000  0.4967280000000  0.5643490000000 1.0
C      1  0.5943580000000  0.4960480000000  0.5431540000000 1.0
C      1  0.4784900000000  0.4987230000000  0.3984130000000 1.0
C      1  0.5813930000000  0.4996630000000  0.5697910000000 1.0
C      1  0.4020720000000  0.4953990000000  0.5398770000000 1.0
C      1  0.5081810000000  0.4961550000000  0.3953030000000 1.0
C      1  0.4281270000000  0.4595670000000  0.4703070000000 1.0
C      1  0.5191770000000  0.4544070000000  0.5763750000000 1.0
C      1  0.5564220000000  0.4533300000000  0.4505410000000 1.0
C      1  0.5709630000000  0.4534450000000  0.4752210000000 1.0
C      1  0.4890220000000  0.4483560000000  0.5774840000000 1.0
C      1  0.4448460000000  0.4570660000000  0.4452210000000 1.0
C      1  0.5774100000000  0.5274060000000  0.4807880000000 1.0
C      1  0.4482490000000  0.5080610000000  0.4557340000000 1.0
C      1  0.4853800000000  0.5235220000000  0.5734850000000 1.0
C      1  0.4291320000000  0.5240800000000  0.4758810000000 1.0
C      1  0.5554060000000  0.5278200000000  0.4409580000000 1.0
C      1  0.5122400000000  0.5072000000000  0.5701560000000 1.0
C      1  0.4162050000000  0.4886620000000  0.4948230000000 1.0
C      1  0.5561420000000  0.4938210000000  0.5841760000000 1.0
C      1  0.5428810000000  0.4884550000000  0.4257200000000 1.0
C      1  0.5838850000000  0.4881070000000  0.4997090000000 1.0
C      1  0.4613980000000  0.4873260000000  0.5784810000000 1.0
C      1  0.4544850000000  0.4931200000000  0.4119250000000 1.0
C      1  0.5163760000000  0.5245000000000  0.4731940000000 1.0
C      1  0.4713990000000  0.5246420000000  0.4965730000000 1.0
C      1  0.5105130000000  0.5213440000000  0.5251860000000 1.0
C      1  0.4881430000000  0.5209260000000  0.4718860000000 1.0
C      1  0.5291880000000  0.5237140000000  0.4992130000000 1.0
C      1  0.4836650000000  0.5150850000000  0.5194590000000 1.0
C      1  0.5295270000000  0.5530900000000  0.5017940000000 1.0
C      1  0.4872900000000  0.5651940000000  0.4803160000000 1.0
C      1  0.4887390000000  0.5645850000000  0.5232210000000 1.0
C      1  0.4717620000000  0.5539020000000  0.5012660000000 1.0
C      1  0.5141550000000  0.5570210000000  0.4774210000000 1.0
C      1  0.5139440000000  0.5512780000000  0.5260290000000 1.0
C      1  0.5335840000000  0.4981640000000  0.5323590000000 1.0
C      1  0.4689660000000  0.4935300000000  0.5220600000000 1.0
C      1  0.4914050000000  0.5027140000000  0.4468470000000 1.0
END
