TITL C-2441168-9922-784 4.6896845438959e-07 125000 -1954.61262393833 0 0 16 (Cs) n - 1
REM
REM in /home/bkarasulu/work/CARBON/AIRSS/Generating-Clusters/ReaxFF-fromJPCA2015/Units_Real/with-SteepDescent/Higher-Symm
REM
REM
REM
REM
REM
REM ./C.cell (1df0a924f5614ab8850e4351716899ee)
REM
REM compiler GCC version 9.2.1 20190827 (Red Hat 9.2.1-1)
REM options -cpp -mtune=generic -march=x86-64 -g -O0 -fpre-include=/usr/include/finclude/math-vector-fortran.h
REM seed 1337703855 -932298270 1245731899 588718884 323013558 1776494774 -818280617 1417478474 -1917207662 724297454 -1130881527 -2101222466 1871235071 -1075071561 644034774 -640013265 -1323130926 -1121933687 -2001315242 -478202390 -314086500 -327744492 823023496 -775724984 -224990142 -586641240 -688596807 -694927456 -1530143705 -798905961 1884931164 -1345490950 1725386036
REM
CELL 1.54180   50.00000   50.00000   50.00000   90.00000   90.00000   90.00000
LATT -1
SFAC C  
C      1  0.4766880000000  0.4938400000000  0.5230720000000 1.0
C      1  0.4971720000000  0.4773550000000  0.5103400000000 1.0
C      1  0.5213060000000  0.4943030000000  0.5103210000000 1.0
C      1  0.5127660000000  0.5191740000000  0.5230440000000 1.0
C      1  0.4824520000000  0.5239840000000  0.5193620000000 1.0
C      1  0.5385020000000  0.4993800000000  0.4858950000000 1.0
C      1  0.5179930000000  0.5259520000000  0.4824560000000 1.0
C      1  0.4837040000000  0.5221610000000  0.4837550000000 1.0
C      1  0.4684980000000  0.4911930000000  0.4824930000000 1.0
C      1  0.4865320000000  0.4628840000000  0.4859380000000 1.0
C      1  0.5509550000000  0.4842640000000  0.4693110000000 1.0
C      1  0.5274390000000  0.5469580000000  0.4734780000000 1.0
C      1  0.4704810000000  0.5409750000000  0.4710540000000 1.0
C      1  0.4455260000000  0.4894320000000  0.4735340000000 1.0
C      1  0.4965030000000  0.4460200000000  0.4693590000000 1.0
C      1  0.4922750000000  0.5100170000000  0.5399260000000 1.0
END
