TITL C-2441158-471-578 -5.41268415378943e-08 125000 -7236.48534290239 0 0 52 (C4) n - 1
REM
REM in /home/bkarasulu/work/CARBON/AIRSS/Generating-Clusters/ReaxFF-fromJPCA2015/Units_Real/with-SteepDescent/Higher-Symm
REM
REM
REM
REM
REM
REM ./C.cell (1df0a924f5614ab8850e4351716899ee)
REM
REM compiler GCC version 9.2.1 20190827 (Red Hat 9.2.1-1)
REM options -cpp -mtune=generic -march=x86-64 -g -O0 -fpre-include=/usr/include/finclude/math-vector-fortran.h
REM seed -1936056671 -1854840159 1026134592 -1414975884 -1063858616 -452164429 1265780475 -48991625 -1164669000 -1975324689 90145479 1814461942 -1937956267 -2145252132 -171487361 111317576 476170647 -1612971838 -1488520047 -954183747 -1562713248 -648933642 -652492717 -1047307160 508414458 1897878432 -745539321 -2091588465 -664335852 799993887 -1554038487 143026825 -159313835
REM
CELL 1.54180   50.00000   50.00000   50.00000   90.00000   90.00000   90.00000
LATT -1
SFAC C  
C      1  0.4586030000000  0.4798500000000  0.5409260000000 1.0
C      1  0.4798500000000  0.5413970000000  0.5409260000000 1.0
C      1  0.5413970000000  0.5201500000000  0.5409260000000 1.0
C      1  0.5201500000000  0.4586030000000  0.5409260000000 1.0
C      1  0.4934940000000  0.4553340000000  0.5081250000000 1.0
C      1  0.4553340000000  0.5065060000000  0.5081250000000 1.0
C      1  0.5065060000000  0.5446660000000  0.5081250000000 1.0
C      1  0.5446660000000  0.4934940000000  0.5081250000000 1.0
C      1  0.5148810000000  0.5409770000000  0.5346960000000 1.0
C      1  0.5409770000000  0.4851190000000  0.5346960000000 1.0
C      1  0.4851190000000  0.4590230000000  0.5346960000000 1.0
C      1  0.4590230000000  0.5148810000000  0.5346960000000 1.0
C      1  0.4411290000000  0.5289160000000  0.5178200000000 1.0
C      1  0.5289160000000  0.5588710000000  0.5178200000000 1.0
C      1  0.5588710000000  0.4710840000000  0.5178200000000 1.0
C      1  0.4710840000000  0.4411290000000  0.5178200000000 1.0
C      1  0.4395040000000  0.4668020000000  0.5153880000000 1.0
C      1  0.4668020000000  0.5604960000000  0.5153880000000 1.0
C      1  0.5604960000000  0.5331980000000  0.5153880000000 1.0
C      1  0.5331980000000  0.4395040000000  0.5153880000000 1.0
C      1  0.4945350000000  0.4797710000000  0.4871780000000 1.0
C      1  0.4797710000000  0.5054650000000  0.4871780000000 1.0
C      1  0.5054650000000  0.5202290000000  0.4871780000000 1.0
C      1  0.5202290000000  0.4945350000000  0.4871780000000 1.0
C      1  0.5505940000000  0.5240650000000  0.5654430000000 1.0
C      1  0.5240650000000  0.4494060000000  0.5654430000000 1.0
C      1  0.4494060000000  0.4759350000000  0.5654430000000 1.0
C      1  0.4759350000000  0.5505940000000  0.5654430000000 1.0
C      1  0.5148670000000  0.4449070000000  0.4689740000000 1.0
C      1  0.4449070000000  0.4851330000000  0.4689740000000 1.0
C      1  0.4851330000000  0.5550930000000  0.4689740000000 1.0
C      1  0.5550930000000  0.5148670000000  0.4689740000000 1.0
C      1  0.5114250000000  0.5387210000000  0.4608250000000 1.0
C      1  0.5387210000000  0.4885750000000  0.4608250000000 1.0
C      1  0.4885750000000  0.4612790000000  0.4608250000000 1.0
C      1  0.4612790000000  0.5114250000000  0.4608250000000 1.0
C      1  0.4604080000000  0.5412130000000  0.4708870000000 1.0
C      1  0.5412130000000  0.5395920000000  0.4708870000000 1.0
C      1  0.5395920000000  0.4587870000000  0.4708870000000 1.0
C      1  0.4587870000000  0.4604080000000  0.4708870000000 1.0
C      1  0.5521950000000  0.4511290000000  0.4970000000000 1.0
C      1  0.4511290000000  0.4478050000000  0.4970000000000 1.0
C      1  0.4478050000000  0.5488710000000  0.4970000000000 1.0
C      1  0.5488710000000  0.5521950000000  0.4970000000000 1.0
C      1  0.4859150000000  0.5672180000000  0.4952680000000 1.0
C      1  0.5672180000000  0.5140850000000  0.4952680000000 1.0
C      1  0.5140850000000  0.4327820000000  0.4952680000000 1.0
C      1  0.4327820000000  0.4859150000000  0.4952680000000 1.0
C      1  0.5061990000000  0.5198830000000  0.4374710000000 1.0
C      1  0.5198830000000  0.4938010000000  0.4374710000000 1.0
C      1  0.4938010000000  0.4801170000000  0.4374710000000 1.0
C      1  0.4801170000000  0.5061990000000  0.4374710000000 1.0
END
