TITL C-2441160-1326-543 0.0656338128296859 125000 -16454.6974537615 0 0 123 (C1) n - 1
REM
REM in /home/bkarasulu/work/CARBON/AIRSS/Generating-Clusters/ReaxFF-fromJPCA2015/Units_Real/with-SteepDescent/Higher-Symm
REM
REM
REM
REM
REM
REM ./C.cell (1df0a924f5614ab8850e4351716899ee)
REM
REM compiler GCC version 9.2.1 20190827 (Red Hat 9.2.1-1)
REM options -cpp -mtune=generic -march=x86-64 -g -O0 -fpre-include=/usr/include/finclude/math-vector-fortran.h
REM seed 380076930 1066855764 -1515006395 -294383489 1653483008 445637287 -648515428 -21061669 866551932 631046057 -231915336 -2069460172 801013963 -1534157117 -835093586 -1823095196 1178781996 -241976262 1544489968 -781493213 -1581480546 402325658 1632570938 1240255205 1178452278 1045247523 1881981566 -521141402 1490245346 -207594543 1493481145 -182285025 -265413465
REM
CELL 1.54180   50.00000   50.00000   50.00000   90.00000   90.00000   90.00000
LATT -1
SFAC C  
C      1  0.5306670000000  0.5689320000000  0.5526630000000 1.0
C      1  0.5049100000000  0.4893660000000  0.5126980000000 1.0
C      1  0.5822430000000  0.4986250000000  0.5407730000000 1.0
C      1  0.5222100000000  0.4343510000000  0.5452490000000 1.0
C      1  0.4470730000000  0.5602170000000  0.4429920000000 1.0
C      1  0.5350130000000  0.4234620000000  0.5085350000000 1.0
C      1  0.4950110000000  0.4723700000000  0.4203450000000 1.0
C      1  0.4905720000000  0.5123190000000  0.5511460000000 1.0
C      1  0.4502080000000  0.5192640000000  0.4350370000000 1.0
C      1  0.5130280000000  0.4041980000000  0.4984440000000 1.0
C      1  0.4210460000000  0.4933990000000  0.4740880000000 1.0
C      1  0.4957840000000  0.4837850000000  0.5508710000000 1.0
C      1  0.5654670000000  0.5458910000000  0.4593290000000 1.0
C      1  0.4633610000000  0.5066950000000  0.5420890000000 1.0
C      1  0.5774570000000  0.4959350000000  0.5109620000000 1.0
C      1  0.5280060000000  0.5838080000000  0.4860060000000 1.0
C      1  0.5408410000000  0.4949750000000  0.4689650000000 1.0
C      1  0.5574370000000  0.5335830000000  0.5290700000000 1.0
C      1  0.4982110000000  0.5332220000000  0.5302950000000 1.0
C      1  0.4366270000000  0.4562380000000  0.5320830000000 1.0
C      1  0.4654370000000  0.5145420000000  0.5846770000000 1.0
C      1  0.5733450000000  0.5209250000000  0.4464140000000 1.0
C      1  0.5477700000000  0.4955760000000  0.5138120000000 1.0
C      1  0.5221990000000  0.4630160000000  0.5795210000000 1.0
C      1  0.4986370000000  0.4482510000000  0.4950770000000 1.0
C      1  0.4515160000000  0.4940670000000  0.4163800000000 1.0
C      1  0.4761580000000  0.4656120000000  0.5387650000000 1.0
C      1  0.4230530000000  0.5036330000000  0.5457450000000 1.0
C      1  0.4637310000000  0.5458970000000  0.4961000000000 1.0
C      1  0.4972480000000  0.5864710000000  0.5240490000000 1.0
C      1  0.4331930000000  0.5555970000000  0.5305090000000 1.0
C      1  0.5815600000000  0.4694360000000  0.4915740000000 1.0
C      1  0.4589250000000  0.5625080000000  0.5426820000000 1.0
C      1  0.5584280000000  0.4672460000000  0.4412240000000 1.0
C      1  0.4216270000000  0.5292210000000  0.5313230000000 1.0
C      1  0.4650100000000  0.4203960000000  0.4604000000000 1.0
C      1  0.4617880000000  0.5440430000000  0.4232840000000 1.0
C      1  0.5093070000000  0.5700160000000  0.4415380000000 1.0
C      1  0.5109730000000  0.5358880000000  0.5852760000000 1.0
C      1  0.5844550000000  0.5267450000000  0.5377110000000 1.0
C      1  0.5825190000000  0.5193170000000  0.4907390000000 1.0
C      1  0.5489670000000  0.4642010000000  0.5647480000000 1.0
C      1  0.4558710000000  0.5173480000000  0.4967550000000 1.0
C      1  0.5173490000000  0.4451400000000  0.4454080000000 1.0
C      1  0.4520930000000  0.4628500000000  0.5561300000000 1.0
C      1  0.4636860000000  0.4225490000000  0.4893960000000 1.0
C      1  0.4224360000000  0.5398580000000  0.4812030000000 1.0
C      1  0.5343460000000  0.4842240000000  0.4306390000000 1.0
C      1  0.5541660000000  0.5746750000000  0.5329630000000 1.0
C      1  0.4494290000000  0.4469220000000  0.5011800000000 1.0
C      1  0.4717660000000  0.5083340000000  0.4541670000000 1.0
C      1  0.5187210000000  0.5708910000000  0.5116740000000 1.0
C      1  0.4997230000000  0.5252470000000  0.4858880000000 1.0
C      1  0.4160930000000  0.4760690000000  0.4500790000000 1.0
C      1  0.4828960000000  0.5386980000000  0.5805030000000 1.0
C      1  0.4334360000000  0.4766800000000  0.4277090000000 1.0
C      1  0.5090700000000  0.4744360000000  0.4892740000000 1.0
C      1  0.5264690000000  0.5063010000000  0.4138850000000 1.0
C      1  0.5245440000000  0.5117480000000  0.5914040000000 1.0
C      1  0.5157370000000  0.4438810000000  0.5184580000000 1.0
C      1  0.5471880000000  0.5191840000000  0.5754170000000 1.0
C      1  0.5099840000000  0.4863140000000  0.5923810000000 1.0
C      1  0.4148630000000  0.4774620000000  0.4975610000000 1.0
C      1  0.4997430000000  0.5148590000000  0.4076450000000 1.0
C      1  0.5030540000000  0.5429170000000  0.4430970000000 1.0
C      1  0.4704020000000  0.4646700000000  0.5811030000000 1.0
C      1  0.4765450000000  0.4267460000000  0.4342550000000 1.0
C      1  0.4620870000000  0.4848230000000  0.5225360000000 1.0
C      1  0.5331400000000  0.5450750000000  0.5682400000000 1.0
C      1  0.4285440000000  0.4505050000000  0.4568630000000 1.0
C      1  0.4844160000000  0.4091180000000  0.5059910000000 1.0
C      1  0.5694060000000  0.4516270000000  0.5100750000000 1.0
C      1  0.5490230000000  0.4231690000000  0.4652460000000 1.0
C      1  0.4950730000000  0.4493960000000  0.5773330000000 1.0
C      1  0.4793430000000  0.4113070000000  0.5345250000000 1.0
C      1  0.4994120000000  0.5900690000000  0.4809400000000 1.0
C      1  0.5618380000000  0.4508160000000  0.5414900000000 1.0
C      1  0.4753660000000  0.5508110000000  0.5217580000000 1.0
C      1  0.4252620000000  0.4523860000000  0.4854810000000 1.0
C      1  0.4311100000000  0.5389490000000  0.4540090000000 1.0
C      1  0.4201260000000  0.4796690000000  0.5273020000000 1.0
C      1  0.5233630000000  0.4103740000000  0.4721450000000 1.0
C      1  0.5024020000000  0.4134720000000  0.5516730000000 1.0
C      1  0.5337200000000  0.4681930000000  0.4754270000000 1.0
C      1  0.5330820000000  0.5719350000000  0.4591250000000 1.0
C      1  0.5256380000000  0.5321470000000  0.4904770000000 1.0
C      1  0.5379360000000  0.4938930000000  0.5392880000000 1.0
C      1  0.5255380000000  0.5431960000000  0.5191550000000 1.0
C      1  0.5862780000000  0.5037340000000  0.4661920000000 1.0
C      1  0.4910060000000  0.5413750000000  0.4184920000000 1.0
C      1  0.5374070000000  0.5075100000000  0.4918260000000 1.0
C      1  0.4362880000000  0.5615910000000  0.5002510000000 1.0
C      1  0.4451200000000  0.5059760000000  0.5651680000000 1.0
C      1  0.5019100000000  0.5767190000000  0.5514170000000 1.0
C      1  0.4789560000000  0.5919060000000  0.5012630000000 1.0
C      1  0.4792150000000  0.5628700000000  0.5642030000000 1.0
C      1  0.5179440000000  0.4731060000000  0.5385810000000 1.0
C      1  0.4956750000000  0.4867700000000  0.4459150000000 1.0
C      1  0.4526770000000  0.4977340000000  0.4754560000000 1.0
C      1  0.4980830000000  0.4430120000000  0.4234110000000 1.0
C      1  0.4798830000000  0.4902560000000  0.5916910000000 1.0
C      1  0.4798760000000  0.4925960000000  0.4061140000000 1.0
C      1  0.4268230000000  0.5208470000000  0.5030510000000 1.0
C      1  0.5056510000000  0.4335770000000  0.4700480000000 1.0
C      1  0.5713500000000  0.5532930000000  0.5440930000000 1.0
C      1  0.5454740000000  0.5097960000000  0.4430110000000 1.0
C      1  0.4850410000000  0.5329790000000  0.4637720000000 1.0
C      1  0.5583360000000  0.5676670000000  0.5043470000000 1.0
C      1  0.5368360000000  0.5441250000000  0.4645450000000 1.0
C      1  0.5470710000000  0.4406350000000  0.4423190000000 1.0
C      1  0.4881760000000  0.5855380000000  0.4550400000000 1.0
C      1  0.4668660000000  0.4725970000000  0.4880130000000 1.0
C      1  0.5499670000000  0.4425220000000  0.4880670000000 1.0
C      1  0.4532830000000  0.5848540000000  0.4882850000000 1.0
C      1  0.4895340000000  0.5131020000000  0.5079390000000 1.0
C      1  0.4598300000000  0.5807610000000  0.4600860000000 1.0
C      1  0.4796470000000  0.4688320000000  0.4619830000000 1.0
C      1  0.5728020000000  0.5469740000000  0.4889570000000 1.0
C      1  0.5490980000000  0.4258550000000  0.5362660000000 1.0
C      1  0.4601420000000  0.4483910000000  0.4478120000000 1.0
C      1  0.5597920000000  0.4945120000000  0.5605450000000 1.0
C      1  0.4801160000000  0.4308550000000  0.5586540000000 1.0
C      1  0.5773940000000  0.4749560000000  0.4627470000000 1.0
END
