TITL C-2441158-471-1323 0.0237068966531115 125000 -10799.7123541069 0 0 81 (C1) n - 1
REM
REM in /home/bkarasulu/work/CARBON/AIRSS/Generating-Clusters/ReaxFF-fromJPCA2015/Units_Real/with-SteepDescent/Higher-Symm
REM
REM
REM
REM
REM
REM ./C.cell (1df0a924f5614ab8850e4351716899ee)
REM
REM compiler GCC version 9.2.1 20190827 (Red Hat 9.2.1-1)
REM options -cpp -mtune=generic -march=x86-64 -g -O0 -fpre-include=/usr/include/finclude/math-vector-fortran.h
REM seed -1754281819 1937301176 863304681 -1294590530 916156087 -1034684669 1528057570 -1513685278 1572213402 1809446262 -1068763070 -262829148 957617249 -939797463 -976261743 2134521226 1392866804 1870077631 -2100377218 -1120108984 119735402 1750901529 1152056066 1109107149 -841308157 398715747 1694704320 -5386326 199035222 722311210 -1192967733 -1893971481 881965281
REM
CELL 1.54180   50.00000   50.00000   50.00000   90.00000   90.00000   90.00000
LATT -1
SFAC C  
C      1  0.5690310000000  0.5386110000000  0.5008390000000 1.0
C      1  0.4650930000000  0.5394280000000  0.5595700000000 1.0
C      1  0.4661330000000  0.5359610000000  0.4418090000000 1.0
C      1  0.5654190000000  0.5467370000000  0.4733200000000 1.0
C      1  0.4930170000000  0.5499210000000  0.5633690000000 1.0
C      1  0.4472460000000  0.5464500000000  0.4580230000000 1.0
C      1  0.4425330000000  0.5095580000000  0.5182260000000 1.0
C      1  0.5135160000000  0.5099880000000  0.4439360000000 1.0
C      1  0.5453250000000  0.5099650000000  0.5402400000000 1.0
C      1  0.4194270000000  0.5057160000000  0.4691840000000 1.0
C      1  0.5697800000000  0.5047230000000  0.4448790000000 1.0
C      1  0.5142590000000  0.5062970000000  0.5851720000000 1.0
C      1  0.5304970000000  0.5357360000000  0.4440790000000 1.0
C      1  0.5384850000000  0.5368860000000  0.5531450000000 1.0
C      1  0.4364070000000  0.5343970000000  0.5040780000000 1.0
C      1  0.5290310000000  0.4694850000000  0.4325780000000 1.0
C      1  0.5453210000000  0.4695490000000  0.5587860000000 1.0
C      1  0.4259420000000  0.4689030000000  0.5106630000000 1.0
C      1  0.4576250000000  0.4928690000000  0.4966280000000 1.0
C      1  0.5251220000000  0.4947830000000  0.4667540000000 1.0
C      1  0.5170220000000  0.4961880000000  0.5381550000000 1.0
C      1  0.4592940000000  0.5619920000000  0.5419880000000 1.0
C      1  0.4729680000000  0.5592500000000  0.4592420000000 1.0
C      1  0.5529360000000  0.5617350000000  0.5091900000000 1.0
C      1  0.4688610000000  0.5756790000000  0.4915630000000 1.0
C      1  0.5454950000000  0.5656320000000  0.4804740000000 1.0
C      1  0.4863450000000  0.5714110000000  0.5434870000000 1.0
C      1  0.5266880000000  0.4427760000000  0.5161720000000 1.0
C      1  0.4740670000000  0.4423580000000  0.5161490000000 1.0
C      1  0.5006980000000  0.4424560000000  0.4709400000000 1.0
C      1  0.4904620000000  0.5118570000000  0.5296680000000 1.0
C      1  0.4763920000000  0.5061690000000  0.4801070000000 1.0
C      1  0.5297480000000  0.5096650000000  0.4920780000000 1.0
C      1  0.5708910000000  0.4838730000000  0.5151810000000 1.0
C      1  0.4520540000000  0.4840730000000  0.5537730000000 1.0
C      1  0.4792730000000  0.4836100000000  0.4331000000000 1.0
C      1  0.5733370000000  0.4888590000000  0.4688250000000 1.0
C      1  0.4913250000000  0.4903070000000  0.5785470000000 1.0
C      1  0.4372360000000  0.4892430000000  0.4536540000000 1.0
C      1  0.5619300000000  0.4682360000000  0.4710450000000 1.0
C      1  0.4948010000000  0.4686510000000  0.5693930000000 1.0
C      1  0.4443220000000  0.4682600000000  0.4620480000000 1.0
C      1  0.4163210000000  0.4831970000000  0.4874760000000 1.0
C      1  0.5545080000000  0.4826310000000  0.4338970000000 1.0
C      1  0.5307340000000  0.4828740000000  0.5798150000000 1.0
C      1  0.4553980000000  0.4617600000000  0.5020720000000 1.0
C      1  0.5215170000000  0.4643430000000  0.4628820000000 1.0
C      1  0.5232070000000  0.4630410000000  0.5383890000000 1.0
C      1  0.4804580000000  0.4660260000000  0.5211270000000 1.0
C      1  0.4929790000000  0.4652350000000  0.4739230000000 1.0
C      1  0.5274130000000  0.4666300000000  0.5084170000000 1.0
C      1  0.5644180000000  0.4861880000000  0.5433040000000 1.0
C      1  0.4307280000000  0.4863280000000  0.5341600000000 1.0
C      1  0.5065650000000  0.4868240000000  0.4248630000000 1.0
C      1  0.4818200000000  0.5347040000000  0.5145300000000 1.0
C      1  0.4972740000000  0.5501660000000  0.4706940000000 1.0
C      1  0.5231450000000  0.5346750000000  0.5056540000000 1.0
C      1  0.5166080000000  0.5338440000000  0.5711280000000 1.0
C      1  0.4316120000000  0.5325760000000  0.4766260000000 1.0
C      1  0.5576640000000  0.5315480000000  0.4505880000000 1.0
C      1  0.4781870000000  0.5099110000000  0.4488290000000 1.0
C      1  0.5597490000000  0.5112720000000  0.5097800000000 1.0
C      1  0.4621040000000  0.5115910000000  0.5471470000000 1.0
C      1  0.4730080000000  0.4629950000000  0.5523370000000 1.0
C      1  0.4697320000000  0.4623900000000  0.4513710000000 1.0
C      1  0.5585380000000  0.4628840000000  0.4982860000000 1.0
C      1  0.5335300000000  0.5506640000000  0.5279440000000 1.0
C      1  0.4578840000000  0.5517210000000  0.5116830000000 1.0
C      1  0.5236070000000  0.5569560000000  0.4621940000000 1.0
C      1  0.4990240000000  0.6012350000000  0.4999060000000 1.0
C      1  0.5006960000000  0.3796840000000  0.5008780000000 1.0
C      1  0.5029550000000  0.6505270000000  0.4992140000000 1.0
C      1  0.4985790000000  0.5011300000000  0.4994960000000 1.0
C      1  0.5005770000000  0.3530500000000  0.5008380000000 1.0
C      1  0.4998680000000  0.4748020000000  0.5009390000000 1.0
C      1  0.5011910000000  0.6261700000000  0.4993190000000 1.0
C      1  0.5001330000000  0.5460200000000  0.4984050000000 1.0
C      1  0.5004470000000  0.4315520000000  0.5009430000000 1.0
C      1  0.5004220000000  0.3291540000000  0.5007590000000 1.0
C      1  0.5004190000000  0.4029270000000  0.5010300000000 1.0
C      1  0.4935820000000  0.5768820000000  0.5126640000000 1.0
END
