TITL C-2441159-1093-976 0.000209581478345649 125000 -4910.96401051174 0 0 34 (C1) n - 1
REM
REM in /home/bkarasulu/work/CARBON/AIRSS/Generating-Clusters/ReaxFF-fromJPCA2015/Units_Real/with-SteepDescent/Higher-Symm
REM
REM
REM
REM
REM
REM ./C.cell (1df0a924f5614ab8850e4351716899ee)
REM
REM compiler GCC version 9.2.1 20190827 (Red Hat 9.2.1-1)
REM options -cpp -mtune=generic -march=x86-64 -g -O0 -fpre-include=/usr/include/finclude/math-vector-fortran.h
REM seed 284237303 -85811206 1276670921 -842705517 -597684396 1302267064 1416109835 1517353002 353936711 1474374530 -2144829023 1687758353 141452870 -917659900 -1904575483 1068539058 -206148519 -2014640812 1316916367 1587080042 -1764328472 -1834998502 30255081 -1448686421 1270078206 1701147435 -950821594 -2020490654 1345508825 1036224534 -1225897754 -1447132006 1197973231
REM
CELL 1.54180   50.00000   50.00000   50.00000   90.00000   90.00000   90.00000
LATT -1
SFAC C  
C      1  0.5516510000000  0.4870310000000  0.4592710000000 1.0
C      1  0.4666760000000  0.4624690000000  0.4579380000000 1.0
C      1  0.4848110000000  0.5482130000000  0.4566550000000 1.0
C      1  0.4674310000000  0.5213270000000  0.5408050000000 1.0
C      1  0.5218430000000  0.5217850000000  0.5433710000000 1.0
C      1  0.5031130000000  0.4585400000000  0.5428400000000 1.0
C      1  0.4946120000000  0.4393510000000  0.4800200000000 1.0
C      1  0.4507430000000  0.5355550000000  0.4804410000000 1.0
C      1  0.5576660000000  0.5248600000000  0.4781610000000 1.0
C      1  0.5100520000000  0.5453120000000  0.4619880000000 1.0
C      1  0.5364220000000  0.4680390000000  0.4672620000000 1.0
C      1  0.4570490000000  0.4841720000000  0.4671660000000 1.0
C      1  0.4795560000000  0.4417430000000  0.4550180000000 1.0
C      1  0.4613000000000  0.5484710000000  0.4564020000000 1.0
C      1  0.5646440000000  0.5078400000000  0.4562130000000 1.0
C      1  0.4778720000000  0.4984880000000  0.5533380000000 1.0
C      1  0.5073460000000  0.5020710000000  0.5585080000000 1.0
C      1  0.5217110000000  0.4762890000000  0.5542080000000 1.0
C      1  0.5600200000000  0.5165440000000  0.5067430000000 1.0
C      1  0.4795680000000  0.4359230000000  0.5049150000000 1.0
C      1  0.4599710000000  0.5414690000000  0.5064440000000 1.0
C      1  0.4686640000000  0.4805410000000  0.5310410000000 1.0
C      1  0.5069490000000  0.5393100000000  0.5260270000000 1.0
C      1  0.5361280000000  0.4791610000000  0.5285150000000 1.0
C      1  0.4534030000000  0.5042170000000  0.4849920000000 1.0
C      1  0.5294570000000  0.5380260000000  0.4786920000000 1.0
C      1  0.5204430000000  0.4563890000000  0.4847840000000 1.0
C      1  0.5210350000000  0.4771370000000  0.5040160000000 1.0
C      1  0.4736830000000  0.4928310000000  0.5042000000000 1.0
C      1  0.5098590000000  0.5275160000000  0.4991260000000 1.0
C      1  0.5456290000000  0.5068780000000  0.5300810000000 1.0
C      1  0.4785930000000  0.4514650000000  0.5306750000000 1.0
C      1  0.4769560000000  0.5455350000000  0.5293890000000 1.0
C      1  0.5018900000000  0.4988770000000  0.4983840000000 1.0
END
