TITL C-2441166-8118-1179 -3.29064079379467e-12 125000 -470.440374002717 0 0 4 (D(inf)h) n - 1
REM
REM in /home/bkarasulu/work/CARBON/AIRSS/Generating-Clusters/ReaxFF-fromJPCA2015/Units_Real/with-SteepDescent/Higher-Symm
REM
REM
REM
REM
REM
REM ./C.cell (1df0a924f5614ab8850e4351716899ee)
REM
REM compiler GCC version 9.2.1 20190827 (Red Hat 9.2.1-1)
REM options -cpp -mtune=generic -march=x86-64 -g -O0 -fpre-include=/usr/include/finclude/math-vector-fortran.h
REM seed 1391424733 -1267025492 1584474052 -1426029696 -517342051 -1786510696 288043469 -1471311614 1450605555 1550687131 1259120985 -310138814 -1498405280 -20436186 -326836712 -1130775011 -487197801 -2017694309 939136728 -493613073 1504370581 1420584899 660277418 -319887893 687754365 -441255307 -122888709 170412262 107315008 1841402299 1569984201 -1903156536 -1132152842
REM
CELL 1.54180   50.00000   50.00000   50.00000   90.00000   90.00000   90.00000
LATT -1
SFAC C  
C      1  0.5130160000000  0.4993460000000  0.5007490000000 1.0
C      1  0.4869840000000  0.4993460000000  0.5007490000000 1.0
C      1  0.4626110000000  0.4993460000000  0.5007490000000 1.0
C      1  0.5373890000000  0.4993460000000  0.5007490000000 1.0
END
