TITL C-2441157-2117-912 0.144834539913623 125000 -12585.9120236438 0 0 117 (C1) n - 1
REM
REM in /home/bkarasulu/work/CARBON/AIRSS/Generating-Clusters/ReaxFF-fromJPCA2015/Units_Real/with-SteepDescent/Higher-Symm
REM
REM
REM
REM
REM
REM ./C.cell (1df0a924f5614ab8850e4351716899ee)
REM
REM compiler GCC version 9.2.1 20190827 (Red Hat 9.2.1-1)
REM options -cpp -mtune=generic -march=x86-64 -g -O0 -fpre-include=/usr/include/finclude/math-vector-fortran.h
REM seed -1904091109 1234982368 -2113217495 1331966941 132876375 1356191628 -1102444373 -1189748945 -9544716 -250940271 273337741 923255005 672089847 -764685182 -987497998 -1942642365 1434230657 -798333381 376560698 -139348782 1918064662 1727756312 401919560 -638245220 1107875690 434995008 1594804442 243045779 -1271854553 -1272462255 -868030040 29388637 2015072874
REM
CELL 1.54180   50.00000   50.00000   50.00000   90.00000   90.00000   90.00000
LATT -1
SFAC C  
C      1  0.4550610000000  0.4270230000000  0.5214060000000 1.0
C      1  0.4150180000000  0.4903900000000  0.5216320000000 1.0
C      1  0.4390800000000  0.5581270000000  0.5226160000000 1.0
C      1  0.5067930000000  0.5840200000000  0.5225020000000 1.0
C      1  0.5701160000000  0.5463050000000  0.5231290000000 1.0
C      1  0.5823080000000  0.4722470000000  0.5231540000000 1.0
C      1  0.5297250000000  0.4202410000000  0.5211690000000 1.0
C      1  0.5698480000000  0.4777220000000  0.5486310000000 1.0
C      1  0.5259020000000  0.4336750000000  0.5474020000000 1.0
C      1  0.4641380000000  0.4353550000000  0.5500670000000 1.0
C      1  0.4271040000000  0.4915570000000  0.5479890000000 1.0
C      1  0.4473020000000  0.5489260000000  0.5482940000000 1.0
C      1  0.5046290000000  0.5710530000000  0.5484380000000 1.0
C      1  0.5590810000000  0.5415840000000  0.5493880000000 1.0
C      1  0.4851360000000  0.5287750000000  0.4260340000000 1.0
C      1  0.5131560000000  0.5315320000000  0.4260180000000 1.0
C      1  0.5316760000000  0.5097360000000  0.4247620000000 1.0
C      1  0.5266930000000  0.4815340000000  0.4259420000000 1.0
C      1  0.5019360000000  0.4668100000000  0.4264360000000 1.0
C      1  0.4750680000000  0.4773850000000  0.4267130000000 1.0
C      1  0.4684490000000  0.5055260000000  0.4262620000000 1.0
C      1  0.4729590000000  0.5493130000000  0.4680590000000 1.0
C      1  0.5190940000000  0.5621830000000  0.4747640000000 1.0
C      1  0.5592150000000  0.5203120000000  0.4731910000000 1.0
C      1  0.5537290000000  0.4673220000000  0.4728420000000 1.0
C      1  0.5106230000000  0.4372590000000  0.4732560000000 1.0
C      1  0.4581320000000  0.4546760000000  0.4742300000000 1.0
C      1  0.4353530000000  0.5057140000000  0.4722970000000 1.0
C      1  0.5490920000000  0.4667470000000  0.4337590000000 1.0
C      1  0.5044050000000  0.4397760000000  0.4337610000000 1.0
C      1  0.4542990000000  0.4593560000000  0.4340870000000 1.0
C      1  0.4417750000000  0.5102530000000  0.4335980000000 1.0
C      1  0.4713120000000  0.5531720000000  0.4341350000000 1.0
C      1  0.5234220000000  0.5570640000000  0.4348790000000 1.0
C      1  0.5576630000000  0.5171620000000  0.4324850000000 1.0
C      1  0.5326930000000  0.5223000000000  0.4707570000000 1.0
C      1  0.5363420000000  0.4836270000000  0.4759900000000 1.0
C      1  0.5132390000000  0.4630640000000  0.4757090000000 1.0
C      1  0.4793100000000  0.4677630000000  0.4736430000000 1.0
C      1  0.4593570000000  0.4976770000000  0.4711500000000 1.0
C      1  0.4696400000000  0.5233420000000  0.4748420000000 1.0
C      1  0.4997060000000  0.5472930000000  0.4790340000000 1.0
C      1  0.4956810000000  0.4387300000000  0.5437430000000 1.0
C      1  0.4452030000000  0.4699080000000  0.5431010000000 1.0
C      1  0.4408630000000  0.5204520000000  0.5421010000000 1.0
C      1  0.4784550000000  0.5588280000000  0.5421540000000 1.0
C      1  0.5337900000000  0.5547960000000  0.5425280000000 1.0
C      1  0.5631610000000  0.5058440000000  0.5437040000000 1.0
C      1  0.5455260000000  0.4565080000000  0.5418680000000 1.0
C      1  0.5351980000000  0.4939840000000  0.5759840000000 1.0
C      1  0.5177810000000  0.4659780000000  0.5727550000000 1.0
C      1  0.4861600000000  0.4659980000000  0.5736220000000 1.0
C      1  0.4662070000000  0.4907380000000  0.5760540000000 1.0
C      1  0.4720720000000  0.5221930000000  0.5751710000000 1.0
C      1  0.4996790000000  0.5379060000000  0.5728290000000 1.0
C      1  0.5291720000000  0.5261210000000  0.5731370000000 1.0
C      1  0.4338710000000  0.4451070000000  0.4677470000000 1.0
C      1  0.4121400000000  0.5203980000000  0.4708810000000 1.0
C      1  0.4622110000000  0.5779860000000  0.4702160000000 1.0
C      1  0.5385550000000  0.5789920000000  0.4673660000000 1.0
C      1  0.5864320000000  0.5180150000000  0.4701940000000 1.0
C      1  0.5722750000000  0.4497520000000  0.4695830000000 1.0
C      1  0.5014260000000  0.4112840000000  0.4677280000000 1.0
C      1  0.4926100000000  0.5319890000000  0.5428770000000 1.0
C      1  0.5210700000000  0.5262620000000  0.5420130000000 1.0
C      1  0.5339550000000  0.5004920000000  0.5449550000000 1.0
C      1  0.5217500000000  0.4753370000000  0.5426190000000 1.0
C      1  0.4934920000000  0.4682640000000  0.5425370000000 1.0
C      1  0.4706810000000  0.4855750000000  0.5435070000000 1.0
C      1  0.4707990000000  0.5138180000000  0.5440960000000 1.0
C      1  0.5899430000000  0.5135620000000  0.4990640000000 1.0
C      1  0.5702050000000  0.4405110000000  0.4993530000000 1.0
C      1  0.4966780000000  0.4093710000000  0.4984080000000 1.0
C      1  0.4265370000000  0.4469860000000  0.4988330000000 1.0
C      1  0.4125280000000  0.5241940000000  0.5003780000000 1.0
C      1  0.4643840000000  0.5847070000000  0.4985290000000 1.0
C      1  0.5468010000000  0.5806590000000  0.4976930000000 1.0
C      1  0.5861450000000  0.4882080000000  0.4652030000000 1.0
C      1  0.5491070000000  0.4289130000000  0.4658800000000 1.0
C      1  0.4720070000000  0.4173060000000  0.4659060000000 1.0
C      1  0.4181450000000  0.4707100000000  0.4660840000000 1.0
C      1  0.4276700000000  0.5454320000000  0.4667390000000 1.0
C      1  0.4891700000000  0.5876780000000  0.4652630000000 1.0
C      1  0.5627300000000  0.5603920000000  0.4656770000000 1.0
C      1  0.5357720000000  0.4956920000000  0.5050970000000 1.0
C      1  0.5094480000000  0.4617830000000  0.5031300000000 1.0
C      1  0.4834960000000  0.4703440000000  0.5016480000000 1.0
C      1  0.4631200000000  0.4944120000000  0.5038620000000 1.0
C      1  0.4740660000000  0.5241840000000  0.5033350000000 1.0
C      1  0.5022050000000  0.5340730000000  0.5023180000000 1.0
C      1  0.5289250000000  0.5255230000000  0.4984590000000 1.0
C      1  0.5863910000000  0.4859580000000  0.4962890000000 1.0
C      1  0.5466310000000  0.4245310000000  0.4964170000000 1.0
C      1  0.4692000000000  0.4170350000000  0.4967040000000 1.0
C      1  0.4166950000000  0.4737270000000  0.4961880000000 1.0
C      1  0.4275130000000  0.5482210000000  0.4973770000000 1.0
C      1  0.4923480000000  0.5894000000000  0.4969610000000 1.0
C      1  0.5653220000000  0.5596610000000  0.4965330000000 1.0
C      1  0.5560220000000  0.4621540000000  0.5139470000000 1.0
C      1  0.5045090000000  0.4351660000000  0.5136570000000 1.0
C      1  0.4473540000000  0.4542230000000  0.5180110000000 1.0
C      1  0.4319370000000  0.5111640000000  0.5143990000000 1.0
C      1  0.4671830000000  0.5595770000000  0.5148010000000 1.0
C      1  0.5291570000000  0.5679040000000  0.5163460000000 1.0
C      1  0.5705330000000  0.5184550000000  0.5184870000000 1.0
C      1  0.4431220000000  0.5373930000000  0.4436560000000 1.0
C      1  0.4961280000000  0.5694260000000  0.4423820000000 1.0
C      1  0.5510040000000  0.5459260000000  0.4426820000000 1.0
C      1  0.5668210000000  0.4901770000000  0.4427860000000 1.0
C      1  0.5357570000000  0.4414910000000  0.4426800000000 1.0
C      1  0.4769240000000  0.4357960000000  0.4434320000000 1.0
C      1  0.4351100000000  0.4800350000000  0.4425830000000 1.0
C      1  0.5020160000000  0.5000600000000  0.5663560000000 1.0
C      1  0.5001720000000  0.5010370000000  0.5945020000000 1.0
C      1  0.5004260000000  0.5000430000000  0.4829750000000 1.0
C      1  0.5055880000000  0.4964280000000  0.5124640000000 1.0
C      1  0.5060680000000  0.5048810000000  0.4567960000000 1.0
END
