TITL C-2441162-9305-1467 0.141141850558576 125000 -20519.3596760682 0 0 164 (C1) n - 1
REM
REM in /home/bkarasulu/work/CARBON/AIRSS/Generating-Clusters/ReaxFF-fromJPCA2015/Units_Real/with-SteepDescent/Higher-Symm
REM
REM
REM
REM
REM
REM ./C.cell (1df0a924f5614ab8850e4351716899ee)
REM
REM compiler GCC version 9.2.1 20190827 (Red Hat 9.2.1-1)
REM options -cpp -mtune=generic -march=x86-64 -g -O0 -fpre-include=/usr/include/finclude/math-vector-fortran.h
REM seed -1431917594 2102084417 -1438586285 -1773550289 -1114458304 5258879 -1531492666 -962212133 32411162 1514769108 1587276236 1711735198 1328994065 378598403 -935731427 747653728 1355174906 -1268181700 1435609806 811968143 335080535 -435285013 741183984 1892034033 497601237 -927290895 -454157324 -14320231 295637912 -1190114105 -648133401 1539872746 148660683
REM
CELL 1.54180   50.00000   50.00000   50.00000   90.00000   90.00000   90.00000
LATT -1
SFAC C  
C      1  0.5017430000000  0.4738240000000  0.4033490000000 1.0
C      1  0.4773300000000  0.4897200000000  0.4054390000000 1.0
C      1  0.4834190000000  0.5199270000000  0.4061830000000 1.0
C      1  0.5131300000000  0.5218510000000  0.4052420000000 1.0
C      1  0.5238580000000  0.4927490000000  0.4053690000000 1.0
C      1  0.5060310000000  0.4552280000000  0.4875410000000 1.0
C      1  0.4603010000000  0.4830680000000  0.4835380000000 1.0
C      1  0.4699290000000  0.5327320000000  0.4845310000000 1.0
C      1  0.5185160000000  0.5417220000000  0.4852190000000 1.0
C      1  0.5438030000000  0.4908560000000  0.4816380000000 1.0
C      1  0.4533370000000  0.4880650000000  0.5401130000000 1.0
C      1  0.4774900000000  0.5311710000000  0.5338350000000 1.0
C      1  0.5221180000000  0.5272310000000  0.5317170000000 1.0
C      1  0.5395430000000  0.4817890000000  0.5357740000000 1.0
C      1  0.4953710000000  0.4540420000000  0.5402640000000 1.0
C      1  0.5476200000000  0.4951070000000  0.5825100000000 1.0
C      1  0.4959220000000  0.4527090000000  0.5829460000000 1.0
C      1  0.4567710000000  0.5007820000000  0.5937680000000 1.0
C      1  0.4845190000000  0.5341370000000  0.5844730000000 1.0
C      1  0.5266150000000  0.5394440000000  0.5820250000000 1.0
C      1  0.4369300000000  0.4925990000000  0.4963750000000 1.0
C      1  0.4724760000000  0.5576890000000  0.4972010000000 1.0
C      1  0.5439390000000  0.5434640000000  0.4975940000000 1.0
C      1  0.5550060000000  0.4714060000000  0.4974680000000 1.0
C      1  0.4877030000000  0.4377750000000  0.4985430000000 1.0
C      1  0.4017080000000  0.5144440000000  0.4805200000000 1.0
C      1  0.4808630000000  0.5976930000000  0.4796060000000 1.0
C      1  0.5887100000000  0.5413400000000  0.4862470000000 1.0
C      1  0.5657460000000  0.4287890000000  0.4865240000000 1.0
C      1  0.4573060000000  0.4121510000000  0.4783720000000 1.0
C      1  0.4280620000000  0.5571720000000  0.5269150000000 1.0
C      1  0.5444720000000  0.5824280000000  0.5296500000000 1.0
C      1  0.5906110000000  0.4817120000000  0.5278230000000 1.0
C      1  0.5094420000000  0.4067360000000  0.5248150000000 1.0
C      1  0.4181440000000  0.4563480000000  0.5275720000000 1.0
C      1  0.5213380000000  0.6000420000000  0.5202790000000 1.0
C      1  0.5996470000000  0.5078830000000  0.5228580000000 1.0
C      1  0.5378880000000  0.4033910000000  0.5221250000000 1.0
C      1  0.4179470000000  0.4288230000000  0.5137400000000 1.0
C      1  0.4099040000000  0.5447320000000  0.5171550000000 1.0
C      1  0.5132270000000  0.5190800000000  0.4371790000000 1.0
C      1  0.5237630000000  0.4930100000000  0.4373570000000 1.0
C      1  0.5005950000000  0.4823130000000  0.4505720000000 1.0
C      1  0.4779090000000  0.4912260000000  0.4383190000000 1.0
C      1  0.4854290000000  0.5178980000000  0.4375490000000 1.0
C      1  0.5112130000000  0.5933140000000  0.4932650000000 1.0
C      1  0.5962940000000  0.5145230000000  0.4934070000000 1.0
C      1  0.5439300000000  0.4125630000000  0.4922990000000 1.0
C      1  0.4334460000000  0.4311780000000  0.4887810000000 1.0
C      1  0.4075000000000  0.5416180000000  0.4897140000000 1.0
C      1  0.5278270000000  0.4197020000000  0.4194990000000 1.0
C      1  0.4307520000000  0.4495360000000  0.4158570000000 1.0
C      1  0.4305300000000  0.5512240000000  0.4178810000000 1.0
C      1  0.5262280000000  0.5821380000000  0.4171600000000 1.0
C      1  0.5868410000000  0.5024730000000  0.4186460000000 1.0
C      1  0.4973270000000  0.5684050000000  0.5061110000000 1.0
C      1  0.5616030000000  0.5261360000000  0.5132750000000 1.0
C      1  0.5454080000000  0.4592990000000  0.5205510000000 1.0
C      1  0.4628180000000  0.4415910000000  0.5132110000000 1.0
C      1  0.4373850000000  0.5049770000000  0.5217600000000 1.0
C      1  0.4571060000000  0.4859300000000  0.4561470000000 1.0
C      1  0.4734540000000  0.5354800000000  0.4571200000000 1.0
C      1  0.5241690000000  0.5366210000000  0.4576690000000 1.0
C      1  0.5457170000000  0.4882440000000  0.4546930000000 1.0
C      1  0.5017750000000  0.4550290000000  0.4601050000000 1.0
C      1  0.4587160000000  0.4509370000000  0.4213540000000 1.0
C      1  0.4403850000000  0.5247740000000  0.4227770000000 1.0
C      1  0.5034690000000  0.5655280000000  0.4215100000000 1.0
C      1  0.5631980000000  0.5174640000000  0.4234350000000 1.0
C      1  0.5341420000000  0.4466030000000  0.4247700000000 1.0
C      1  0.4955600000000  0.3978260000000  0.4682810000000 1.0
C      1  0.4012920000000  0.4743890000000  0.4678850000000 1.0
C      1  0.4418180000000  0.5835070000000  0.4715260000000 1.0
C      1  0.5622780000000  0.5798550000000  0.4676170000000 1.0
C      1  0.5965000000000  0.4644120000000  0.4675000000000 1.0
C      1  0.5559330000000  0.5355150000000  0.5784880000000 1.0
C      1  0.5451440000000  0.4539710000000  0.5852390000000 1.0
C      1  0.4750560000000  0.4368340000000  0.5807600000000 1.0
C      1  0.4313620000000  0.5007430000000  0.5783160000000 1.0
C      1  0.4771400000000  0.5603780000000  0.5752840000000 1.0
C      1  0.4637790000000  0.5582670000000  0.4432790000000 1.0
C      1  0.5412490000000  0.5503480000000  0.4404750000000 1.0
C      1  0.5636760000000  0.4745570000000  0.4392940000000 1.0
C      1  0.4950180000000  0.4344370000000  0.4422470000000 1.0
C      1  0.4347440000000  0.4844020000000  0.4403410000000 1.0
C      1  0.5816620000000  0.4717650000000  0.5038280000000 1.0
C      1  0.4981500000000  0.4145260000000  0.5034150000000 1.0
C      1  0.4178970000000  0.4735430000000  0.5044840000000 1.0
C      1  0.4518670000000  0.5723650000000  0.5125670000000 1.0
C      1  0.5509720000000  0.5687920000000  0.5049020000000 1.0
C      1  0.5002370000000  0.4353600000000  0.5623250000000 1.0
C      1  0.4309780000000  0.4754110000000  0.5622840000000 1.0
C      1  0.4518420000000  0.5646980000000  0.5621610000000 1.0
C      1  0.5454140000000  0.5596400000000  0.5696230000000 1.0
C      1  0.5642360000000  0.4737130000000  0.5749810000000 1.0
C      1  0.5022070000000  0.5421830000000  0.5438710000000 1.0
C      1  0.5463290000000  0.5105050000000  0.5367330000000 1.0
C      1  0.5113100000000  0.4782370000000  0.5375510000000 1.0
C      1  0.4717100000000  0.4668650000000  0.5274700000000 1.0
C      1  0.4717400000000  0.5082910000000  0.5497700000000 1.0
C      1  0.5240700000000  0.4039150000000  0.4703920000000 1.0
C      1  0.4162550000000  0.4491740000000  0.4681080000000 1.0
C      1  0.4216860000000  0.5635340000000  0.4700470000000 1.0
C      1  0.5354140000000  0.5908520000000  0.4706390000000 1.0
C      1  0.5997390000000  0.4934970000000  0.4700550000000 1.0
C      1  0.5318950000000  0.5011900000000  0.6066550000000 1.0
C      1  0.5188680000000  0.4629510000000  0.5953000000000 1.0
C      1  0.4729890000000  0.4823650000000  0.6080040000000 1.0
C      1  0.4624990000000  0.5310670000000  0.6031600000000 1.0
C      1  0.5269510000000  0.5304250000000  0.6111880000000 1.0
C      1  0.5756800000000  0.5448070000000  0.5317730000000 1.0
C      1  0.5647140000000  0.4450860000000  0.5382650000000 1.0
C      1  0.4642690000000  0.4224940000000  0.5355270000000 1.0
C      1  0.4126380000000  0.5061770000000  0.5372490000000 1.0
C      1  0.4863500000000  0.5803920000000  0.5315600000000 1.0
C      1  0.5884830000000  0.4467080000000  0.4902870000000 1.0
C      1  0.4787310000000  0.3982800000000  0.4920080000000 1.0
C      1  0.3962110000000  0.4891040000000  0.4930880000000 1.0
C      1  0.4558400000000  0.5955590000000  0.4930110000000 1.0
C      1  0.5764310000000  0.5673730000000  0.4910350000000 1.0
C      1  0.5978240000000  0.5093170000000  0.4458380000000 1.0
C      1  0.5384720000000  0.4103330000000  0.4451930000000 1.0
C      1  0.4255450000000  0.4380490000000  0.4428840000000 1.0
C      1  0.4161390000000  0.5515060000000  0.4440300000000 1.0
C      1  0.5233450000000  0.5946370000000  0.4446160000000 1.0
C      1  0.4600030000000  0.5797540000000  0.5387070000000 1.0
C      1  0.5595090000000  0.5639180000000  0.5462360000000 1.0
C      1  0.5791500000000  0.4673570000000  0.5494770000000 1.0
C      1  0.4904030000000  0.4138840000000  0.5448620000000 1.0
C      1  0.4085600000000  0.4780820000000  0.5439560000000 1.0
C      1  0.5913590000000  0.5244120000000  0.5449790000000 1.0
C      1  0.5440400000000  0.4121200000000  0.5479920000000 1.0
C      1  0.4269220000000  0.4430840000000  0.5657030000000 1.0
C      1  0.4277510000000  0.5490360000000  0.5541210000000 1.0
C      1  0.5210820000000  0.5909340000000  0.5469310000000 1.0
C      1  0.5186900000000  0.4992110000000  0.4918390000000 1.0
C      1  0.5056780000000  0.4788550000000  0.5030400000000 1.0
C      1  0.4797540000000  0.4861920000000  0.5046080000000 1.0
C      1  0.4806020000000  0.5170510000000  0.5070940000000 1.0
C      1  0.5104880000000  0.5225600000000  0.5049900000000 1.0
C      1  0.4547640000000  0.4395040000000  0.4474250000000 1.0
C      1  0.4261580000000  0.5236790000000  0.4485140000000 1.0
C      1  0.4999610000000  0.5765860000000  0.4485750000000 1.0
C      1  0.5743030000000  0.5279920000000  0.4493460000000 1.0
C      1  0.5479810000000  0.4385420000000  0.4503510000000 1.0
C      1  0.4538800000000  0.4320120000000  0.5615520000000 1.0
C      1  0.4207420000000  0.5216070000000  0.5612100000000 1.0
C      1  0.5007630000000  0.5707030000000  0.5555350000000 1.0
C      1  0.5676430000000  0.5158350000000  0.5611670000000 1.0
C      1  0.5494220000000  0.4344600000000  0.5624550000000 1.0
C      1  0.4099090000000  0.4977660000000  0.4491590000000 1.0
C      1  0.4717470000000  0.5865350000000  0.4535780000000 1.0
C      1  0.5680700000000  0.5574550000000  0.4489540000000 1.0
C      1  0.5758880000000  0.4502330000000  0.4506640000000 1.0
C      1  0.4723300000000  0.4151760000000  0.4521930000000 1.0
C      1  0.4443630000000  0.4764200000000  0.4135830000000 1.0
C      1  0.4606700000000  0.5466910000000  0.4161530000000 1.0
C      1  0.5295290000000  0.5521460000000  0.4126130000000 1.0
C      1  0.5601020000000  0.4887360000000  0.4135850000000 1.0
C      1  0.5042380000000  0.4442200000000  0.4158730000000 1.0
C      1  0.4978330000000  0.4993900000000  0.5528940000000 1.0
C      1  0.5041230000000  0.5105600000000  0.5773310000000 1.0
C      1  0.5040950000000  0.4890220000000  0.5995350000000 1.0
C      1  0.4998610000000  0.5038190000000  0.4706440000000 1.0
END
