TITL C-2441160-1326-826 -0.0025085799282104 125000 -6182.58316438547 0 0 44 (C1) n - 1
REM
REM in /home/bkarasulu/work/CARBON/AIRSS/Generating-Clusters/ReaxFF-fromJPCA2015/Units_Real/with-SteepDescent/Higher-Symm
REM
REM
REM
REM
REM
REM ./C.cell (1df0a924f5614ab8850e4351716899ee)
REM
REM compiler GCC version 9.2.1 20190827 (Red Hat 9.2.1-1)
REM options -cpp -mtune=generic -march=x86-64 -g -O0 -fpre-include=/usr/include/finclude/math-vector-fortran.h
REM seed 1751238508 -879898189 -1951993703 -1414267148 -2122941856 485677704 -157329516 -1705969844 1592024054 362163412 -1954631340 -1119456407 193964984 -1555340095 -1706772842 1820376859 1221460680 -614623001 -1127729131 1720323731 1232284637 1864453405 2046468929 269633043 1255315170 -1672797057 -1984275213 1925840714 -1584778026 -616149130 -2016964654 -1470732686 -788165332
REM
CELL 1.54180   50.00000   50.00000   50.00000   90.00000   90.00000   90.00000
LATT -1
SFAC C  
C      1  0.5478500000000  0.4772400000000  0.5333870000000 1.0
C      1  0.5493640000000  0.5065040000000  0.5288890000000 1.0
C      1  0.5386180000000  0.5351970000000  0.5322360000000 1.0
C      1  0.5129880000000  0.5500080000000  0.5281340000000 1.0
C      1  0.4834050000000  0.5515890000000  0.5332430000000 1.0
C      1  0.4579570000000  0.5347450000000  0.5334510000000 1.0
C      1  0.4487700000000  0.5066290000000  0.5279670000000 1.0
C      1  0.4550830000000  0.4776420000000  0.5342540000000 1.0
C      1  0.4752530000000  0.4558090000000  0.5278670000000 1.0
C      1  0.5028110000000  0.4467560000000  0.5325070000000 1.0
C      1  0.5298300000000  0.4553150000000  0.5309610000000 1.0
C      1  0.5161780000000  0.5667540000000  0.4790010000000 1.0
C      1  0.4664000000000  0.5760100000000  0.4908590000000 1.0
C      1  0.4416420000000  0.5591870000000  0.4909510000000 1.0
C      1  0.4318970000000  0.5093210000000  0.4790650000000 1.0
C      1  0.4248390000000  0.4646060000000  0.4899660000000 1.0
C      1  0.4643570000000  0.4401960000000  0.4784720000000 1.0
C      1  0.5005980000000  0.4217340000000  0.4906760000000 1.0
C      1  0.5476900000000  0.4385880000000  0.4891160000000 1.0
C      1  0.5756700000000  0.4691880000000  0.4921540000000 1.0
C      1  0.5648100000000  0.5084270000000  0.4789780000000 1.0
C      1  0.5625570000000  0.5560320000000  0.4872870000000 1.0
C      1  0.5163280000000  0.4508080000000  0.4650490000000 1.0
C      1  0.5439310000000  0.4569350000000  0.4668470000000 1.0
C      1  0.5640760000000  0.4808060000000  0.4693710000000 1.0
C      1  0.5601370000000  0.5349420000000  0.4671110000000 1.0
C      1  0.5410820000000  0.5571980000000  0.4671240000000 1.0
C      1  0.4866270000000  0.5649800000000  0.4714590000000 1.0
C      1  0.4700530000000  0.5439330000000  0.4651070000000 1.0
C      1  0.4444530000000  0.5363420000000  0.4715810000000 1.0
C      1  0.4315530000000  0.4829080000000  0.4671250000000 1.0
C      1  0.4419170000000  0.4556860000000  0.4676320000000 1.0
C      1  0.4930620000000  0.4351940000000  0.4666350000000 1.0
C      1  0.5747500000000  0.4673640000000  0.5212660000000 1.0
C      1  0.5709260000000  0.5109400000000  0.5091860000000 1.0
C      1  0.5576430000000  0.5518800000000  0.5170380000000 1.0
C      1  0.5187580000000  0.5720120000000  0.5083770000000 1.0
C      1  0.4754610000000  0.5768450000000  0.5199190000000 1.0
C      1  0.4373240000000  0.5511670000000  0.5199990000000 1.0
C      1  0.4255380000000  0.5085910000000  0.5084460000000 1.0
C      1  0.4353500000000  0.4678690000000  0.5167760000000 1.0
C      1  0.4625540000000  0.4362140000000  0.5082290000000 1.0
C      1  0.5035300000000  0.4182380000000  0.5194620000000 1.0
C      1  0.5463820000000  0.4316740000000  0.5168400000000 1.0
END
