TITL C-2441161-5029-204 0.0386733606464348 125000 -13346.265273834 0 0 97 (C1) n - 1
REM
REM in /home/bkarasulu/work/CARBON/AIRSS/Generating-Clusters/ReaxFF-fromJPCA2015/Units_Real/with-SteepDescent/Higher-Symm
REM
REM
REM
REM
REM
REM ./C.cell (1df0a924f5614ab8850e4351716899ee)
REM
REM compiler GCC version 9.2.1 20190827 (Red Hat 9.2.1-1)
REM options -cpp -mtune=generic -march=x86-64 -g -O0 -fpre-include=/usr/include/finclude/math-vector-fortran.h
REM seed 416989469 1773780196 -1928947002 1857689818 530087720 1553111739 1799392222 -1679976751 -1476331568 -1776271316 41088613 487910991 -1545068742 -345019526 -868713867 -1519676303 -1138820478 -520619634 168298617 779774871 909188443 1186394108 -2015702799 65664164 640031398 -1286519457 -596199344 -1354993135 1972626668 457034410 -326144284 1900985285 1322757817
REM
CELL 1.54180   50.00000   50.00000   50.00000   90.00000   90.00000   90.00000
LATT -1
SFAC C  
C      1  0.4456720000000  0.4395790000000  0.5125990000000 1.0
C      1  0.5791560000000  0.4822880000000  0.5130980000000 1.0
C      1  0.4737980000000  0.5766210000000  0.5167070000000 1.0
C      1  0.5374990000000  0.5610010000000  0.5334370000000 1.0
C      1  0.4241210000000  0.5023660000000  0.5391100000000 1.0
C      1  0.5316150000000  0.4338200000000  0.5393410000000 1.0
C      1  0.5682900000000  0.5225460000000  0.5411520000000 1.0
C      1  0.4490590000000  0.5423150000000  0.5371550000000 1.0
C      1  0.4781540000000  0.4268290000000  0.5364230000000 1.0
C      1  0.5224820000000  0.4445570000000  0.4844130000000 1.0
C      1  0.5396140000000  0.5517060000000  0.4845350000000 1.0
C      1  0.4343550000000  0.5091690000000  0.4827950000000 1.0
C      1  0.4748810000000  0.5770120000000  0.5477550000000 1.0
C      1  0.4679450000000  0.4435960000000  0.5585800000000 1.0
C      1  0.5732850000000  0.4885900000000  0.5606240000000 1.0
C      1  0.4101740000000  0.5101640000000  0.5002570000000 1.0
C      1  0.5342170000000  0.4200410000000  0.4987900000000 1.0
C      1  0.5534750000000  0.5732590000000  0.4970010000000 1.0
C      1  0.4729670000000  0.5423060000000  0.4381760000000 1.0
C      1  0.4872190000000  0.4514310000000  0.4375370000000 1.0
C      1  0.5499700000000  0.5170360000000  0.4338930000000 1.0
C      1  0.4660380000000  0.5468800000000  0.5139700000000 1.0
C      1  0.4762720000000  0.4494210000000  0.5160420000000 1.0
C      1  0.5582310000000  0.5051590000000  0.5187380000000 1.0
C      1  0.4904420000000  0.5262020000000  0.5425660000000 1.0
C      1  0.4792910000000  0.4736560000000  0.5339840000000 1.0
C      1  0.5332350000000  0.4975470000000  0.5336950000000 1.0
C      1  0.5064330000000  0.4183300000000  0.5330930000000 1.0
C      1  0.5642090000000  0.5495530000000  0.5303080000000 1.0
C      1  0.4229940000000  0.5315640000000  0.5337400000000 1.0
C      1  0.5405850000000  0.4692060000000  0.4870660000000 1.0
C      1  0.5119940000000  0.5522730000000  0.4922290000000 1.0
C      1  0.4491370000000  0.4836390000000  0.4874980000000 1.0
C      1  0.4132490000000  0.5381860000000  0.5076560000000 1.0
C      1  0.5089830000000  0.4079290000000  0.5064660000000 1.0
C      1  0.5754060000000  0.5552140000000  0.5045840000000 1.0
C      1  0.4304790000000  0.4626120000000  0.4790140000000 1.0
C      1  0.5675220000000  0.4589130000000  0.4801970000000 1.0
C      1  0.5002460000000  0.5774260000000  0.4810990000000 1.0
C      1  0.4641240000000  0.5264920000000  0.5548930000000 1.0
C      1  0.4919880000000  0.4599260000000  0.5570490000000 1.0
C      1  0.5431070000000  0.5172740000000  0.5539830000000 1.0
C      1  0.4247440000000  0.4751750000000  0.4532460000000 1.0
C      1  0.5581970000000  0.4444740000000  0.4563030000000 1.0
C      1  0.5127370000000  0.5767350000000  0.4544830000000 1.0
C      1  0.4707070000000  0.4596480000000  0.4603730000000 1.0
C      1  0.5529660000000  0.4945950000000  0.4523020000000 1.0
C      1  0.4745820000000  0.5380020000000  0.4673180000000 1.0
C      1  0.5073620000000  0.4885390000000  0.5864140000000 1.0
C      1  0.5046740000000  0.5132050000000  0.5728000000000 1.0
C      1  0.4831970000000  0.5018660000000  0.5897900000000 1.0
C      1  0.4393810000000  0.5194740000000  0.4399180000000 1.0
C      1  0.5129870000000  0.4366650000000  0.4388640000000 1.0
C      1  0.5456650000000  0.5454320000000  0.4407310000000 1.0
C      1  0.4151350000000  0.4865130000000  0.5168470000000 1.0
C      1  0.5514110000000  0.4335490000000  0.5179980000000 1.0
C      1  0.5309240000000  0.5821180000000  0.5145860000000 1.0
C      1  0.4575490000000  0.4196430000000  0.4969690000000 1.0
C      1  0.5933590000000  0.5030670000000  0.4973740000000 1.0
C      1  0.4461250000000  0.5805150000000  0.4997340000000 1.0
C      1  0.4209730000000  0.5045690000000  0.4547150000000 1.0
C      1  0.5324920000000  0.4309310000000  0.4596180000000 1.0
C      1  0.5404010000000  0.5672720000000  0.4591370000000 1.0
C      1  0.5168580000000  0.5370270000000  0.4454030000000 1.0
C      1  0.4554220000000  0.4985920000000  0.4324660000000 1.0
C      1  0.5264380000000  0.4599940000000  0.4288710000000 1.0
C      1  0.4226150000000  0.4589860000000  0.5066360000000 1.0
C      1  0.5724510000000  0.4529280000000  0.5084750000000 1.0
C      1  0.5034420000000  0.5892200000000  0.5070150000000 1.0
C      1  0.4988590000000  0.5294270000000  0.4803980000000 1.0
C      1  0.4766880000000  0.4795990000000  0.4811910000000 1.0
C      1  0.5373700000000  0.4965210000000  0.4770860000000 1.0
C      1  0.4906370000000  0.4862180000000  0.5066110000000 1.0
C      1  0.5155020000000  0.4984420000000  0.5101590000000 1.0
C      1  0.4934980000000  0.5168280000000  0.5099300000000 1.0
C      1  0.5231810000000  0.5568380000000  0.5584570000000 1.0
C      1  0.4406840000000  0.4900440000000  0.5603840000000 1.0
C      1  0.5356800000000  0.4526350000000  0.5609620000000 1.0
C      1  0.5015880000000  0.4731790000000  0.4245220000000 1.0
C      1  0.5215870000000  0.5156970000000  0.4264520000000 1.0
C      1  0.4764330000000  0.5157130000000  0.4241820000000 1.0
C      1  0.5283310000000  0.5322650000000  0.5727160000000 1.0
C      1  0.4582550000000  0.5073480000000  0.5762680000000 1.0
C      1  0.5130980000000  0.4634310000000  0.5759150000000 1.0
C      1  0.4526160000000  0.5375360000000  0.4881860000000 1.0
C      1  0.4917020000000  0.4436360000000  0.4898800000000 1.0
C      1  0.5522440000000  0.5201120000000  0.4906180000000 1.0
C      1  0.4847500000000  0.4151160000000  0.4895200000000 1.0
C      1  0.5803250000000  0.5291200000000  0.4901240000000 1.0
C      1  0.4297290000000  0.5585620000000  0.4918590000000 1.0
C      1  0.4977070000000  0.5585250000000  0.4371530000000 1.0
C      1  0.4508180000000  0.4704990000000  0.4419330000000 1.0
C      1  0.5523280000000  0.4678910000000  0.4402360000000 1.0
C      1  0.4945270000000  0.5551050000000  0.5506980000000 1.0
C      1  0.4527680000000  0.4667160000000  0.5482250000000 1.0
C      1  0.5521190000000  0.4757160000000  0.5518690000000 1.0
C      1  0.4994110000000  0.5005210000000  0.4228200000000 1.0
END
