TITL C-2441155-8282-145 0.0542826869044922 125000 -18164.9938425935 0 0 134 (C1) n - 1
REM
REM in /home/bkarasulu/work/CARBON/AIRSS/Generating-Clusters/ReaxFF-fromJPCA2015/Units_Real/with-SteepDescent/Higher-Symm
REM
REM
REM
REM
REM
REM ./C.cell (1df0a924f5614ab8850e4351716899ee)
REM
REM compiler GCC version 9.2.1 20190827 (Red Hat 9.2.1-1)
REM options -cpp -mtune=generic -march=x86-64 -g -O0 -fpre-include=/usr/include/finclude/math-vector-fortran.h
REM seed -455318876 558525103 1151463571 178021852 837283103 -1517309698 2068712329 2061888806 287337614 190084851 889325928 1735131855 1378499335 -1434983070 1923945166 -70025597 662404306 912159218 -1536732045 1903014367 2111735591 1246174654 134812960 340155663 -1262427715 955491785 2036965649 1306768179 658343980 -616341079 1788218274 -787093811 -170740510
REM
CELL 1.54180   50.00000   50.00000   50.00000   90.00000   90.00000   90.00000
LATT -1
SFAC C  
C      1  0.4378140000000  0.5282430000000  0.4498640000000 1.0
C      1  0.4400670000000  0.5651140000000  0.5027140000000 1.0
C      1  0.4367820000000  0.5073000000000  0.5616920000000 1.0
C      1  0.4445320000000  0.4411750000000  0.5384110000000 1.0
C      1  0.4415380000000  0.4533700000000  0.4552210000000 1.0
C      1  0.5597710000000  0.5350090000000  0.4518090000000 1.0
C      1  0.5575860000000  0.5643460000000  0.5078850000000 1.0
C      1  0.5579570000000  0.5135020000000  0.5593190000000 1.0
C      1  0.5617450000000  0.4476330000000  0.5201740000000 1.0
C      1  0.5543680000000  0.4634840000000  0.4568650000000 1.0
C      1  0.5588950000000  0.5653130000000  0.4592740000000 1.0
C      1  0.5550180000000  0.5557020000000  0.5532560000000 1.0
C      1  0.5547190000000  0.4653040000000  0.5698170000000 1.0
C      1  0.5571930000000  0.4189960000000  0.4941330000000 1.0
C      1  0.5581270000000  0.4905210000000  0.4186880000000 1.0
C      1  0.4429530000000  0.5709470000000  0.4712970000000 1.0
C      1  0.4451810000000  0.5529760000000  0.5485850000000 1.0
C      1  0.4437270000000  0.4584120000000  0.5648620000000 1.0
C      1  0.4436290000000  0.4264020000000  0.4927550000000 1.0
C      1  0.4444440000000  0.4879100000000  0.4263290000000 1.0
C      1  0.5157380000000  0.4977640000000  0.4590560000000 1.0
C      1  0.5159440000000  0.5390760000000  0.4894750000000 1.0
C      1  0.5143280000000  0.5230310000000  0.5395000000000 1.0
C      1  0.5114860000000  0.4717160000000  0.5322910000000 1.0
C      1  0.5114400000000  0.4571350000000  0.4845750000000 1.0
C      1  0.4887300000000  0.5027510000000  0.4588920000000 1.0
C      1  0.4888040000000  0.5413420000000  0.4892490000000 1.0
C      1  0.4869210000000  0.5243700000000  0.5367900000000 1.0
C      1  0.4843800000000  0.4743440000000  0.5329470000000 1.0
C      1  0.4838630000000  0.4607810000000  0.4848400000000 1.0
C      1  0.5897090000000  0.5259830000000  0.4875560000000 1.0
C      1  0.5921010000000  0.5287820000000  0.5154570000000 1.0
C      1  0.5902660000000  0.4883860000000  0.5336420000000 1.0
C      1  0.5983480000000  0.4620200000000  0.4953150000000 1.0
C      1  0.6014280000000  0.4814460000000  0.4722200000000 1.0
C      1  0.4071920000000  0.5308100000000  0.4843770000000 1.0
C      1  0.4053940000000  0.5302340000000  0.5253140000000 1.0
C      1  0.4084030000000  0.4897490000000  0.5349100000000 1.0
C      1  0.4017550000000  0.4688520000000  0.4899780000000 1.0
C      1  0.4055780000000  0.4862010000000  0.4677820000000 1.0
C      1  0.4594870000000  0.5414680000000  0.4298750000000 1.0
C      1  0.4620380000000  0.5833520000000  0.5168640000000 1.0
C      1  0.4592660000000  0.5073260000000  0.5830550000000 1.0
C      1  0.4647940000000  0.4205170000000  0.5360830000000 1.0
C      1  0.4625050000000  0.4421080000000  0.4360270000000 1.0
C      1  0.5367830000000  0.5417050000000  0.4312860000000 1.0
C      1  0.5364440000000  0.5843380000000  0.5169810000000 1.0
C      1  0.5377180000000  0.5101690000000  0.5809830000000 1.0
C      1  0.5403150000000  0.4240400000000  0.5314910000000 1.0
C      1  0.5366480000000  0.4453810000000  0.4352450000000 1.0
C      1  0.4670290000000  0.5317600000000  0.5969610000000 1.0
C      1  0.4709170000000  0.4136960000000  0.5642830000000 1.0
C      1  0.4685600000000  0.4135450000000  0.4390680000000 1.0
C      1  0.4662090000000  0.5309490000000  0.4037190000000 1.0
C      1  0.4699860000000  0.6052070000000  0.4996500000000 1.0
C      1  0.5318870000000  0.5335190000000  0.5972460000000 1.0
C      1  0.5302190000000  0.4262280000000  0.5564750000000 1.0
C      1  0.5325200000000  0.4166710000000  0.4386600000000 1.0
C      1  0.5332230000000  0.5309530000000  0.4043010000000 1.0
C      1  0.5313770000000  0.6058700000000  0.4980570000000 1.0
C      1  0.4479030000000  0.5013980000000  0.5364460000000 1.0
C      1  0.4399240000000  0.4526540000000  0.5124430000000 1.0
C      1  0.4465290000000  0.4812550000000  0.4564790000000 1.0
C      1  0.4492290000000  0.5238790000000  0.4718350000000 1.0
C      1  0.4496430000000  0.5417650000000  0.5165740000000 1.0
C      1  0.5524750000000  0.4882340000000  0.5481760000000 1.0
C      1  0.5501640000000  0.4670910000000  0.5025590000000 1.0
C      1  0.5667000000000  0.4904800000000  0.4486350000000 1.0
C      1  0.5508260000000  0.5180470000000  0.4732400000000 1.0
C      1  0.5538590000000  0.5425340000000  0.5254880000000 1.0
C      1  0.4720220000000  0.5633280000000  0.5584640000000 1.0
C      1  0.4725400000000  0.4629340000000  0.5778580000000 1.0
C      1  0.4726970000000  0.4152150000000  0.4898110000000 1.0
C      1  0.4732680000000  0.4828990000000  0.4134310000000 1.0
C      1  0.4717050000000  0.5761340000000  0.4592230000000 1.0
C      1  0.5255500000000  0.5665970000000  0.5602020000000 1.0
C      1  0.5256830000000  0.4641730000000  0.5824710000000 1.0
C      1  0.5284610000000  0.4130820000000  0.4889340000000 1.0
C      1  0.5270480000000  0.4833810000000  0.4133630000000 1.0
C      1  0.5271700000000  0.5754010000000  0.4565400000000 1.0
C      1  0.4698220000000  0.4688070000000  0.5083890000000 1.0
C      1  0.4716430000000  0.4837050000000  0.4717710000000 1.0
C      1  0.4774740000000  0.5270010000000  0.4671470000000 1.0
C      1  0.4769340000000  0.5394760000000  0.5146240000000 1.0
C      1  0.4752250000000  0.4986810000000  0.5431540000000 1.0
C      1  0.5235680000000  0.4594460000000  0.5104060000000 1.0
C      1  0.5276040000000  0.4726760000000  0.4665900000000 1.0
C      1  0.5249710000000  0.5233600000000  0.4681380000000 1.0
C      1  0.5280610000000  0.5322220000000  0.5160890000000 1.0
C      1  0.5260240000000  0.4964190000000  0.5368170000000 1.0
C      1  0.4845620000000  0.5517840000000  0.5817900000000 1.0
C      1  0.4859560000000  0.4377980000000  0.5755550000000 1.0
C      1  0.4858090000000  0.4103080000000  0.4643040000000 1.0
C      1  0.4849370000000  0.5064350000000  0.4028380000000 1.0
C      1  0.4862490000000  0.5943580000000  0.4753990000000 1.0
C      1  0.5135840000000  0.5538000000000  0.5826820000000 1.0
C      1  0.5157110000000  0.4369140000000  0.5780990000000 1.0
C      1  0.5147830000000  0.4114090000000  0.4633420000000 1.0
C      1  0.5143060000000  0.5066770000000  0.4033760000000 1.0
C      1  0.5152230000000  0.5945100000000  0.4741710000000 1.0
C      1  0.5834740000000  0.5134840000000  0.5437170000000 1.0
C      1  0.5879570000000  0.4617960000000  0.5234590000000 1.0
C      1  0.5839400000000  0.4585000000000  0.4707810000000 1.0
C      1  0.5875730000000  0.5060150000000  0.4629740000000 1.0
C      1  0.5841680000000  0.5532520000000  0.5006000000000 1.0
C      1  0.4094130000000  0.5141910000000  0.5493730000000 1.0
C      1  0.4128780000000  0.4680870000000  0.5172570000000 1.0
C      1  0.4137010000000  0.4580590000000  0.4636420000000 1.0
C      1  0.4109000000000  0.5163490000000  0.4607520000000 1.0
C      1  0.4112350000000  0.5489230000000  0.5050860000000 1.0
C      1  0.5159760000000  0.4155870000000  0.5145350000000 1.0
C      1  0.5143250000000  0.4595180000000  0.4220590000000 1.0
C      1  0.5122040000000  0.5593360000000  0.4398580000000 1.0
C      1  0.5137570000000  0.5782860000000  0.5376120000000 1.0
C      1  0.5134030000000  0.4890400000000  0.5842400000000 1.0
C      1  0.4865220000000  0.4165860000000  0.5142110000000 1.0
C      1  0.4843970000000  0.4592360000000  0.4232310000000 1.0
C      1  0.4823060000000  0.5590420000000  0.4394470000000 1.0
C      1  0.4843080000000  0.5771480000000  0.5368100000000 1.0
C      1  0.4837440000000  0.4880930000000  0.5839910000000 1.0
C      1  0.4228890000000  0.5759110000000  0.4562970000000 1.0
C      1  0.4238830000000  0.5601490000000  0.5598470000000 1.0
C      1  0.4231190000000  0.4643110000000  0.5790680000000 1.0
C      1  0.4235090000000  0.4124530000000  0.4871690000000 1.0
C      1  0.4222290000000  0.4862770000000  0.4128720000000 1.0
C      1  0.5793540000000  0.5809650000000  0.4605620000000 1.0
C      1  0.5775850000000  0.5639090000000  0.5635130000000 1.0
C      1  0.5772390000000  0.4587300000000  0.5803860000000 1.0
C      1  0.5794770000000  0.4132440000000  0.4859240000000 1.0
C      1  0.5769680000000  0.4833960000000  0.4028330000000 1.0
C      1  0.4435170000000  0.5111690000000  0.5081710000000 1.0
C      1  0.5544760000000  0.4959110000000  0.4942320000000 1.0
C      1  0.5356110000000  0.5053430000000  0.5110900000000 1.0
C      1  0.4627230000000  0.4938340000000  0.4976150000000 1.0
END
