TITL C-2441157-2117-1044 0.0812618488082497 125000 -8210.48392008804 0 0 68 (S4) n - 1
REM
REM in /home/bkarasulu/work/CARBON/AIRSS/Generating-Clusters/ReaxFF-fromJPCA2015/Units_Real/with-SteepDescent/Higher-Symm
REM
REM
REM
REM
REM
REM ./C.cell (1df0a924f5614ab8850e4351716899ee)
REM
REM compiler GCC version 9.2.1 20190827 (Red Hat 9.2.1-1)
REM options -cpp -mtune=generic -march=x86-64 -g -O0 -fpre-include=/usr/include/finclude/math-vector-fortran.h
REM seed 824155432 -1544034381 -796725556 1032682552 876758241 -1554510983 -443612934 -276198437 -1868716379 -1486426408 -231085540 -1889114022 1557403037 -1344909444 -1873497185 -943435245 -528940702 -974969362 -265604717 -899361766 -69525752 -311673521 193551503 -1776120226 -473969272 -795738283 1493981417 802358343 393782946 955286476 1986336414 -1038263440 -2128467137
REM
CELL 1.54180   50.00000   50.00000   50.00000   90.00000   90.00000   90.00000
LATT -1
SFAC C  
C      1  0.5175360000000  0.5308470000000  0.4506500000000 1.0
C      1  0.4820760000000  0.5499300000000  0.5311700000000 1.0
C      1  0.5179980000000  0.4690660000000  0.5491820000000 1.0
C      1  0.4822920000000  0.4501410000000  0.4688970000000 1.0
C      1  0.4799070000000  0.4803420000000  0.5704160000000 1.0
C      1  0.5197070000000  0.4300190000000  0.4803330000000 1.0
C      1  0.4801170000000  0.5198180000000  0.4297460000000 1.0
C      1  0.5197770000000  0.5700360000000  0.5196570000000 1.0
C      1  0.5388810000000  0.5042820000000  0.5144990000000 1.0
C      1  0.4613600000000  0.4851950000000  0.5041950000000 1.0
C      1  0.5387380000000  0.4957020000000  0.4856330000000 1.0
C      1  0.4613000000000  0.5147610000000  0.4958000000000 1.0
C      1  0.5324690000000  0.4510650000000  0.5169340000000 1.0
C      1  0.4682870000000  0.4832790000000  0.4516700000000 1.0
C      1  0.5327490000000  0.5491610000000  0.4830440000000 1.0
C      1  0.4680440000000  0.5171820000000  0.5486180000000 1.0
C      1  0.5168760000000  0.4733180000000  0.4436060000000 1.0
C      1  0.4833540000000  0.5565630000000  0.4730340000000 1.0
C      1  0.5170580000000  0.5268030000000  0.5566090000000 1.0
C      1  0.4834410000000  0.4434490000000  0.5269680000000 1.0
C      1  0.4961870000000  0.4880410000000  0.4593060000000 1.0
C      1  0.5041290000000  0.5408520000000  0.4878910000000 1.0
C      1  0.4964370000000  0.5118980000000  0.5410300000000 1.0
C      1  0.5041410000000  0.4591810000000  0.5120340000000 1.0
C      1  0.4739020000000  0.5085590000000  0.5773330000000 1.0
C      1  0.5259740000000  0.4230430000000  0.5085120000000 1.0
C      1  0.4740710000000  0.4914470000000  0.4226980000000 1.0
C      1  0.5259770000000  0.5769480000000  0.4915030000000 1.0
C      1  0.4565030000000  0.4489360000000  0.4839420000000 1.0
C      1  0.5435090000000  0.5162540000000  0.4490030000000 1.0
C      1  0.4564650000000  0.5511320000000  0.5161130000000 1.0
C      1  0.5435910000000  0.4838960000000  0.5509940000000 1.0
C      1  0.5096740000000  0.5191370000000  0.4250900000000 1.0
C      1  0.4902310000000  0.5750840000000  0.5187530000000 1.0
C      1  0.5096270000000  0.4809180000000  0.5745080000000 1.0
C      1  0.4902250000000  0.4248740000000  0.4812880000000 1.0
C      1  0.4698640000000  0.5693250000000  0.4980000000000 1.0
C      1  0.5299440000000  0.5018020000000  0.5692390000000 1.0
C      1  0.4697450000000  0.4306150000000  0.5020620000000 1.0
C      1  0.5301140000000  0.4982730000000  0.4306560000000 1.0
C      1  0.5073560000000  0.4232760000000  0.5310070000000 1.0
C      1  0.4930990000000  0.4693850000000  0.4237300000000 1.0
C      1  0.5073220000000  0.5770190000000  0.4689390000000 1.0
C      1  0.4932340000000  0.5306280000000  0.5761570000000 1.0
C      1  0.4762940000000  0.5450510000000  0.5585960000000 1.0
C      1  0.5236560000000  0.4413280000000  0.5451410000000 1.0
C      1  0.4763360000000  0.4540000000000  0.4407780000000 1.0
C      1  0.5236470000000  0.5581940000000  0.4551220000000 1.0
C      1  0.4401380000000  0.5272580000000  0.5133770000000 1.0
C      1  0.5593990000000  0.4869130000000  0.5269590000000 1.0
C      1  0.4401450000000  0.4727460000000  0.4866500000000 1.0
C      1  0.5595650000000  0.5132840000000  0.4728790000000 1.0
C      1  0.5307990000000  0.4533850000000  0.4675050000000 1.0
C      1  0.4691810000000  0.5326990000000  0.4532240000000 1.0
C      1  0.5307590000000  0.5465570000000  0.5325270000000 1.0
C      1  0.4691650000000  0.4673770000000  0.5468740000000 1.0
C      1  0.4936710000000  0.4807720000000  0.5048800000000 1.0
C      1  0.5065170000000  0.4953370000000  0.4807320000000 1.0
C      1  0.4936230000000  0.5191350000000  0.4948980000000 1.0
C      1  0.5068630000000  0.5044660000000  0.5192520000000 1.0
C      1  0.4496140000000  0.4825130000000  0.5326750000000 1.0
C      1  0.5498780000000  0.4674930000000  0.4828020000000 1.0
C      1  0.4495250000000  0.5175910000000  0.4673540000000 1.0
C      1  0.5497880000000  0.5323390000000  0.5172220000000 1.0
C      1  0.5584450000000  0.5358880000000  0.4900760000000 1.0
C      1  0.4406630000000  0.5098730000000  0.5358710000000 1.0
C      1  0.5583280000000  0.4641370000000  0.5100150000000 1.0
C      1  0.4407130000000  0.4901830000000  0.4641410000000 1.0
END
