TITL C-2441167-4473-794 0.0188575681276932 125000 -12841.5623898407 0 0 90 (C1) n - 1
REM
REM in /home/bkarasulu/work/CARBON/AIRSS/Generating-Clusters/ReaxFF-fromJPCA2015/Units_Real/with-SteepDescent/Higher-Symm
REM
REM
REM
REM
REM
REM ./C.cell (1df0a924f5614ab8850e4351716899ee)
REM
REM compiler GCC version 9.2.1 20190827 (Red Hat 9.2.1-1)
REM options -cpp -mtune=generic -march=x86-64 -g -O0 -fpre-include=/usr/include/finclude/math-vector-fortran.h
REM seed 1607934710 35828417 -683058021 -1134343855 556534940 -1341742686 2138958008 68892174 -1769186115 -1902271209 56492112 600878927 -1276354285 1152899865 115663825 -262074150 1845363469 948738976 -508430036 1562872129 835304733 678379513 726130533 -850861356 847285375 -350851271 1860701065 -1821626798 1057946093 -678712508 -1243885346 -45677160 224447841
REM
CELL 1.54180   50.00000   50.00000   50.00000   90.00000   90.00000   90.00000
LATT -1
SFAC C  
C      1  0.5076620000000  0.5300180000000  0.5012530000000 1.0
C      1  0.4906760000000  0.4680590000000  0.4973910000000 1.0
C      1  0.4562200000000  0.4438580000000  0.4681450000000 1.0
C      1  0.5438200000000  0.5577260000000  0.5276210000000 1.0
C      1  0.4320820000000  0.4471540000000  0.5362610000000 1.0
C      1  0.5659380000000  0.5531780000000  0.4662400000000 1.0
C      1  0.4751510000000  0.4234720000000  0.5169050000000 1.0
C      1  0.5156920000000  0.5720770000000  0.4774640000000 1.0
C      1  0.4559820000000  0.4751560000000  0.5701240000000 1.0
C      1  0.5443010000000  0.5276980000000  0.4279150000000 1.0
C      1  0.5289970000000  0.5527040000000  0.4356960000000 1.0
C      1  0.4721030000000  0.4575930000000  0.5500740000000 1.0
C      1  0.4387850000000  0.5206860000000  0.4839320000000 1.0
C      1  0.5610730000000  0.4769300000000  0.5191650000000 1.0
C      1  0.5659240000000  0.4973110000000  0.5549760000000 1.0
C      1  0.4332690000000  0.4866290000000  0.4425370000000 1.0
C      1  0.5312550000000  0.4264090000000  0.4953120000000 1.0
C      1  0.4678030000000  0.5750620000000  0.5069250000000 1.0
C      1  0.5398640000000  0.5653410000000  0.4593440000000 1.0
C      1  0.4586230000000  0.4334460000000  0.5384050000000 1.0
C      1  0.5101750000000  0.5009640000000  0.5390000000000 1.0
C      1  0.5034850000000  0.5104400000000  0.4429720000000 1.0
C      1  0.5534830000000  0.5326350000000  0.5367240000000 1.0
C      1  0.4427670000000  0.4680120000000  0.4620800000000 1.0
C      1  0.5324270000000  0.4330360000000  0.4658200000000 1.0
C      1  0.4663720000000  0.5656500000000  0.5351620000000 1.0
C      1  0.5708070000000  0.5299150000000  0.4864710000000 1.0
C      1  0.4318590000000  0.4711560000000  0.5168040000000 1.0
C      1  0.5782870000000  0.5167640000000  0.5383240000000 1.0
C      1  0.4197800000000  0.4826370000000  0.4668430000000 1.0
C      1  0.5128200000000  0.4624560000000  0.5161780000000 1.0
C      1  0.4862010000000  0.5351160000000  0.4814520000000 1.0
C      1  0.4457910000000  0.5109450000000  0.4314000000000 1.0
C      1  0.5464910000000  0.4812820000000  0.5680850000000 1.0
C      1  0.5850140000000  0.5032500000000  0.4881870000000 1.0
C      1  0.4172290000000  0.4970280000000  0.5148610000000 1.0
C      1  0.4328490000000  0.4667210000000  0.5569700000000 1.0
C      1  0.5654800000000  0.5333180000000  0.4458500000000 1.0
C      1  0.4716590000000  0.5036100000000  0.4184960000000 1.0
C      1  0.5249200000000  0.4968010000000  0.5828050000000 1.0
C      1  0.4743070000000  0.4959340000000  0.5084460000000 1.0
C      1  0.5240050000000  0.5025670000000  0.4891000000000 1.0
C      1  0.5651610000000  0.4687600000000  0.4483800000000 1.0
C      1  0.4377360000000  0.5279460000000  0.5552760000000 1.0
C      1  0.5049910000000  0.4789270000000  0.4744180000000 1.0
C      1  0.4917270000000  0.5180940000000  0.5240290000000 1.0
C      1  0.4657710000000  0.5227570000000  0.5634700000000 1.0
C      1  0.5384250000000  0.4756800000000  0.4390650000000 1.0
C      1  0.4410990000000  0.5542420000000  0.4645830000000 1.0
C      1  0.5601790000000  0.4503420000000  0.5331920000000 1.0
C      1  0.4792810000000  0.4337710000000  0.4542510000000 1.0
C      1  0.5224520000000  0.5667000000000  0.5454790000000 1.0
C      1  0.4430870000000  0.5349940000000  0.4465760000000 1.0
C      1  0.5409550000000  0.4539450000000  0.5543590000000 1.0
C      1  0.5759120000000  0.4789730000000  0.4738090000000 1.0
C      1  0.4259880000000  0.5215550000000  0.5283800000000 1.0
C      1  0.4929320000000  0.5571180000000  0.4637260000000 1.0
C      1  0.5162400000000  0.4460130000000  0.5403030000000 1.0
C      1  0.5278050000000  0.4876650000000  0.5178590000000 1.0
C      1  0.4678520000000  0.5118930000000  0.4814280000000 1.0
C      1  0.5315290000000  0.5180540000000  0.5491970000000 1.0
C      1  0.4856980000000  0.4927670000000  0.4583990000000 1.0
C      1  0.5237040000000  0.5261240000000  0.5763320000000 1.0
C      1  0.4779970000000  0.4782640000000  0.4323790000000 1.0
C      1  0.4437830000000  0.5544240000000  0.5472630000000 1.0
C      1  0.5580100000000  0.4393100000000  0.4525580000000 1.0
C      1  0.4930520000000  0.4231220000000  0.4789350000000 1.0
C      1  0.5066900000000  0.5748900000000  0.5217780000000 1.0
C      1  0.5465620000000  0.5170340000000  0.4791270000000 1.0
C      1  0.4583900000000  0.4786170000000  0.5255160000000 1.0
C      1  0.4917100000000  0.4532770000000  0.4363950000000 1.0
C      1  0.5091280000000  0.5485000000000  0.5638730000000 1.0
C      1  0.4458900000000  0.5607440000000  0.4925800000000 1.0
C      1  0.5548040000000  0.4390010000000  0.5071270000000 1.0
C      1  0.4997480000000  0.4559670000000  0.5621150000000 1.0
C      1  0.4993950000000  0.5508560000000  0.4357180000000 1.0
C      1  0.4362170000000  0.5370570000000  0.5060560000000 1.0
C      1  0.5640720000000  0.4633380000000  0.4946030000000 1.0
C      1  0.5241870000000  0.5556670000000  0.5061710000000 1.0
C      1  0.4719870000000  0.4427630000000  0.4930680000000 1.0
C      1  0.5034310000000  0.4210340000000  0.5065240000000 1.0
C      1  0.4943190000000  0.5833760000000  0.4969290000000 1.0
C      1  0.5829210000000  0.4973690000000  0.5166870000000 1.0
C      1  0.4180680000000  0.5022040000000  0.4864260000000 1.0
C      1  0.5011180000000  0.4817690000000  0.5766100000000 1.0
C      1  0.4906790000000  0.5262420000000  0.4222580000000 1.0
C      1  0.5295200000000  0.5022230000000  0.4327970000000 1.0
C      1  0.4774670000000  0.4960080000000  0.5652620000000 1.0
C      1  0.4837320000000  0.5416530000000  0.5480140000000 1.0
C      1  0.5171730000000  0.4582310000000  0.4530020000000 1.0
END
