TITL C-2441163-1170-360 0.185737974112015 125000 -19170.8786752472 0 0 163 (C1) n - 1
REM
REM in /home/bkarasulu/work/CARBON/AIRSS/Generating-Clusters/ReaxFF-fromJPCA2015/Units_Real/with-SteepDescent/Higher-Symm
REM
REM
REM
REM
REM
REM ./C.cell (1df0a924f5614ab8850e4351716899ee)
REM
REM compiler GCC version 9.2.1 20190827 (Red Hat 9.2.1-1)
REM options -cpp -mtune=generic -march=x86-64 -g -O0 -fpre-include=/usr/include/finclude/math-vector-fortran.h
REM seed 1679020087 -53658452 -2118335296 1627302797 1068384075 -141576646 682638558 -1153402365 59834101 -362219085 97530507 1441763056 -1969953336 1398721107 16961721 639872834 844503958 -1812741292 -1060037531 1327471168 -897340830 1785586467 1888263661 385390117 234961846 -1248891702 -408899496 1794358385 -749673154 26489341 486026728 -1335643678 639771649
REM
CELL 1.54180   50.00000   50.00000   50.00000   90.00000   90.00000   90.00000
LATT -1
SFAC C  
C      1  0.4948780000000  0.4740380000000  0.5972210000000 1.0
C      1  0.4333010000000  0.4725900000000  0.5707360000000 1.0
C      1  0.4039380000000  0.4730250000000  0.5127300000000 1.0
C      1  0.4189950000000  0.4734770000000  0.4464310000000 1.0
C      1  0.4685510000000  0.4766290000000  0.4031570000000 1.0
C      1  0.5374710000000  0.4740210000000  0.4104280000000 1.0
C      1  0.5868270000000  0.4735440000000  0.4572980000000 1.0
C      1  0.5949330000000  0.4728730000000  0.5222860000000 1.0
C      1  0.5580720000000  0.4734930000000  0.5799640000000 1.0
C      1  0.5292360000000  0.5936200000000  0.4658680000000 1.0
C      1  0.5422390000000  0.5908440000000  0.4918530000000 1.0
C      1  0.5370920000000  0.5891820000000  0.5209670000000 1.0
C      1  0.5144880000000  0.5899500000000  0.5398810000000 1.0
C      1  0.4851180000000  0.5882700000000  0.5413780000000 1.0
C      1  0.4633410000000  0.5893070000000  0.5215210000000 1.0
C      1  0.4590770000000  0.5884440000000  0.4922210000000 1.0
C      1  0.4743300000000  0.5895540000000  0.4667860000000 1.0
C      1  0.5021450000000  0.5917710000000  0.4569700000000 1.0
C      1  0.5142280000000  0.5249940000000  0.4725730000000 1.0
C      1  0.5319720000000  0.5359700000000  0.4866680000000 1.0
C      1  0.5401780000000  0.5309210000000  0.5114120000000 1.0
C      1  0.5238080000000  0.5318890000000  0.5349790000000 1.0
C      1  0.4976160000000  0.5371550000000  0.5356880000000 1.0
C      1  0.4723360000000  0.5309100000000  0.5267190000000 1.0
C      1  0.4633540000000  0.5403400000000  0.5027070000000 1.0
C      1  0.4688300000000  0.5281760000000  0.4777530000000 1.0
C      1  0.4921070000000  0.5375460000000  0.4661950000000 1.0
C      1  0.5307280000000  0.4897600000000  0.4832980000000 1.0
C      1  0.5353460000000  0.5026380000000  0.5062720000000 1.0
C      1  0.5228740000000  0.4931690000000  0.5291620000000 1.0
C      1  0.4935780000000  0.4879730000000  0.5302620000000 1.0
C      1  0.4692890000000  0.5019090000000  0.5229490000000 1.0
C      1  0.4682390000000  0.4885000000000  0.4976370000000 1.0
C      1  0.4711430000000  0.5007770000000  0.4769210000000 1.0
C      1  0.4917230000000  0.4896830000000  0.4621390000000 1.0
C      1  0.5139500000000  0.5013110000000  0.4692490000000 1.0
C      1  0.4968200000000  0.5743790000000  0.4318360000000 1.0
C      1  0.5458220000000  0.5796820000000  0.4425550000000 1.0
C      1  0.5639670000000  0.5736550000000  0.4812020000000 1.0
C      1  0.5609230000000  0.5743340000000  0.5302440000000 1.0
C      1  0.5267280000000  0.5743400000000  0.5617550000000 1.0
C      1  0.4816960000000  0.5740570000000  0.5673210000000 1.0
C      1  0.4436140000000  0.5738560000000  0.5376540000000 1.0
C      1  0.4335130000000  0.5740040000000  0.4894740000000 1.0
C      1  0.4551110000000  0.5766810000000  0.4486610000000 1.0
C      1  0.4064060000000  0.4999870000000  0.4472930000000 1.0
C      1  0.4611380000000  0.5044250000000  0.4019390000000 1.0
C      1  0.5339730000000  0.5017980000000  0.4029300000000 1.0
C      1  0.5908330000000  0.5016330000000  0.4487590000000 1.0
C      1  0.6027040000000  0.5009300000000  0.5192420000000 1.0
C      1  0.5667830000000  0.5009330000000  0.5814930000000 1.0
C      1  0.4983300000000  0.5025250000000  0.6033420000000 1.0
C      1  0.4324850000000  0.5000670000000  0.5798620000000 1.0
C      1  0.4003350000000  0.5008970000000  0.5217620000000 1.0
C      1  0.4357270000000  0.4575200000000  0.4286250000000 1.0
C      1  0.4971530000000  0.4488850000000  0.4126370000000 1.0
C      1  0.5573370000000  0.4586330000000  0.4245270000000 1.0
C      1  0.5926480000000  0.4577570000000  0.4812770000000 1.0
C      1  0.5842200000000  0.4582090000000  0.5443290000000 1.0
C      1  0.5346660000000  0.4574260000000  0.5879090000000 1.0
C      1  0.4718380000000  0.4577150000000  0.5912360000000 1.0
C      1  0.4195300000000  0.4571000000000  0.5500270000000 1.0
C      1  0.4059890000000  0.4593620000000  0.4876650000000 1.0
C      1  0.4199170000000  0.5560900000000  0.4714590000000 1.0
C      1  0.4501850000000  0.5539880000000  0.4307080000000 1.0
C      1  0.5135940000000  0.5532840000000  0.4187520000000 1.0
C      1  0.5659370000000  0.5593490000000  0.4368060000000 1.0
C      1  0.5818370000000  0.5541870000000  0.4930390000000 1.0
C      1  0.5667070000000  0.5548170000000  0.5525060000000 1.0
C      1  0.5154780000000  0.5562720000000  0.5818360000000 1.0
C      1  0.4605160000000  0.5542650000000  0.5755350000000 1.0
C      1  0.4219740000000  0.5549930000000  0.5302940000000 1.0
C      1  0.5674760000000  0.4226930000000  0.5165900000000 1.0
C      1  0.5478480000000  0.4289010000000  0.5615450000000 1.0
C      1  0.4952020000000  0.4227060000000  0.5680430000000 1.0
C      1  0.4477190000000  0.4284210000000  0.5576710000000 1.0
C      1  0.4312880000000  0.4229390000000  0.5069100000000 1.0
C      1  0.4329390000000  0.4289920000000  0.4584980000000 1.0
C      1  0.4787630000000  0.4307120000000  0.4240270000000 1.0
C      1  0.5289030000000  0.4224360000000  0.4391860000000 1.0
C      1  0.5695280000000  0.4290190000000  0.4634850000000 1.0
C      1  0.5400360000000  0.4141640000000  0.5166230000000 1.0
C      1  0.5175790000000  0.4225960000000  0.5337610000000 1.0
C      1  0.4911820000000  0.4140110000000  0.5409040000000 1.0
C      1  0.4700880000000  0.4231970000000  0.5218000000000 1.0
C      1  0.4569170000000  0.4141110000000  0.4974630000000 1.0
C      1  0.4727240000000  0.4228370000000  0.4722660000000 1.0
C      1  0.4982620000000  0.4171460000000  0.4662990000000 1.0
C      1  0.5242910000000  0.4145790000000  0.4662090000000 1.0
C      1  0.5356810000000  0.4265660000000  0.4913730000000 1.0
C      1  0.5916460000000  0.5320250000000  0.4765500000000 1.0
C      1  0.5848210000000  0.5329520000000  0.5447390000000 1.0
C      1  0.5344070000000  0.5337840000000  0.5871850000000 1.0
C      1  0.4716390000000  0.5325580000000  0.5931770000000 1.0
C      1  0.4211730000000  0.5338300000000  0.5504840000000 1.0
C      1  0.4045470000000  0.5346530000000  0.4853230000000 1.0
C      1  0.4314790000000  0.5319230000000  0.4298230000000 1.0
C      1  0.4954420000000  0.5337090000000  0.4072140000000 1.0
C      1  0.5604240000000  0.5346360000000  0.4234250000000 1.0
C      1  0.5248410000000  0.4309530000000  0.5768120000000 1.0
C      1  0.4689640000000  0.4314170000000  0.5775760000000 1.0
C      1  0.4283530000000  0.4308710000000  0.5380320000000 1.0
C      1  0.4170400000000  0.4320150000000  0.4826500000000 1.0
C      1  0.4483700000000  0.4308510000000  0.4350320000000 1.0
C      1  0.5065720000000  0.4249220000000  0.4211090000000 1.0
C      1  0.5567940000000  0.4319320000000  0.4378760000000 1.0
C      1  0.5805230000000  0.4310630000000  0.4889480000000 1.0
C      1  0.5711370000000  0.4318930000000  0.5441540000000 1.0
C      1  0.4620190000000  0.4704590000000  0.4335850000000 1.0
C      1  0.5100480000000  0.4703620000000  0.4260320000000 1.0
C      1  0.5567540000000  0.4720430000000  0.4511840000000 1.0
C      1  0.5733760000000  0.4707990000000  0.5004540000000 1.0
C      1  0.5599040000000  0.4721740000000  0.5486500000000 1.0
C      1  0.5128590000000  0.4713420000000  0.5731120000000 1.0
C      1  0.4638230000000  0.4708760000000  0.5659000000000 1.0
C      1  0.4307710000000  0.4708080000000  0.5258370000000 1.0
C      1  0.4295240000000  0.4725480000000  0.4750230000000 1.0
C      1  0.5423030000000  0.4534070000000  0.4988620000000 1.0
C      1  0.5329740000000  0.4648210000000  0.5285800000000 1.0
C      1  0.5104260000000  0.4498430000000  0.5410970000000 1.0
C      1  0.4831330000000  0.4616330000000  0.5388230000000 1.0
C      1  0.4643240000000  0.4515870000000  0.5181850000000 1.0
C      1  0.4606260000000  0.4618180000000  0.4901650000000 1.0
C      1  0.4744160000000  0.4516260000000  0.4660620000000 1.0
C      1  0.5018730000000  0.4621980000000  0.4588080000000 1.0
C      1  0.5325310000000  0.4637520000000  0.4736920000000 1.0
C      1  0.4529500000000  0.4985430000000  0.4403100000000 1.0
C      1  0.4987540000000  0.4963390000000  0.4200330000000 1.0
C      1  0.5504390000000  0.5019810000000  0.4443660000000 1.0
C      1  0.5740840000000  0.4985990000000  0.4890700000000 1.0
C      1  0.5657800000000  0.4990790000000  0.5412770000000 1.0
C      1  0.5239150000000  0.4987980000000  0.5712160000000 1.0
C      1  0.4701880000000  0.5005010000000  0.5691700000000 1.0
C      1  0.4431680000000  0.4960180000000  0.5330480000000 1.0
C      1  0.4333870000000  0.5021430000000  0.4825650000000 1.0
C      1  0.4886160000000  0.5547280000000  0.4497210000000 1.0
C      1  0.5282570000000  0.5570440000000  0.4492690000000 1.0
C      1  0.5467120000000  0.5516060000000  0.4701950000000 1.0
C      1  0.5621510000000  0.5509300000000  0.5134410000000 1.0
C      1  0.5378730000000  0.5503850000000  0.5504020000000 1.0
C      1  0.4963100000000  0.5500070000000  0.5607300000000 1.0
C      1  0.4574560000000  0.5499970000000  0.5469380000000 1.0
C      1  0.4381650000000  0.5507280000000  0.5059510000000 1.0
C      1  0.4476350000000  0.5507560000000  0.4606490000000 1.0
C      1  0.4459300000000  0.5134360000000  0.5562810000000 1.0
C      1  0.4189020000000  0.5160390000000  0.5039500000000 1.0
C      1  0.4334630000000  0.5140990000000  0.4554400000000 1.0
C      1  0.4794500000000  0.5170470000000  0.4261410000000 1.0
C      1  0.5337590000000  0.5196730000000  0.4263770000000 1.0
C      1  0.5683300000000  0.5150840000000  0.4667250000000 1.0
C      1  0.5767990000000  0.5154170000000  0.5220630000000 1.0
C      1  0.5460900000000  0.5150240000000  0.5648910000000 1.0
C      1  0.4916370000000  0.5160130000000  0.5774480000000 1.0
C      1  0.4346180000000  0.5063060000000  0.4165640000000 1.0
C      1  0.5053290000000  0.5085660000000  0.3952350000000 1.0
C      1  0.5730260000000  0.5077840000000  0.4252330000000 1.0
C      1  0.6021620000000  0.5073690000000  0.4885740000000 1.0
C      1  0.5886430000000  0.5073120000000  0.5584610000000 1.0
C      1  0.5291840000000  0.5077610000000  0.5996280000000 1.0
C      1  0.4576480000000  0.5070560000000  0.5963350000000 1.0
C      1  0.4080150000000  0.5090760000000  0.5483020000000 1.0
C      1  0.3957290000000  0.5108920000000  0.4717370000000 1.0
C      1  0.4967460000000  0.4813760000000  0.5002770000000 1.0
END
