TITL C-2441168-9922-1138 0.00878491899145346 125000 -14185.2227041445 0 0 94 (C1) n - 1
REM
REM in /home/bkarasulu/work/CARBON/AIRSS/Generating-Clusters/ReaxFF-fromJPCA2015/Units_Real/with-SteepDescent/Higher-Symm
REM
REM
REM
REM
REM
REM ./C.cell (1df0a924f5614ab8850e4351716899ee)
REM
REM compiler GCC version 9.2.1 20190827 (Red Hat 9.2.1-1)
REM options -cpp -mtune=generic -march=x86-64 -g -O0 -fpre-include=/usr/include/finclude/math-vector-fortran.h
REM seed -1732916988 -2068775589 -1604093515 -997580612 -1336131283 46581335 -623174340 -2059189277 -1225442917 -1274240422 1827038453 732435717 -2033750918 -183883778 1234533942 1890898457 -1082565150 871987032 1248995919 -161870675 -896682757 -505482622 -325583465 -875862686 63956048 -466847495 1647466815 -1231490880 852210422 -288467585 -126170730 -1091662295 448987753
REM
CELL 1.54180   50.00000   50.00000   50.00000   90.00000   90.00000   90.00000
LATT -1
SFAC C  
C      1  0.4574000000000  0.5090440000000  0.4552850000000 1.0
C      1  0.4766410000000  0.4597380000000  0.4589130000000 1.0
C      1  0.5268460000000  0.4722570000000  0.4545330000000 1.0
C      1  0.5393890000000  0.5261250000000  0.4677040000000 1.0
C      1  0.4894820000000  0.5386820000000  0.4499250000000 1.0
C      1  0.4572610000000  0.5058810000000  0.5472390000000 1.0
C      1  0.4846780000000  0.4601730000000  0.5450870000000 1.0
C      1  0.5279950000000  0.4730760000000  0.5455820000000 1.0
C      1  0.5394020000000  0.5263530000000  0.5315460000000 1.0
C      1  0.4898550000000  0.5383890000000  0.5503190000000 1.0
C      1  0.4419710000000  0.5303520000000  0.5510600000000 1.0
C      1  0.4411840000000  0.4450670000000  0.5510480000000 1.0
C      1  0.5291960000000  0.4439990000000  0.5495990000000 1.0
C      1  0.5795970000000  0.5098930000000  0.5526830000000 1.0
C      1  0.5129330000000  0.5801580000000  0.5519920000000 1.0
C      1  0.4406160000000  0.5328390000000  0.4498870000000 1.0
C      1  0.4516200000000  0.4484110000000  0.4489040000000 1.0
C      1  0.5325650000000  0.4436670000000  0.4488550000000 1.0
C      1  0.5796070000000  0.5099950000000  0.4478550000000 1.0
C      1  0.5125060000000  0.5802970000000  0.4483940000000 1.0
C      1  0.4979590000000  0.4210640000000  0.4702680000000 1.0
C      1  0.5733720000000  0.4752850000000  0.4703610000000 1.0
C      1  0.5428680000000  0.5541540000000  0.4697500000000 1.0
C      1  0.4557170000000  0.5676740000000  0.4720050000000 1.0
C      1  0.4253940000000  0.4788020000000  0.4704660000000 1.0
C      1  0.4971240000000  0.4175030000000  0.5263710000000 1.0
C      1  0.5733890000000  0.4750160000000  0.5302350000000 1.0
C      1  0.5431570000000  0.5546700000000  0.5303830000000 1.0
C      1  0.4555340000000  0.5671040000000  0.5285310000000 1.0
C      1  0.4249620000000  0.4769590000000  0.5289140000000 1.0
C      1  0.5257000000000  0.5723560000000  0.5138380000000 1.0
C      1  0.4332580000000  0.5534200000000  0.5148630000000 1.0
C      1  0.4308640000000  0.4537340000000  0.5125390000000 1.0
C      1  0.5236350000000  0.4175870000000  0.5134280000000 1.0
C      1  0.5838080000000  0.4966890000000  0.5142640000000 1.0
C      1  0.5257570000000  0.5721670000000  0.4863570000000 1.0
C      1  0.4329630000000  0.5539410000000  0.4858390000000 1.0
C      1  0.4308560000000  0.4538870000000  0.4844140000000 1.0
C      1  0.5233390000000  0.4190050000000  0.4846370000000 1.0
C      1  0.5840660000000  0.4967770000000  0.4863220000000 1.0
C      1  0.5348220000000  0.5184200000000  0.4394420000000 1.0
C      1  0.5128800000000  0.5368620000000  0.4305610000000 1.0
C      1  0.4579730000000  0.4912510000000  0.4324120000000 1.0
C      1  0.4889650000000  0.4547090000000  0.4331570000000 1.0
C      1  0.5386070000000  0.4895000000000  0.4334600000000 1.0
C      1  0.5354560000000  0.5187840000000  0.5596890000000 1.0
C      1  0.5136720000000  0.5370130000000  0.5701640000000 1.0
C      1  0.4549620000000  0.4873660000000  0.5697860000000 1.0
C      1  0.4784720000000  0.4719580000000  0.5707680000000 1.0
C      1  0.5393250000000  0.4904290000000  0.5662940000000 1.0
C      1  0.5843810000000  0.5235640000000  0.5284840000000 1.0
C      1  0.5030730000000  0.5868080000000  0.5270550000000 1.0
C      1  0.4241350000000  0.5289150000000  0.5278960000000 1.0
C      1  0.4469590000000  0.4323350000000  0.5268640000000 1.0
C      1  0.5444480000000  0.4329900000000  0.5273860000000 1.0
C      1  0.5845820000000  0.5235800000000  0.4721080000000 1.0
C      1  0.5031730000000  0.5869210000000  0.4734910000000 1.0
C      1  0.4227570000000  0.5298280000000  0.4729140000000 1.0
C      1  0.4475120000000  0.4333510000000  0.4729720000000 1.0
C      1  0.5462160000000  0.4330070000000  0.4721290000000 1.0
C      1  0.5701080000000  0.5460170000000  0.4857100000000 1.0
C      1  0.4759670000000  0.5828260000000  0.4860990000000 1.0
C      1  0.4198770000000  0.5033670000000  0.4857710000000 1.0
C      1  0.4717910000000  0.4216370000000  0.4845500000000 1.0
C      1  0.5637110000000  0.4520470000000  0.4857710000000 1.0
C      1  0.5705670000000  0.5464110000000  0.5146540000000 1.0
C      1  0.4758320000000  0.5826400000000  0.5147430000000 1.0
C      1  0.4201960000000  0.5026760000000  0.5149920000000 1.0
C      1  0.4712120000000  0.4199390000000  0.5133280000000 1.0
C      1  0.5631830000000  0.4519230000000  0.5149830000000 1.0
C      1  0.4723920000000  0.5043610000000  0.4809470000000 1.0
C      1  0.4857450000000  0.4771390000000  0.4814420000000 1.0
C      1  0.5147510000000  0.4821720000000  0.4791550000000 1.0
C      1  0.5196970000000  0.5125390000000  0.4832870000000 1.0
C      1  0.4925790000000  0.5239720000000  0.4744470000000 1.0
C      1  0.4732650000000  0.5016520000000  0.5224940000000 1.0
C      1  0.4881280000000  0.4766670000000  0.5218400000000 1.0
C      1  0.5159360000000  0.4829280000000  0.5207630000000 1.0
C      1  0.5194520000000  0.5124490000000  0.5164770000000 1.0
C      1  0.4924630000000  0.5230010000000  0.5265710000000 1.0
C      1  0.5010210000000  0.4362680000000  0.5482130000000 1.0
C      1  0.5678620000000  0.4849720000000  0.5581330000000 1.0
C      1  0.5303610000000  0.5603560000000  0.5601770000000 1.0
C      1  0.4631730000000  0.5508030000000  0.5515960000000 1.0
C      1  0.4329080000000  0.4711420000000  0.5572510000000 1.0
C      1  0.5056430000000  0.4332300000000  0.4446600000000 1.0
C      1  0.5675300000000  0.4852830000000  0.4426160000000 1.0
C      1  0.5293190000000  0.5600740000000  0.4399760000000 1.0
C      1  0.4630900000000  0.5520790000000  0.4486990000000 1.0
C      1  0.4377400000000  0.4740400000000  0.4443480000000 1.0
C      1  0.4857480000000  0.4838070000000  0.4213850000000 1.0
C      1  0.4943840000000  0.4906220000000  0.5825830000000 1.0
C      1  0.5121060000000  0.5090780000000  0.5929070000000 1.0
C      1  0.5066650000000  0.5017610000000  0.4147450000000 1.0
END
