TITL C-2441168-9922-703 0.150376628374146 125000 -17246.2391420677 0 0 141 (C1) n - 1
REM
REM in /home/bkarasulu/work/CARBON/AIRSS/Generating-Clusters/ReaxFF-fromJPCA2015/Units_Real/with-SteepDescent/Higher-Symm
REM
REM
REM
REM
REM
REM ./C.cell (1df0a924f5614ab8850e4351716899ee)
REM
REM compiler GCC version 9.2.1 20190827 (Red Hat 9.2.1-1)
REM options -cpp -mtune=generic -march=x86-64 -g -O0 -fpre-include=/usr/include/finclude/math-vector-fortran.h
REM seed 750203096 1957159509 1722365838 -1215953060 1210924367 -1347373683 1304194595 -340414210 46081740 -626069284 1111014792 2144083855 946883908 577288000 865183814 911092841 -882348501 -652199635 385728588 1819396505 697391430 433392770 -102132285 1791531238 -1426684267 -99446815 -1680078140 -1689517741 913343467 1112756617 953966646 75222882 -1530081100
REM
CELL 1.54180   50.00000   50.00000   50.00000   90.00000   90.00000   90.00000
LATT -1
SFAC C  
C      1  0.5688530000000  0.4490130000000  0.5437080000000 1.0
C      1  0.5679520000000  0.5546870000000  0.5394420000000 1.0
C      1  0.4990250000000  0.5643780000000  0.4283940000000 1.0
C      1  0.4980230000000  0.4381220000000  0.4299860000000 1.0
C      1  0.4750020000000  0.4790340000000  0.4804670000000 1.0
C      1  0.4711310000000  0.5241610000000  0.4739090000000 1.0
C      1  0.4329370000000  0.5547540000000  0.4758910000000 1.0
C      1  0.4326780000000  0.4457750000000  0.4748790000000 1.0
C      1  0.5073800000000  0.5313370000000  0.5738710000000 1.0
C      1  0.5067680000000  0.4712600000000  0.5754930000000 1.0
C      1  0.4982210000000  0.5795090000000  0.5284450000000 1.0
C      1  0.5000940000000  0.4228930000000  0.5253560000000 1.0
C      1  0.4538040000000  0.4729780000000  0.5301570000000 1.0
C      1  0.4592650000000  0.5297980000000  0.5289100000000 1.0
C      1  0.5672170000000  0.5273680000000  0.5702830000000 1.0
C      1  0.5668060000000  0.4785820000000  0.5709990000000 1.0
C      1  0.4092400000000  0.5512150000000  0.4929530000000 1.0
C      1  0.4098760000000  0.4501920000000  0.4924580000000 1.0
C      1  0.5211070000000  0.5689000000000  0.5406380000000 1.0
C      1  0.5211130000000  0.4325750000000  0.5421230000000 1.0
C      1  0.4435980000000  0.5421330000000  0.5505770000000 1.0
C      1  0.4418380000000  0.4582890000000  0.5522230000000 1.0
C      1  0.5885360000000  0.5284270000000  0.4701930000000 1.0
C      1  0.5865350000000  0.4736380000000  0.4643190000000 1.0
C      1  0.5481150000000  0.4313150000000  0.5320990000000 1.0
C      1  0.5465050000000  0.5707580000000  0.5267000000000 1.0
C      1  0.4822250000000  0.4753110000000  0.5286550000000 1.0
C      1  0.4879540000000  0.5266920000000  0.5312300000000 1.0
C      1  0.5280910000000  0.5419050000000  0.4607510000000 1.0
C      1  0.5297270000000  0.4640210000000  0.4588290000000 1.0
C      1  0.4331940000000  0.5383840000000  0.4531780000000 1.0
C      1  0.4370790000000  0.4679180000000  0.4581260000000 1.0
C      1  0.5506530000000  0.4480680000000  0.4431020000000 1.0
C      1  0.5451560000000  0.5450690000000  0.4375300000000 1.0
C      1  0.5194540000000  0.4822950000000  0.4108720000000 1.0
C      1  0.5299340000000  0.5292500000000  0.4156480000000 1.0
C      1  0.4664820000000  0.4434010000000  0.5584370000000 1.0
C      1  0.4660440000000  0.5587970000000  0.5602500000000 1.0
C      1  0.5850920000000  0.4738080000000  0.5495070000000 1.0
C      1  0.5863650000000  0.5312360000000  0.5489140000000 1.0
C      1  0.5286350000000  0.4166800000000  0.4630480000000 1.0
C      1  0.5335000000000  0.5890120000000  0.4729470000000 1.0
C      1  0.4692940000000  0.4597970000000  0.4074210000000 1.0
C      1  0.4767600000000  0.5359840000000  0.4078680000000 1.0
C      1  0.4711560000000  0.5719770000000  0.5352780000000 1.0
C      1  0.4724080000000  0.4305520000000  0.5332200000000 1.0
C      1  0.4821610000000  0.4576130000000  0.5799080000000 1.0
C      1  0.4828690000000  0.5441700000000  0.5804740000000 1.0
C      1  0.4790970000000  0.5809470000000  0.4749120000000 1.0
C      1  0.4782770000000  0.4210820000000  0.4740450000000 1.0
C      1  0.4186980000000  0.5279690000000  0.5579440000000 1.0
C      1  0.4177310000000  0.4735750000000  0.5582340000000 1.0
C      1  0.4210970000000  0.5565520000000  0.5182050000000 1.0
C      1  0.4220090000000  0.4449500000000  0.5177010000000 1.0
C      1  0.5505920000000  0.5247320000000  0.4914310000000 1.0
C      1  0.5523790000000  0.4802430000000  0.4902240000000 1.0
C      1  0.4896070000000  0.4617980000000  0.4996720000000 1.0
C      1  0.4850810000000  0.5396760000000  0.4931120000000 1.0
C      1  0.5547460000000  0.5704980000000  0.4680950000000 1.0
C      1  0.5553250000000  0.4246920000000  0.4602140000000 1.0
C      1  0.4707670000000  0.5556600000000  0.4289180000000 1.0
C      1  0.4696270000000  0.4444640000000  0.4343850000000 1.0
C      1  0.5051960000000  0.5441490000000  0.4079600000000 1.0
C      1  0.4988840000000  0.4562400000000  0.4066500000000 1.0
C      1  0.4534710000000  0.5724110000000  0.4871550000000 1.0
C      1  0.4530110000000  0.4285150000000  0.4868480000000 1.0
C      1  0.5858830000000  0.5396100000000  0.4980270000000 1.0
C      1  0.5819990000000  0.4555810000000  0.4882690000000 1.0
C      1  0.5685800000000  0.5326510000000  0.4488500000000 1.0
C      1  0.5708890000000  0.4687590000000  0.4395380000000 1.0
C      1  0.4935880000000  0.4445420000000  0.4779360000000 1.0
C      1  0.4917060000000  0.5574430000000  0.4745830000000 1.0
C      1  0.5716210000000  0.4748530000000  0.5090600000000 1.0
C      1  0.5639660000000  0.5234740000000  0.5144170000000 1.0
C      1  0.4613310000000  0.5382670000000  0.4507310000000 1.0
C      1  0.4648890000000  0.4677000000000  0.4521270000000 1.0
C      1  0.5410120000000  0.5876140000000  0.5027460000000 1.0
C      1  0.5462670000000  0.4201170000000  0.5060880000000 1.0
C      1  0.5301650000000  0.5449580000000  0.4893200000000 1.0
C      1  0.5333180000000  0.4599040000000  0.4881790000000 1.0
C      1  0.5054360000000  0.5510990000000  0.4538530000000 1.0
C      1  0.5053080000000  0.4509750000000  0.4550820000000 1.0
C      1  0.5478520000000  0.5392580000000  0.5521220000000 1.0
C      1  0.5493040000000  0.4604700000000  0.5599200000000 1.0
C      1  0.5225330000000  0.5467400000000  0.5570940000000 1.0
C      1  0.5221960000000  0.4552420000000  0.5588060000000 1.0
C      1  0.3960580000000  0.5269790000000  0.5018580000000 1.0
C      1  0.3966740000000  0.4744340000000  0.5018060000000 1.0
C      1  0.5090880000000  0.5324860000000  0.5094430000000 1.0
C      1  0.5164120000000  0.4696440000000  0.5081350000000 1.0
C      1  0.4484050000000  0.4323330000000  0.5153780000000 1.0
C      1  0.4484010000000  0.5681620000000  0.5155590000000 1.0
C      1  0.5668890000000  0.4306550000000  0.4876360000000 1.0
C      1  0.5713810000000  0.5618100000000  0.4881750000000 1.0
C      1  0.5046370000000  0.5939170000000  0.4804630000000 1.0
C      1  0.5054850000000  0.4069610000000  0.4762120000000 1.0
C      1  0.4087880000000  0.5293390000000  0.5293810000000 1.0
C      1  0.4094600000000  0.4729020000000  0.5290000000000 1.0
C      1  0.5168700000000  0.4131370000000  0.5029110000000 1.0
C      1  0.5118130000000  0.5943250000000  0.5077580000000 1.0
C      1  0.4675300000000  0.5221480000000  0.5905120000000 1.0
C      1  0.4667900000000  0.4793270000000  0.5905810000000 1.0
C      1  0.4970580000000  0.5003370000000  0.6181790000000 1.0
C      1  0.5150610000000  0.5004680000000  0.4998010000000 1.0
C      1  0.5419860000000  0.5019600000000  0.4926990000000 1.0
C      1  0.3946560000000  0.5021700000000  0.4571950000000 1.0
C      1  0.4649290000000  0.4954350000000  0.4999170000000 1.0
C      1  0.5616730000000  0.5025830000000  0.5832670000000 1.0
C      1  0.4470870000000  0.5008620000000  0.5340880000000 1.0
C      1  0.4465780000000  0.5009600000000  0.5591700000000 1.0
C      1  0.4720550000000  0.5067130000000  0.4121520000000 1.0
C      1  0.5886160000000  0.4956170000000  0.5029490000000 1.0
C      1  0.4712970000000  0.5005950000000  0.5702040000000 1.0
C      1  0.5010520000000  0.4977030000000  0.3939870000000 1.0
C      1  0.5909860000000  0.5026920000000  0.5409120000000 1.0
C      1  0.4836940000000  0.4959260000000  0.4371620000000 1.0
C      1  0.5988840000000  0.5006340000000  0.4659800000000 1.0
C      1  0.3940260000000  0.5008020000000  0.4863840000000 1.0
C      1  0.5175080000000  0.5013990000000  0.5747510000000 1.0
C      1  0.5519330000000  0.5021680000000  0.5303800000000 1.0
C      1  0.5375360000000  0.5034150000000  0.5958600000000 1.0
C      1  0.5201690000000  0.5007440000000  0.6164630000000 1.0
C      1  0.4414030000000  0.5009210000000  0.4191270000000 1.0
C      1  0.4384460000000  0.5019550000000  0.4950570000000 1.0
C      1  0.5621940000000  0.4931180000000  0.4240920000000 1.0
C      1  0.4848430000000  0.5021890000000  0.4655590000000 1.0
C      1  0.5111670000000  0.4996230000000  0.4315580000000 1.0
C      1  0.5092030000000  0.5032090000000  0.4731610000000 1.0
C      1  0.4198700000000  0.5008290000000  0.5696470000000 1.0
C      1  0.5263740000000  0.4989290000000  0.5448210000000 1.0
C      1  0.4226560000000  0.4967640000000  0.4045830000000 1.0
C      1  0.4231600000000  0.5012400000000  0.5202100000000 1.0
C      1  0.6134830000000  0.4994730000000  0.4906240000000 1.0
C      1  0.5272430000000  0.4972310000000  0.4540680000000 1.0
C      1  0.5402260000000  0.5024360000000  0.4060630000000 1.0
C      1  0.4335600000000  0.4948940000000  0.4672350000000 1.0
C      1  0.4958400000000  0.4991920000000  0.5403580000000 1.0
C      1  0.6091590000000  0.5051360000000  0.5184450000000 1.0
C      1  0.4695910000000  0.5007070000000  0.6103610000000 1.0
C      1  0.5564020000000  0.5065380000000  0.4487820000000 1.0
C      1  0.4239440000000  0.5118790000000  0.4456180000000 1.0
END
