TITL C-2441163-1170-1219 0.105687917143974 125000 -17320.7522147866 0 0 134 (C1) n - 1
REM
REM in /home/bkarasulu/work/CARBON/AIRSS/Generating-Clusters/ReaxFF-fromJPCA2015/Units_Real/with-SteepDescent/Higher-Symm
REM
REM
REM
REM
REM
REM ./C.cell (1df0a924f5614ab8850e4351716899ee)
REM
REM compiler GCC version 9.2.1 20190827 (Red Hat 9.2.1-1)
REM options -cpp -mtune=generic -march=x86-64 -g -O0 -fpre-include=/usr/include/finclude/math-vector-fortran.h
REM seed -1216298458 -1911648804 -665926526 -1984259790 -1802235115 -1190894058 644455761 -325326451 2109335781 -1587078033 -329536733 -456124611 1484984730 -974273074 -542040239 999137092 1583555740 -2126464333 1466604635 -403737949 -726838389 -1721093042 358592572 1438422963 2098094334 672225352 1634635630 2030974029 1111299721 -402596137 -824359893 1403781145 -1164307122
REM
CELL 1.54180   50.00000   50.00000   50.00000   90.00000   90.00000   90.00000
LATT -1
SFAC C  
C      1  0.5872450000000  0.5258130000000  0.5042900000000 1.0
C      1  0.5846770000000  0.4814710000000  0.5212280000000 1.0
C      1  0.5874170000000  0.4889770000000  0.4737140000000 1.0
C      1  0.4184240000000  0.5403790000000  0.4962470000000 1.0
C      1  0.4154740000000  0.4831890000000  0.5347200000000 1.0
C      1  0.4181530000000  0.4749250000000  0.4673170000000 1.0
C      1  0.5271860000000  0.4951200000000  0.4107560000000 1.0
C      1  0.5257220000000  0.5798100000000  0.5403210000000 1.0
C      1  0.5268620000000  0.4251250000000  0.5502690000000 1.0
C      1  0.4710340000000  0.4962800000000  0.4104940000000 1.0
C      1  0.4708380000000  0.5800280000000  0.5412610000000 1.0
C      1  0.4716240000000  0.4256000000000  0.5501050000000 1.0
C      1  0.4861980000000  0.4717420000000  0.5847180000000 1.0
C      1  0.4841040000000  0.4464330000000  0.4228360000000 1.0
C      1  0.4816960000000  0.5949630000000  0.4921190000000 1.0
C      1  0.5137380000000  0.4602980000000  0.5889770000000 1.0
C      1  0.5139830000000  0.4448390000000  0.4199610000000 1.0
C      1  0.5143540000000  0.5845150000000  0.4926230000000 1.0
C      1  0.4703410000000  0.5014390000000  0.5487980000000 1.0
C      1  0.4694110000000  0.4589360000000  0.4779410000000 1.0
C      1  0.4700750000000  0.5389940000000  0.4749150000000 1.0
C      1  0.5350330000000  0.5072570000000  0.5398070000000 1.0
C      1  0.5349380000000  0.4605550000000  0.4841930000000 1.0
C      1  0.5415570000000  0.5508270000000  0.4723220000000 1.0
C      1  0.5082610000000  0.5567490000000  0.5045150000000 1.0
C      1  0.5141030000000  0.4680500000000  0.5455940000000 1.0
C      1  0.5129140000000  0.4797980000000  0.4533630000000 1.0
C      1  0.4825590000000  0.5516380000000  0.5113080000000 1.0
C      1  0.4865890000000  0.4668350000000  0.5403750000000 1.0
C      1  0.4860180000000  0.4794340000000  0.4484210000000 1.0
C      1  0.5220440000000  0.5396540000000  0.5734680000000 1.0
C      1  0.5214740000000  0.4163280000000  0.4951850000000 1.0
C      1  0.5217520000000  0.5444370000000  0.4311610000000 1.0
C      1  0.4806540000000  0.5319270000000  0.5758320000000 1.0
C      1  0.4791490000000  0.4153890000000  0.4936520000000 1.0
C      1  0.4801850000000  0.5477390000000  0.4317060000000 1.0
C      1  0.5804890000000  0.4437680000000  0.4971240000000 1.0
C      1  0.5810030000000  0.5292220000000  0.4526800000000 1.0
C      1  0.5804980000000  0.5251490000000  0.5491220000000 1.0
C      1  0.4180240000000  0.4481700000000  0.4988300000000 1.0
C      1  0.4171230000000  0.5253820000000  0.4573040000000 1.0
C      1  0.4170630000000  0.5244330000000  0.5425040000000 1.0
C      1  0.4819160000000  0.5132880000000  0.4788770000000 1.0
C      1  0.4845030000000  0.5107260000000  0.5272260000000 1.0
C      1  0.4834480000000  0.4761400000000  0.4957190000000 1.0
C      1  0.5111770000000  0.5219180000000  0.4780370000000 1.0
C      1  0.5128950000000  0.5054690000000  0.5202360000000 1.0
C      1  0.5139150000000  0.4767920000000  0.4990950000000 1.0
C      1  0.4505350000000  0.4304460000000  0.4575680000000 1.0
C      1  0.4448910000000  0.5674410000000  0.4586440000000 1.0
C      1  0.4421200000000  0.5019670000000  0.5792760000000 1.0
C      1  0.5437240000000  0.4292760000000  0.4568190000000 1.0
C      1  0.5517240000000  0.5754190000000  0.4629340000000 1.0
C      1  0.5451390000000  0.4976980000000  0.5830810000000 1.0
C      1  0.4577340000000  0.4784290000000  0.5433400000000 1.0
C      1  0.4567870000000  0.4743150000000  0.4592780000000 1.0
C      1  0.4586710000000  0.5473820000000  0.4980870000000 1.0
C      1  0.5449210000000  0.4797000000000  0.5405400000000 1.0
C      1  0.5464720000000  0.4724270000000  0.4615420000000 1.0
C      1  0.5497350000000  0.5479580000000  0.4986000000000 1.0
C      1  0.5581970000000  0.5748550000000  0.5070100000000 1.0
C      1  0.5565510000000  0.4603560000000  0.5602020000000 1.0
C      1  0.5567620000000  0.4670800000000  0.4345890000000 1.0
C      1  0.4409330000000  0.5727510000000  0.5055590000000 1.0
C      1  0.4428900000000  0.4599850000000  0.5629370000000 1.0
C      1  0.4412190000000  0.4686710000000  0.4340630000000 1.0
C      1  0.4840600000000  0.4376880000000  0.5724070000000 1.0
C      1  0.4840290000000  0.4706910000000  0.4056130000000 1.0
C      1  0.4832150000000  0.5975810000000  0.5212280000000 1.0
C      1  0.5123120000000  0.4341690000000  0.5740930000000 1.0
C      1  0.5136600000000  0.4700320000000  0.4045520000000 1.0
C      1  0.5123870000000  0.5965950000000  0.5203090000000 1.0
C      1  0.5184830000000  0.5303980000000  0.5047850000000 1.0
C      1  0.5195310000000  0.4567070000000  0.5201650000000 1.0
C      1  0.5242960000000  0.5053430000000  0.4575030000000 1.0
C      1  0.4800090000000  0.5373210000000  0.5307870000000 1.0
C      1  0.4789840000000  0.4574610000000  0.5173440000000 1.0
C      1  0.4793060000000  0.5050940000000  0.4521650000000 1.0
C      1  0.4069440000000  0.5063920000000  0.5199900000000 1.0
C      1  0.4085310000000  0.4766740000000  0.4947660000000 1.0
C      1  0.4081650000000  0.5154360000000  0.4842400000000 1.0
C      1  0.5927830000000  0.5093390000000  0.5274650000000 1.0
C      1  0.5932220000000  0.4705000000000  0.4957320000000 1.0
C      1  0.5930400000000  0.5171430000000  0.4766900000000 1.0
C      1  0.5581960000000  0.5240900000000  0.5122250000000 1.0
C      1  0.5563740000000  0.4766260000000  0.5138260000000 1.0
C      1  0.5585080000000  0.4958380000000  0.4705960000000 1.0
C      1  0.4414020000000  0.5272890000000  0.5070300000000 1.0
C      1  0.4409210000000  0.4798500000000  0.5210080000000 1.0
C      1  0.4399070000000  0.4935640000000  0.4725900000000 1.0
C      1  0.4379290000000  0.5435960000000  0.5506360000000 1.0
C      1  0.4365540000000  0.4327080000000  0.5176230000000 1.0
C      1  0.4372910000000  0.5216880000000  0.4363800000000 1.0
C      1  0.5639930000000  0.5500130000000  0.5497880000000 1.0
C      1  0.5639480000000  0.4310740000000  0.5181740000000 1.0
C      1  0.5634750000000  0.5184810000000  0.4323620000000 1.0
C      1  0.5444300000000  0.5896050000000  0.4865340000000 1.0
C      1  0.5422050000000  0.4690480000000  0.5838230000000 1.0
C      1  0.5413720000000  0.4428420000000  0.4311130000000 1.0
C      1  0.4565720000000  0.5834740000000  0.4832930000000 1.0
C      1  0.4565360000000  0.4753470000000  0.5833150000000 1.0
C      1  0.4561070000000  0.4434980000000  0.4317650000000 1.0
C      1  0.5156580000000  0.5161230000000  0.4285890000000 1.0
C      1  0.5135500000000  0.5584070000000  0.5535260000000 1.0
C      1  0.5143310000000  0.4277840000000  0.5222650000000 1.0
C      1  0.4855620000000  0.5180500000000  0.4273880000000 1.0
C      1  0.4855650000000  0.5540820000000  0.5536240000000 1.0
C      1  0.4846640000000  0.4293490000000  0.5209260000000 1.0
C      1  0.4458490000000  0.5687790000000  0.5348250000000 1.0
C      1  0.4450490000000  0.4357670000000  0.5467970000000 1.0
C      1  0.4454500000000  0.4959860000000  0.4227980000000 1.0
C      1  0.5529030000000  0.5727220000000  0.5351840000000 1.0
C      1  0.5533010000000  0.4350680000000  0.5462550000000 1.0
C      1  0.5536560000000  0.4928080000000  0.4212970000000 1.0
C      1  0.5507620000000  0.5442500000000  0.4284930000000 1.0
C      1  0.5513520000000  0.5409230000000  0.5745120000000 1.0
C      1  0.5505840000000  0.4145240000000  0.4977520000000 1.0
C      1  0.4514880000000  0.5482980000000  0.4363770000000 1.0
C      1  0.4522120000000  0.5299710000000  0.5732500000000 1.0
C      1  0.4512090000000  0.4195560000000  0.4973490000000 1.0
C      1  0.4857620000000  0.5574170000000  0.4586940000000 1.0
C      1  0.4889310000000  0.5035810000000  0.5716140000000 1.0
C      1  0.4790650000000  0.4326100000000  0.4695650000000 1.0
C      1  0.5153310000000  0.5485960000000  0.4600810000000 1.0
C      1  0.5219210000000  0.5097310000000  0.5669900000000 1.0
C      1  0.5206210000000  0.4362170000000  0.4738840000000 1.0
C      1  0.4280590000000  0.4445360000000  0.4714660000000 1.0
C      1  0.4217960000000  0.5524360000000  0.4680800000000 1.0
C      1  0.4203320000000  0.5013490000000  0.5600390000000 1.0
C      1  0.5659730000000  0.4278120000000  0.4761990000000 1.0
C      1  0.5683380000000  0.5559730000000  0.4490980000000 1.0
C      1  0.5663470000000  0.5151640000000  0.5735740000000 1.0
C      1  0.4460650000000  0.4996340000000  0.5007930000000 1.0
C      1  0.5513030000000  0.5000350000000  0.4983800000000 1.0
END
