TITL C-2441158-471-643 0.0257454417455314 125000 -11936.3822725191 0 0 86 (C1) n - 1
REM
REM in /home/bkarasulu/work/CARBON/AIRSS/Generating-Clusters/ReaxFF-fromJPCA2015/Units_Real/with-SteepDescent/Higher-Symm
REM
REM
REM
REM
REM
REM ./C.cell (1df0a924f5614ab8850e4351716899ee)
REM
REM compiler GCC version 9.2.1 20190827 (Red Hat 9.2.1-1)
REM options -cpp -mtune=generic -march=x86-64 -g -O0 -fpre-include=/usr/include/finclude/math-vector-fortran.h
REM seed 60872792 834066157 1291152921 553976938 -1827034877 1774426853 1827937964 -1464428548 1989206650 349151724 -1956876939 1150118814 -1562396474 -703218215 1756361675 -143896121 -430673445 68171272 -862886122 -1500020816 291233792 1060728470 1812157668 1981656903 202887807 -31867180 2090025466 -94944514 -1602025350 -1554547288 -1985434308 -187048885 607356606
REM
CELL 1.54180   50.00000   50.00000   50.00000   90.00000   90.00000   90.00000
LATT -1
SFAC C  
C      1  0.5056960000000  0.5276030000000  0.5294020000000 1.0
C      1  0.4863250000000  0.4382890000000  0.5422000000000 1.0
C      1  0.4747200000000  0.5272190000000  0.5635730000000 1.0
C      1  0.5334390000000  0.5711730000000  0.5120920000000 1.0
C      1  0.4238500000000  0.4700150000000  0.4880560000000 1.0
C      1  0.4369900000000  0.4778960000000  0.4459050000000 1.0
C      1  0.5018110000000  0.5007470000000  0.4555140000000 1.0
C      1  0.5407680000000  0.4856630000000  0.4503000000000 1.0
C      1  0.4457770000000  0.4431130000000  0.5207780000000 1.0
C      1  0.5675300000000  0.5295640000000  0.4842900000000 1.0
C      1  0.4463680000000  0.4508200000000  0.4518090000000 1.0
C      1  0.4642610000000  0.5178300000000  0.5092550000000 1.0
C      1  0.5123120000000  0.4795620000000  0.4393190000000 1.0
C      1  0.4992100000000  0.4544580000000  0.5619560000000 1.0
C      1  0.4683190000000  0.4963480000000  0.4906000000000 1.0
C      1  0.5743980000000  0.4541500000000  0.5127200000000 1.0
C      1  0.4632760000000  0.5718290000000  0.4804920000000 1.0
C      1  0.5445490000000  0.5488510000000  0.5259210000000 1.0
C      1  0.5075020000000  0.4501420000000  0.4897870000000 1.0
C      1  0.4740420000000  0.4146320000000  0.4859750000000 1.0
C      1  0.5167860000000  0.5849840000000  0.5326940000000 1.0
C      1  0.5362620000000  0.4675680000000  0.5344420000000 1.0
C      1  0.5561950000000  0.5074600000000  0.4400050000000 1.0
C      1  0.4698990000000  0.4576410000000  0.5278270000000 1.0
C      1  0.4639160000000  0.4857950000000  0.4347740000000 1.0
C      1  0.4274540000000  0.4927320000000  0.4692710000000 1.0
C      1  0.4263810000000  0.5162050000000  0.5264770000000 1.0
C      1  0.5447150000000  0.4822190000000  0.4794220000000 1.0
C      1  0.4379290000000  0.4892040000000  0.5316900000000 1.0
C      1  0.5194000000000  0.5696830000000  0.4570960000000 1.0
C      1  0.5618330000000  0.4349890000000  0.4969560000000 1.0
C      1  0.4508080000000  0.5645850000000  0.5053630000000 1.0
C      1  0.4698150000000  0.5683760000000  0.5279250000000 1.0
C      1  0.5063110000000  0.4896710000000  0.5055810000000 1.0
C      1  0.5839770000000  0.5056980000000  0.4900120000000 1.0
C      1  0.5775950000000  0.4966200000000  0.5418440000000 1.0
C      1  0.5159220000000  0.5241090000000  0.4548140000000 1.0
C      1  0.5023400000000  0.5373040000000  0.4271760000000 1.0
C      1  0.4934230000000  0.4381890000000  0.4445840000000 1.0
C      1  0.4360180000000  0.4453100000000  0.4785660000000 1.0
C      1  0.4794270000000  0.5234230000000  0.5353390000000 1.0
C      1  0.5107910000000  0.5164080000000  0.5043870000000 1.0
C      1  0.5271100000000  0.4468660000000  0.5522950000000 1.0
C      1  0.5687090000000  0.4478010000000  0.4716580000000 1.0
C      1  0.5302340000000  0.4183600000000  0.5401120000000 1.0
C      1  0.5784180000000  0.5104210000000  0.5184510000000 1.0
C      1  0.5177500000000  0.4477920000000  0.4611370000000 1.0
C      1  0.4386050000000  0.5042440000000  0.5701410000000 1.0
C      1  0.4731010000000  0.4597700000000  0.4439240000000 1.0
C      1  0.4281220000000  0.4663810000000  0.5164740000000 1.0
C      1  0.5725350000000  0.4780210000000  0.4868850000000 1.0
C      1  0.5143600000000  0.5630850000000  0.4856780000000 1.0
C      1  0.4732650000000  0.5047260000000  0.4609370000000 1.0
C      1  0.4752570000000  0.4223620000000  0.4587630000000 1.0
C      1  0.5434290000000  0.4355760000000  0.4678130000000 1.0
C      1  0.5588760000000  0.5293000000000  0.5116310000000 1.0
C      1  0.4538080000000  0.4831050000000  0.5564080000000 1.0
C      1  0.5039540000000  0.4179190000000  0.5269630000000 1.0
C      1  0.4346000000000  0.5211390000000  0.4739880000000 1.0
C      1  0.4384120000000  0.5321940000000  0.5027540000000 1.0
C      1  0.4902350000000  0.4863620000000  0.4188260000000 1.0
C      1  0.5437560000000  0.5319120000000  0.4407170000000 1.0
C      1  0.5529900000000  0.5736100000000  0.4951560000000 1.0
C      1  0.5365630000000  0.5178720000000  0.5676820000000 1.0
C      1  0.4562050000000  0.5308080000000  0.4575610000000 1.0
C      1  0.5000730000000  0.4232190000000  0.4982180000000 1.0
C      1  0.4690090000000  0.5569650000000  0.4562390000000 1.0
C      1  0.4273910000000  0.5261330000000  0.5535020000000 1.0
C      1  0.5152250000000  0.5030680000000  0.5744250000000 1.0
C      1  0.5252420000000  0.5413420000000  0.5467620000000 1.0
C      1  0.4934600000000  0.5139150000000  0.4162190000000 1.0
C      1  0.5643240000000  0.5576600000000  0.4750470000000 1.0
C      1  0.5575050000000  0.4787950000000  0.5496950000000 1.0
C      1  0.5125620000000  0.5676080000000  0.5545880000000 1.0
C      1  0.5615540000000  0.5038860000000  0.5632640000000 1.0
C      1  0.4951810000000  0.5609220000000  0.4426030000000 1.0
C      1  0.5133780000000  0.5337350000000  0.4825590000000 1.0
C      1  0.4907440000000  0.5802010000000  0.5427200000000 1.0
C      1  0.5266950000000  0.4718310000000  0.5036000000000 1.0
C      1  0.4489680000000  0.5298520000000  0.5711880000000 1.0
C      1  0.4810310000000  0.5692360000000  0.5018150000000 1.0
C      1  0.4489050000000  0.4268820000000  0.4966730000000 1.0
C      1  0.4884790000000  0.5044830000000  0.5781790000000 1.0
C      1  0.4825160000000  0.4746020000000  0.5039330000000 1.0
C      1  0.4827730000000  0.4787130000000  0.5649460000000 1.0
C      1  0.5463510000000  0.5592510000000  0.4516840000000 1.0
END
