TITL C-2441169-1362-1425 0.112598339279505 125000 -21405.9396253827 0 0 164 (C1) n - 1
REM
REM in /home/bkarasulu/work/CARBON/AIRSS/Generating-Clusters/ReaxFF-fromJPCA2015/Units_Real/with-SteepDescent/Higher-Symm
REM
REM
REM
REM
REM
REM ./C.cell (1df0a924f5614ab8850e4351716899ee)
REM
REM compiler GCC version 9.2.1 20190827 (Red Hat 9.2.1-1)
REM options -cpp -mtune=generic -march=x86-64 -g -O0 -fpre-include=/usr/include/finclude/math-vector-fortran.h
REM seed 1434907686 -1519424670 -1586503964 -48798450 902910632 1308294032 869119 -191306335 812963249 -1980773622 -192256202 1329512825 1584457567 2018714906 -980581459 1640468549 -1210455533 1273840168 -633564906 97983886 -864614703 733812958 -769786698 1448086774 -1209897440 1076161914 -350912856 317822303 1808307614 -1002008927 -1395119472 1168779252 -1685060967
REM
CELL 1.54180   50.00000   50.00000   50.00000   90.00000   90.00000   90.00000
LATT -1
SFAC C  
C      1  0.4828000000000  0.5110250000000  0.4750770000000 1.0
C      1  0.4831240000000  0.5163110000000  0.5236090000000 1.0
C      1  0.4836250000000  0.4726980000000  0.5016130000000 1.0
C      1  0.4736450000000  0.3942720000000  0.5118810000000 1.0
C      1  0.4732160000000  0.5375200000000  0.4003950000000 1.0
C      1  0.4727300000000  0.5608730000000  0.5811620000000 1.0
C      1  0.4880960000000  0.5617530000000  0.4060140000000 1.0
C      1  0.4891880000000  0.5486590000000  0.6014640000000 1.0
C      1  0.4917260000000  0.3898010000000  0.4892930000000 1.0
C      1  0.4399340000000  0.5074220000000  0.4130550000000 1.0
C      1  0.4460680000000  0.5701490000000  0.5491380000000 1.0
C      1  0.4451320000000  0.4210930000000  0.5358120000000 1.0
C      1  0.5768550000000  0.5313760000000  0.5675260000000 1.0
C      1  0.5757090000000  0.4269610000000  0.4954520000000 1.0
C      1  0.5781900000000  0.5334900000000  0.4324410000000 1.0
C      1  0.4545810000000  0.5634020000000  0.4398850000000 1.0
C      1  0.4529220000000  0.5178350000000  0.5888300000000 1.0
C      1  0.4546240000000  0.4133770000000  0.4701460000000 1.0
C      1  0.5450990000000  0.4457660000000  0.5552280000000 1.0
C      1  0.5402210000000  0.4750440000000  0.4186980000000 1.0
C      1  0.5395200000000  0.5879050000000  0.5260760000000 1.0
C      1  0.4956180000000  0.5196620000000  0.5530370000000 1.0
C      1  0.4942330000000  0.4434630000000  0.4923280000000 1.0
C      1  0.4969260000000  0.5289690000000  0.4516170000000 1.0
C      1  0.4068460000000  0.5002380000000  0.5302710000000 1.0
C      1  0.4072640000000  0.4736310000000  0.4861740000000 1.0
C      1  0.4065460000000  0.5266810000000  0.4860060000000 1.0
C      1  0.5608760000000  0.4801460000000  0.5713280000000 1.0
C      1  0.5557040000000  0.4502950000000  0.4475350000000 1.0
C      1  0.5483630000000  0.5837320000000  0.4966910000000 1.0
C      1  0.5098040000000  0.5524430000000  0.4975180000000 1.0
C      1  0.5072190000000  0.4735620000000  0.5510560000000 1.0
C      1  0.5073540000000  0.4733400000000  0.4515370000000 1.0
C      1  0.5006150000000  0.6043530000000  0.4973130000000 1.0
C      1  0.5055920000000  0.4448470000000  0.5873960000000 1.0
C      1  0.5108310000000  0.4442680000000  0.4047790000000 1.0
C      1  0.5498880000000  0.5275690000000  0.5347130000000 1.0
C      1  0.5479650000000  0.4640460000000  0.4902420000000 1.0
C      1  0.5466490000000  0.5389710000000  0.4683710000000 1.0
C      1  0.4475870000000  0.5351970000000  0.5233870000000 1.0
C      1  0.4491380000000  0.4606850000000  0.5213170000000 1.0
C      1  0.4474730000000  0.5048480000000  0.4558370000000 1.0
C      1  0.5130760000000  0.5480520000000  0.3992430000000 1.0
C      1  0.5128090000000  0.5606070000000  0.5887140000000 1.0
C      1  0.5139990000000  0.3901820000000  0.5078410000000 1.0
C      1  0.4532920000000  0.5058700000000  0.5223640000000 1.0
C      1  0.4535190000000  0.4757880000000  0.4973030000000 1.0
C      1  0.4529580000000  0.5174200000000  0.4808640000000 1.0
C      1  0.4765260000000  0.5778220000000  0.4270410000000 1.0
C      1  0.4769570000000  0.5222010000000  0.6055890000000 1.0
C      1  0.4810210000000  0.4006950000000  0.4644360000000 1.0
C      1  0.5615240000000  0.5520720000000  0.4466380000000 1.0
C      1  0.5625040000000  0.5084760000000  0.5789630000000 1.0
C      1  0.5598540000000  0.4306120000000  0.4694630000000 1.0
C      1  0.4193940000000  0.5037060000000  0.5567910000000 1.0
C      1  0.4205190000000  0.4495260000000  0.4758810000000 1.0
C      1  0.4190200000000  0.5497750000000  0.4700810000000 1.0
C      1  0.4647610000000  0.5192840000000  0.4215520000000 1.0
C      1  0.4582930000000  0.5469750000000  0.5607120000000 1.0
C      1  0.4595320000000  0.4201230000000  0.5106250000000 1.0
C      1  0.5139330000000  0.5096030000000  0.5792210000000 1.0
C      1  0.5165090000000  0.4365780000000  0.4757420000000 1.0
C      1  0.5201370000000  0.5714860000000  0.4527970000000 1.0
C      1  0.4043340000000  0.4468500000000  0.5259220000000 1.0
C      1  0.4056330000000  0.5042420000000  0.4439780000000 1.0
C      1  0.4043270000000  0.5494120000000  0.5327190000000 1.0
C      1  0.4959450000000  0.5701920000000  0.5677370000000 1.0
C      1  0.4965020000000  0.3925220000000  0.5306470000000 1.0
C      1  0.4985650000000  0.5229160000000  0.3981590000000 1.0
C      1  0.5216870000000  0.5179920000000  0.5361540000000 1.0
C      1  0.5320140000000  0.4677430000000  0.5144620000000 1.0
C      1  0.5239660000000  0.5231430000000  0.4596080000000 1.0
C      1  0.5283710000000  0.6039940000000  0.4864660000000 1.0
C      1  0.5279960000000  0.4619930000000  0.5861420000000 1.0
C      1  0.5168760000000  0.4283060000000  0.4282970000000 1.0
C      1  0.4325380000000  0.5286600000000  0.5703920000000 1.0
C      1  0.4342620000000  0.4248560000000  0.4891090000000 1.0
C      1  0.4290710000000  0.5485240000000  0.4423400000000 1.0
C      1  0.4940000000000  0.5111550000000  0.4253620000000 1.0
C      1  0.4996850000000  0.5632780000000  0.5397300000000 1.0
C      1  0.4960480000000  0.4387160000000  0.5261910000000 1.0
C      1  0.4204650000000  0.4233450000000  0.5199010000000 1.0
C      1  0.4205720000000  0.5235980000000  0.4283650000000 1.0
C      1  0.4201750000000  0.5573620000000  0.5557490000000 1.0
C      1  0.4737700000000  0.5440080000000  0.5150390000000 1.0
C      1  0.4766750000000  0.4618880000000  0.5287150000000 1.0
C      1  0.4714360000000  0.4890780000000  0.4586880000000 1.0
C      1  0.5302550000000  0.5603720000000  0.4787090000000 1.0
C      1  0.5274520000000  0.4851310000000  0.5672960000000 1.0
C      1  0.5253370000000  0.4501150000000  0.4516070000000 1.0
C      1  0.4974770000000  0.5017310000000  0.6028540000000 1.0
C      1  0.4959200000000  0.4108880000000  0.4405040000000 1.0
C      1  0.4971120000000  0.5874830000000  0.4462370000000 1.0
C      1  0.5152450000000  0.5446550000000  0.5242480000000 1.0
C      1  0.5205010000000  0.4538470000000  0.5365920000000 1.0
C      1  0.5280800000000  0.4949640000000  0.4534910000000 1.0
C      1  0.4369050000000  0.4828310000000  0.5672850000000 1.0
C      1  0.4327750000000  0.4575590000000  0.4511370000000 1.0
C      1  0.4377850000000  0.5686840000000  0.4816230000000 1.0
C      1  0.4023780000000  0.5248350000000  0.5153640000000 1.0
C      1  0.4032870000000  0.4744290000000  0.5144720000000 1.0
C      1  0.4032720000000  0.5014830000000  0.4724170000000 1.0
C      1  0.5917930000000  0.5457820000000  0.4829790000000 1.0
C      1  0.5987810000000  0.4941900000000  0.5488890000000 1.0
C      1  0.5944500000000  0.4642920000000  0.4777830000000 1.0
C      1  0.4390430000000  0.5810010000000  0.5082780000000 1.0
C      1  0.4384530000000  0.4527010000000  0.5666000000000 1.0
C      1  0.4421340000000  0.4785960000000  0.4167960000000 1.0
C      1  0.5324090000000  0.4946930000000  0.5202740000000 1.0
C      1  0.5392350000000  0.4891160000000  0.4781410000000 1.0
C      1  0.5262800000000  0.5057090000000  0.4956760000000 1.0
C      1  0.5934210000000  0.5215590000000  0.5446950000000 1.0
C      1  0.5951940000000  0.4466550000000  0.5026630000000 1.0
C      1  0.5906460000000  0.5163110000000  0.4529440000000 1.0
C      1  0.5879880000000  0.5500600000000  0.5130930000000 1.0
C      1  0.5890760000000  0.4586530000000  0.5336270000000 1.0
C      1  0.5843970000000  0.4880550000000  0.4458260000000 1.0
C      1  0.5718010000000  0.5114240000000  0.5255650000000 1.0
C      1  0.5747200000000  0.4779220000000  0.4926230000000 1.0
C      1  0.5765710000000  0.5213170000000  0.4777930000000 1.0
C      1  0.4284530000000  0.5545800000000  0.5171550000000 1.0
C      1  0.4284340000000  0.4567410000000  0.5392790000000 1.0
C      1  0.4250930000000  0.4817180000000  0.4399860000000 1.0
C      1  0.5138080000000  0.4874820000000  0.4107250000000 1.0
C      1  0.5114200000000  0.5895920000000  0.5348010000000 1.0
C      1  0.4979920000000  0.4166970000000  0.5466540000000 1.0
C      1  0.4817560000000  0.5794500000000  0.4690950000000 1.0
C      1  0.4795340000000  0.4845050000000  0.5893400000000 1.0
C      1  0.4797910000000  0.4343340000000  0.4424410000000 1.0
C      1  0.4589030000000  0.5466850000000  0.4857780000000 1.0
C      1  0.4563180000000  0.4905350000000  0.5471510000000 1.0
C      1  0.4567120000000  0.4644550000000  0.4683610000000 1.0
C      1  0.5642330000000  0.4468120000000  0.5351570000000 1.0
C      1  0.5567250000000  0.4917030000000  0.4350990000000 1.0
C      1  0.5616190000000  0.5512960000000  0.5271930000000 1.0
C      1  0.4853960000000  0.4244440000000  0.5715740000000 1.0
C      1  0.4953420000000  0.4694460000000  0.3975070000000 1.0
C      1  0.4866650000000  0.6014670000000  0.5243400000000 1.0
C      1  0.5563020000000  0.4968090000000  0.4068680000000 1.0
C      1  0.5586130000000  0.5748460000000  0.5441540000000 1.0
C      1  0.5572800000000  0.4212350000000  0.5431130000000 1.0
C      1  0.5381310000000  0.5218170000000  0.5847410000000 1.0
C      1  0.5358910000000  0.4179960000000  0.4790230000000 1.0
C      1  0.5397320000000  0.5645550000000  0.4333500000000 1.0
C      1  0.5616970000000  0.5564540000000  0.5674270000000 1.0
C      1  0.5605160000000  0.4117060000000  0.5158680000000 1.0
C      1  0.5597280000000  0.5253230000000  0.4110880000000 1.0
C      1  0.4895840000000  0.4645030000000  0.5715640000000 1.0
C      1  0.4871120000000  0.4606290000000  0.4353700000000 1.0
C      1  0.4928390000000  0.5757300000000  0.4937340000000 1.0
C      1  0.5376050000000  0.5439170000000  0.4134930000000 1.0
C      1  0.5381080000000  0.5490490000000  0.5815980000000 1.0
C      1  0.5365940000000  0.4043830000000  0.5026070000000 1.0
C      1  0.4699240000000  0.4702120000000  0.4138770000000 1.0
C      1  0.4595510000000  0.5880770000000  0.5278410000000 1.0
C      1  0.4579560000000  0.4314780000000  0.5620750000000 1.0
C      1  0.5807870000000  0.4625020000000  0.4533670000000 1.0
C      1  0.5786880000000  0.5689790000000  0.4935830000000 1.0
C      1  0.5829230000000  0.4764060000000  0.5538750000000 1.0
C      1  0.4740750000000  0.5535060000000  0.4606490000000 1.0
C      1  0.4718000000000  0.5041440000000  0.5675010000000 1.0
C      1  0.4708130000000  0.4390160000000  0.4697560000000 1.0
C      1  0.4965360000000  0.5014530000000  0.4998850000000 1.0
C      1  0.5791950000000  0.5033780000000  0.4993160000000 1.0
END
