TITL C-2441168-9922-157 0.0403482717665582 125000 -18113.2894628555 0 0 129 (C1) n - 1
REM
REM in /home/bkarasulu/work/CARBON/AIRSS/Generating-Clusters/ReaxFF-fromJPCA2015/Units_Real/with-SteepDescent/Higher-Symm
REM
REM
REM
REM
REM
REM ./C.cell (1df0a924f5614ab8850e4351716899ee)
REM
REM compiler GCC version 9.2.1 20190827 (Red Hat 9.2.1-1)
REM options -cpp -mtune=generic -march=x86-64 -g -O0 -fpre-include=/usr/include/finclude/math-vector-fortran.h
REM seed -1955335714 932061454 981812195 -1362293277 -292109170 483612444 -266309791 -457638783 -808788012 -1079162809 1127086737 1547269121 -1457498691 723059302 799189378 -659837043 343419215 777310452 1099841139 -61619033 -888989675 -579626748 1043074847 1194687961 -793128337 -508971922 355738378 -1710188101 1375152993 -550050857 507569083 954604859 -991265789
REM
CELL 1.54180   50.00000   50.00000   50.00000   90.00000   90.00000   90.00000
LATT -1
SFAC C  
C      1  0.5610060000000  0.4410450000000  0.4525660000000 1.0
C      1  0.5598190000000  0.5554410000000  0.5462090000000 1.0
C      1  0.4405590000000  0.5537300000000  0.4564200000000 1.0
C      1  0.4418810000000  0.4445770000000  0.5458240000000 1.0
C      1  0.4649050000000  0.5132880000000  0.5328690000000 1.0
C      1  0.4652200000000  0.4890330000000  0.4650080000000 1.0
C      1  0.5368030000000  0.4906440000000  0.5306980000000 1.0
C      1  0.5380450000000  0.5085080000000  0.4707360000000 1.0
C      1  0.4272540000000  0.4372550000000  0.4983710000000 1.0
C      1  0.4254770000000  0.5616320000000  0.5043530000000 1.0
C      1  0.5713300000000  0.5559290000000  0.5039030000000 1.0
C      1  0.5705570000000  0.4401630000000  0.4994560000000 1.0
C      1  0.4764180000000  0.4718470000000  0.5590850000000 1.0
C      1  0.4717330000000  0.5393300000000  0.4333220000000 1.0
C      1  0.5265540000000  0.5410840000000  0.5655100000000 1.0
C      1  0.5278190000000  0.4575010000000  0.4357760000000 1.0
C      1  0.4851180000000  0.4441480000000  0.4271740000000 1.0
C      1  0.4812480000000  0.5564400000000  0.5699060000000 1.0
C      1  0.5169900000000  0.5556550000000  0.4324740000000 1.0
C      1  0.5157330000000  0.4464330000000  0.5609260000000 1.0
C      1  0.5049100000000  0.4518720000000  0.5325020000000 1.0
C      1  0.4950670000000  0.5486270000000  0.4778190000000 1.0
C      1  0.5046380000000  0.5500900000000  0.5187010000000 1.0
C      1  0.5007460000000  0.4536200000000  0.4818280000000 1.0
C      1  0.4807270000000  0.5457840000000  0.5028920000000 1.0
C      1  0.4733610000000  0.4571290000000  0.4891830000000 1.0
C      1  0.5165720000000  0.4513210000000  0.5063740000000 1.0
C      1  0.5196880000000  0.5480520000000  0.4939400000000 1.0
C      1  0.4782290000000  0.5025140000000  0.5957710000000 1.0
C      1  0.4783540000000  0.4963450000000  0.4057100000000 1.0
C      1  0.5202820000000  0.4965180000000  0.5948870000000 1.0
C      1  0.5198990000000  0.5022280000000  0.4037300000000 1.0
C      1  0.4725060000000  0.5962610000000  0.4747720000000 1.0
C      1  0.4727310000000  0.4031630000000  0.5248650000000 1.0
C      1  0.5266810000000  0.4020020000000  0.4735220000000 1.0
C      1  0.5280260000000  0.5963310000000  0.5258660000000 1.0
C      1  0.5290230000000  0.5849240000000  0.4768170000000 1.0
C      1  0.5295310000000  0.4139550000000  0.5236060000000 1.0
C      1  0.4718670000000  0.4155930000000  0.4745100000000 1.0
C      1  0.4721380000000  0.5853680000000  0.5247680000000 1.0
C      1  0.4220310000000  0.4680410000000  0.4541630000000 1.0
C      1  0.4187260000000  0.5347220000000  0.5475190000000 1.0
C      1  0.5816080000000  0.5330140000000  0.4538980000000 1.0
C      1  0.5815870000000  0.4653610000000  0.5450010000000 1.0
C      1  0.5118840000000  0.4118170000000  0.4502220000000 1.0
C      1  0.5135910000000  0.5873720000000  0.5496440000000 1.0
C      1  0.4869080000000  0.5879390000000  0.4508030000000 1.0
C      1  0.4880120000000  0.4085640000000  0.5496720000000 1.0
C      1  0.4856410000000  0.5962800000000  0.5014540000000 1.0
C      1  0.4854160000000  0.4044780000000  0.4979490000000 1.0
C      1  0.5148540000000  0.4033300000000  0.5005140000000 1.0
C      1  0.5149780000000  0.5964220000000  0.4995740000000 1.0
C      1  0.5423580000000  0.4803140000000  0.4799080000000 1.0
C      1  0.5471880000000  0.5154040000000  0.5190490000000 1.0
C      1  0.4570380000000  0.5101620000000  0.4818960000000 1.0
C      1  0.4471710000000  0.4942180000000  0.5191090000000 1.0
C      1  0.4595920000000  0.5765870000000  0.4570800000000 1.0
C      1  0.4616720000000  0.4219010000000  0.5441580000000 1.0
C      1  0.5403790000000  0.4202940000000  0.4550040000000 1.0
C      1  0.5408080000000  0.5774150000000  0.5438370000000 1.0
C      1  0.4574650000000  0.5407700000000  0.5765580000000 1.0
C      1  0.4601570000000  0.4594740000000  0.4218770000000 1.0
C      1  0.5410300000000  0.4608160000000  0.5745640000000 1.0
C      1  0.5393060000000  0.5387710000000  0.4241740000000 1.0
C      1  0.5633590000000  0.4915700000000  0.4368910000000 1.0
C      1  0.5630380000000  0.5065720000000  0.5621730000000 1.0
C      1  0.4354670000000  0.5050930000000  0.4377890000000 1.0
C      1  0.4358230000000  0.4946430000000  0.5646360000000 1.0
C      1  0.4131730000000  0.4875030000000  0.4890930000000 1.0
C      1  0.4201690000000  0.5058500000000  0.5121740000000 1.0
C      1  0.5887620000000  0.5085360000000  0.4876170000000 1.0
C      1  0.5864120000000  0.4900130000000  0.5113890000000 1.0
C      1  0.4553540000000  0.5119390000000  0.5805630000000 1.0
C      1  0.4549370000000  0.4887080000000  0.4215180000000 1.0
C      1  0.5439540000000  0.4892390000000  0.5784180000000 1.0
C      1  0.5382580000000  0.5076720000000  0.4266280000000 1.0
C      1  0.5171050000000  0.4980330000000  0.4525070000000 1.0
C      1  0.5121830000000  0.5038640000000  0.5434220000000 1.0
C      1  0.4881770000000  0.5025030000000  0.4552660000000 1.0
C      1  0.4852200000000  0.4995430000000  0.5490530000000 1.0
C      1  0.5041280000000  0.5452460000000  0.5838260000000 1.0
C      1  0.5081100000000  0.4561060000000  0.4171600000000 1.0
C      1  0.4943630000000  0.4575150000000  0.5764250000000 1.0
C      1  0.4943920000000  0.5449470000000  0.4171390000000 1.0
C      1  0.5881800000000  0.5364260000000  0.4926730000000 1.0
C      1  0.5873490000000  0.4630120000000  0.5003690000000 1.0
C      1  0.4124310000000  0.4606780000000  0.5008270000000 1.0
C      1  0.4173160000000  0.5358230000000  0.4986670000000 1.0
C      1  0.5818530000000  0.5041130000000  0.4553230000000 1.0
C      1  0.5809910000000  0.4940690000000  0.5418710000000 1.0
C      1  0.4167490000000  0.4946300000000  0.4598590000000 1.0
C      1  0.4175270000000  0.5062570000000  0.5444680000000 1.0
C      1  0.5636780000000  0.4493110000000  0.5618470000000 1.0
C      1  0.5593410000000  0.5515260000000  0.4390940000000 1.0
C      1  0.4371700000000  0.5501980000000  0.5611230000000 1.0
C      1  0.4478000000000  0.4428800000000  0.4407930000000 1.0
C      1  0.5483860000000  0.5640790000000  0.4861000000000 1.0
C      1  0.5491750000000  0.4359480000000  0.5173520000000 1.0
C      1  0.4521890000000  0.4372300000000  0.4835220000000 1.0
C      1  0.4521410000000  0.5647950000000  0.5148550000000 1.0
C      1  0.5188840000000  0.4687780000000  0.4613770000000 1.0
C      1  0.5138630000000  0.5330950000000  0.5397200000000 1.0
C      1  0.4855230000000  0.5313140000000  0.4576720000000 1.0
C      1  0.4807100000000  0.4629930000000  0.5323570000000 1.0
C      1  0.5539130000000  0.5396670000000  0.4652260000000 1.0
C      1  0.5533890000000  0.4587070000000  0.5351220000000 1.0
C      1  0.4466690000000  0.4614530000000  0.4602850000000 1.0
C      1  0.4462500000000  0.5413640000000  0.5372460000000 1.0
C      1  0.5638510000000  0.5385670000000  0.5247400000000 1.0
C      1  0.5677270000000  0.4585120000000  0.4772070000000 1.0
C      1  0.4222380000000  0.4458160000000  0.5239480000000 1.0
C      1  0.4376400000000  0.5329560000000  0.4779730000000 1.0
C      1  0.4428630000000  0.5336070000000  0.4349790000000 1.0
C      1  0.4451800000000  0.4675620000000  0.5625970000000 1.0
C      1  0.5566410000000  0.4631790000000  0.4337700000000 1.0
C      1  0.5553660000000  0.5345830000000  0.5661050000000 1.0
C      1  0.5145330000000  0.5784960000000  0.4523070000000 1.0
C      1  0.5160570000000  0.4164270000000  0.5491960000000 1.0
C      1  0.4844620000000  0.4228760000000  0.4492000000000 1.0
C      1  0.4860780000000  0.5773890000000  0.5491880000000 1.0
C      1  0.4654680000000  0.4731500000000  0.5114780000000 1.0
C      1  0.4784800000000  0.5153840000000  0.5028590000000 1.0
C      1  0.5275540000000  0.5195090000000  0.4970550000000 1.0
C      1  0.5227020000000  0.4809530000000  0.5055470000000 1.0
C      1  0.4962210000000  0.5199140000000  0.4030110000000 1.0
C      1  0.4967590000000  0.4786780000000  0.5950550000000 1.0
C      1  0.5024220000000  0.4789720000000  0.4027290000000 1.0
C      1  0.5022060000000  0.5197890000000  0.5984000000000 1.0
C      1  0.5047790000000  0.5029260000000  0.4999350000000 1.0
END
