TITL C-2441163-1170-847 0.113057546589604 125000 -27002.8819478486 0 0 200 (C1) n - 1
REM
REM in /home/bkarasulu/work/CARBON/AIRSS/Generating-Clusters/ReaxFF-fromJPCA2015/Units_Real/with-SteepDescent/Higher-Symm
REM
REM
REM
REM
REM
REM ./C.cell (1df0a924f5614ab8850e4351716899ee)
REM
REM compiler GCC version 9.2.1 20190827 (Red Hat 9.2.1-1)
REM options -cpp -mtune=generic -march=x86-64 -g -O0 -fpre-include=/usr/include/finclude/math-vector-fortran.h
REM seed 676192153 28352555 -1758572157 1013481685 -1764630081 1034439709 1877954236 -1831956662 -977336780 -44167852 174473412 -1875417796 1226909063 -2041879510 -863848287 -1525765534 -926108254 391792437 2062120243 -8333793 2020472700 -1227940158 1220754307 -1013165278 1733610086 1988050652 -194997705 -1294958725 -1731747942 -1475917870 873649814 -2112930004 603170912
REM
CELL 1.54180   50.00000   50.00000   50.00000   90.00000   90.00000   90.00000
LATT -1
SFAC C  
C      1  0.4412660000000  0.4845840000000  0.6169460000000 1.0
C      1  0.4391190000000  0.6007300000000  0.5440110000000 1.0
C      1  0.4367200000000  0.5754800000000  0.4145740000000 1.0
C      1  0.4378790000000  0.4435150000000  0.4028800000000 1.0
C      1  0.4322300000000  0.3866440000000  0.5324040000000 1.0
C      1  0.4380770000000  0.5156390000000  0.6151290000000 1.0
C      1  0.4325720000000  0.4006650000000  0.5506640000000 1.0
C      1  0.4375930000000  0.4251320000000  0.4187320000000 1.0
C      1  0.4407770000000  0.5547980000000  0.4038720000000 1.0
C      1  0.4382850000000  0.6130090000000  0.5239140000000 1.0
C      1  0.4762640000000  0.4820490000000  0.4092780000000 1.0
C      1  0.4736450000000  0.4009810000000  0.4787640000000 1.0
C      1  0.4752870000000  0.4568160000000  0.5856640000000 1.0
C      1  0.4666670000000  0.5674110000000  0.5548000000000 1.0
C      1  0.4785200000000  0.5822420000000  0.4553970000000 1.0
C      1  0.4694370000000  0.5168660000000  0.4093680000000 1.0
C      1  0.4773600000000  0.5878420000000  0.4849550000000 1.0
C      1  0.4667630000000  0.5364670000000  0.5807210000000 1.0
C      1  0.4603270000000  0.4414350000000  0.5656240000000 1.0
C      1  0.4760560000000  0.4126300000000  0.4518390000000 1.0
C      1  0.4295960000000  0.4835710000000  0.5903310000000 1.0
C      1  0.4373890000000  0.5756560000000  0.5571130000000 1.0
C      1  0.4244350000000  0.5741740000000  0.4365800000000 1.0
C      1  0.4246630000000  0.4631440000000  0.4092420000000 1.0
C      1  0.4384340000000  0.4044400000000  0.5098230000000 1.0
C      1  0.4391100000000  0.5279950000000  0.5880940000000 1.0
C      1  0.4341590000000  0.4258560000000  0.5647920000000 1.0
C      1  0.4254140000000  0.4291420000000  0.4396290000000 1.0
C      1  0.4419750000000  0.5267930000000  0.4003300000000 1.0
C      1  0.4288030000000  0.5980850000000  0.5049340000000 1.0
C      1  0.4976080000000  0.4489740000000  0.3987100000000 1.0
C      1  0.4864710000000  0.3950000000000  0.5263920000000 1.0
C      1  0.4974480000000  0.4833460000000  0.6098000000000 1.0
C      1  0.4985750000000  0.6062600000000  0.5423970000000 1.0
C      1  0.4987690000000  0.5822230000000  0.4193900000000 1.0
C      1  0.4961090000000  0.5600080000000  0.4022690000000 1.0
C      1  0.5027570000000  0.6221070000000  0.5192500000000 1.0
C      1  0.4952540000000  0.5109380000000  0.6122020000000 1.0
C      1  0.4853230000000  0.4085310000000  0.5523780000000 1.0
C      1  0.4977220000000  0.4240270000000  0.4111990000000 1.0
C      1  0.5633660000000  0.4204160000000  0.5802630000000 1.0
C      1  0.5666670000000  0.5534570000000  0.6006710000000 1.0
C      1  0.5623040000000  0.6129700000000  0.4836720000000 1.0
C      1  0.5600930000000  0.5138610000000  0.3917290000000 1.0
C      1  0.5625520000000  0.3880720000000  0.4541220000000 1.0
C      1  0.5620910000000  0.5712140000000  0.5802410000000 1.0
C      1  0.5671100000000  0.4343080000000  0.6034150000000 1.0
C      1  0.5624660000000  0.3891430000000  0.4809820000000 1.0
C      1  0.5626290000000  0.4872820000000  0.3894330000000 1.0
C      1  0.5650030000000  0.6149070000000  0.4569660000000 1.0
C      1  0.4819650000000  0.5812550000000  0.5334890000000 1.0
C      1  0.4816450000000  0.5545340000000  0.4475490000000 1.0
C      1  0.4838990000000  0.4631790000000  0.4296090000000 1.0
C      1  0.4675530000000  0.4053300000000  0.5064660000000 1.0
C      1  0.4874020000000  0.4839700000000  0.5807750000000 1.0
C      1  0.4789200000000  0.4355110000000  0.5442480000000 1.0
C      1  0.4782740000000  0.4332950000000  0.4314910000000 1.0
C      1  0.4795360000000  0.5435030000000  0.4209690000000 1.0
C      1  0.4846440000000  0.5705020000000  0.5068670000000 1.0
C      1  0.4801590000000  0.5121340000000  0.5874670000000 1.0
C      1  0.4050390000000  0.5223610000000  0.4378910000000 1.0
C      1  0.3944950000000  0.4463330000000  0.4789470000000 1.0
C      1  0.4008310000000  0.4454540000000  0.5305270000000 1.0
C      1  0.3973820000000  0.5162840000000  0.5675140000000 1.0
C      1  0.3945360000000  0.5607560000000  0.4985720000000 1.0
C      1  0.4004150000000  0.4927340000000  0.4407390000000 1.0
C      1  0.3958830000000  0.5464690000000  0.4713860000000 1.0
C      1  0.3996080000000  0.5526810000000  0.5266820000000 1.0
C      1  0.3962510000000  0.4881830000000  0.5675890000000 1.0
C      1  0.3971570000000  0.4316310000000  0.5044130000000 1.0
C      1  0.5601220000000  0.5174110000000  0.5890100000000 1.0
C      1  0.5706130000000  0.5893140000000  0.5148640000000 1.0
C      1  0.5644930000000  0.5399060000000  0.4222290000000 1.0
C      1  0.5697300000000  0.4368070000000  0.4392530000000 1.0
C      1  0.5717200000000  0.4261350000000  0.5404910000000 1.0
C      1  0.5613680000000  0.4874390000000  0.5935910000000 1.0
C      1  0.5701270000000  0.4170910000000  0.5108940000000 1.0
C      1  0.5682960000000  0.4602780000000  0.4196080000000 1.0
C      1  0.5678850000000  0.5651780000000  0.4394180000000 1.0
C      1  0.5705820000000  0.5768810000000  0.5414080000000 1.0
C      1  0.6038660000000  0.4375680000000  0.4819240000000 1.0
C      1  0.6064370000000  0.4703390000000  0.5611700000000 1.0
C      1  0.5954530000000  0.5639110000000  0.5524590000000 1.0
C      1  0.5948620000000  0.5675240000000  0.4540630000000 1.0
C      1  0.6099470000000  0.4839940000000  0.4379100000000 1.0
C      1  0.5997330000000  0.5605640000000  0.4818380000000 1.0
C      1  0.6035320000000  0.5356660000000  0.5558400000000 1.0
C      1  0.5985700000000  0.4453230000000  0.5483060000000 1.0
C      1  0.5956360000000  0.4334440000000  0.4539090000000 1.0
C      1  0.6073630000000  0.5134070000000  0.4365420000000 1.0
C      1  0.4889320000000  0.5728010000000  0.5733440000000 1.0
C      1  0.5019040000000  0.6010210000000  0.4551580000000 1.0
C      1  0.4988210000000  0.4896080000000  0.3932690000000 1.0
C      1  0.5014880000000  0.3953230000000  0.4775420000000 1.0
C      1  0.4996010000000  0.4421660000000  0.5909710000000 1.0
C      1  0.5029170000000  0.4177210000000  0.5748990000000 1.0
C      1  0.5033010000000  0.4041330000000  0.4527540000000 1.0
C      1  0.4956870000000  0.5181400000000  0.3929390000000 1.0
C      1  0.4997990000000  0.6057240000000  0.4834180000000 1.0
C      1  0.4894390000000  0.5520560000000  0.5916520000000 1.0
C      1  0.5508190000000  0.5829650000000  0.4592530000000 1.0
C      1  0.5486730000000  0.4835750000000  0.4153210000000 1.0
C      1  0.5468150000000  0.4144270000000  0.4882080000000 1.0
C      1  0.5514120000000  0.4599200000000  0.5869690000000 1.0
C      1  0.5408480000000  0.5594880000000  0.5649540000000 1.0
C      1  0.5488260000000  0.4200210000000  0.4577080000000 1.0
C      1  0.5461290000000  0.5182700000000  0.4176810000000 1.0
C      1  0.5496440000000  0.5860370000000  0.4893830000000 1.0
C      1  0.5375030000000  0.5313160000000  0.5729000000000 1.0
C      1  0.5498420000000  0.4362960000000  0.5592890000000 1.0
C      1  0.4098260000000  0.5265910000000  0.5214890000000 1.0
C      1  0.4148110000000  0.5250160000000  0.4780510000000 1.0
C      1  0.4212120000000  0.4790490000000  0.4562560000000 1.0
C      1  0.4247230000000  0.4723750000000  0.5005610000000 1.0
C      1  0.4205040000000  0.4855570000000  0.5435200000000 1.0
C      1  0.4099280000000  0.4713680000000  0.5229420000000 1.0
C      1  0.4094390000000  0.4700590000000  0.4792590000000 1.0
C      1  0.4299460000000  0.5237340000000  0.4543640000000 1.0
C      1  0.4266680000000  0.5252480000000  0.5010810000000 1.0
C      1  0.4200950000000  0.5139500000000  0.5435870000000 1.0
C      1  0.5538570000000  0.4479270000000  0.3965630000000 1.0
C      1  0.5633500000000  0.3910350000000  0.5198280000000 1.0
C      1  0.5478340000000  0.4907930000000  0.6185620000000 1.0
C      1  0.5537890000000  0.6003680000000  0.5517060000000 1.0
C      1  0.5537540000000  0.5781730000000  0.4137140000000 1.0
C      1  0.5523550000000  0.5535320000000  0.3988250000000 1.0
C      1  0.5561260000000  0.6126680000000  0.5247130000000 1.0
C      1  0.5486450000000  0.5201140000000  0.6164790000000 1.0
C      1  0.5605060000000  0.3967150000000  0.5473050000000 1.0
C      1  0.5523550000000  0.4238880000000  0.4118400000000 1.0
C      1  0.5835000000000  0.5116310000000  0.4570390000000 1.0
C      1  0.5724870000000  0.4686060000000  0.4772170000000 1.0
C      1  0.5768280000000  0.4664590000000  0.5236010000000 1.0
C      1  0.5892140000000  0.5151000000000  0.5389980000000 1.0
C      1  0.5845590000000  0.5376820000000  0.4953110000000 1.0
C      1  0.5875440000000  0.4851610000000  0.4596940000000 1.0
C      1  0.5694410000000  0.5277170000000  0.4747350000000 1.0
C      1  0.5737450000000  0.5300060000000  0.5197950000000 1.0
C      1  0.5917130000000  0.4870380000000  0.5395430000000 1.0
C      1  0.5837570000000  0.4539030000000  0.4977690000000 1.0
C      1  0.4501070000000  0.5134470000000  0.5449000000000 1.0
C      1  0.4524420000000  0.5331530000000  0.5009350000000 1.0
C      1  0.4567650000000  0.5115530000000  0.4546350000000 1.0
C      1  0.4643660000000  0.4669260000000  0.4766460000000 1.0
C      1  0.4655390000000  0.4711690000000  0.5245740000000 1.0
C      1  0.4509000000000  0.4852020000000  0.5448410000000 1.0
C      1  0.4512120000000  0.4659520000000  0.5011620000000 1.0
C      1  0.4498340000000  0.4831090000000  0.4572880000000 1.0
C      1  0.4653520000000  0.5276590000000  0.4773660000000 1.0
C      1  0.4652910000000  0.5290040000000  0.5263430000000 1.0
C      1  0.5244360000000  0.4536300000000  0.3898200000000 1.0
C      1  0.5145860000000  0.3912940000000  0.5214700000000 1.0
C      1  0.5229160000000  0.4754080000000  0.6183970000000 1.0
C      1  0.5244920000000  0.6017370000000  0.5567890000000 1.0
C      1  0.5269390000000  0.5880050000000  0.4208130000000 1.0
C      1  0.5228390000000  0.5488240000000  0.3920090000000 1.0
C      1  0.5298610000000  0.6199800000000  0.5112740000000 1.0
C      1  0.5196720000000  0.5270540000000  0.6178630000000 1.0
C      1  0.5310760000000  0.3945370000000  0.5450890000000 1.0
C      1  0.5255520000000  0.4151530000000  0.4172540000000 1.0
C      1  0.5244160000000  0.4790360000000  0.3995710000000 1.0
C      1  0.5211140000000  0.4018860000000  0.4964790000000 1.0
C      1  0.5248210000000  0.4553130000000  0.5989850000000 1.0
C      1  0.5168360000000  0.5756090000000  0.5635960000000 1.0
C      1  0.5259830000000  0.5868720000000  0.4486660000000 1.0
C      1  0.5193520000000  0.5258890000000  0.4073800000000 1.0
C      1  0.5228860000000  0.5963660000000  0.4959460000000 1.0
C      1  0.5160430000000  0.5409500000000  0.5935330000000 1.0
C      1  0.5250880000000  0.4202570000000  0.5567770000000 1.0
C      1  0.5245740000000  0.4173010000000  0.4445390000000 1.0
C      1  0.4927020000000  0.5276910000000  0.5234670000000 1.0
C      1  0.4899610000000  0.5349340000000  0.4708960000000 1.0
C      1  0.5010810000000  0.4791960000000  0.4549120000000 1.0
C      1  0.5055880000000  0.4607950000000  0.5027240000000 1.0
C      1  0.5051190000000  0.4832880000000  0.5499810000000 1.0
C      1  0.4920390000000  0.4610210000000  0.5294080000000 1.0
C      1  0.4918870000000  0.4660820000000  0.4784790000000 1.0
C      1  0.4984280000000  0.5104940000000  0.4559040000000 1.0
C      1  0.5019400000000  0.5443500000000  0.5016010000000 1.0
C      1  0.5058950000000  0.5117040000000  0.5406080000000 1.0
C      1  0.5480840000000  0.4693100000000  0.5261010000000 1.0
C      1  0.5334870000000  0.5145000000000  0.5440500000000 1.0
C      1  0.5310290000000  0.5403010000000  0.4999000000000 1.0
C      1  0.5265760000000  0.5122900000000  0.4590540000000 1.0
C      1  0.5454170000000  0.4704140000000  0.4777980000000 1.0
C      1  0.5462760000000  0.5300030000000  0.5216610000000 1.0
C      1  0.5344520000000  0.4834550000000  0.5470170000000 1.0
C      1  0.5333600000000  0.4640660000000  0.5024980000000 1.0
C      1  0.5300760000000  0.4837610000000  0.4569800000000 1.0
C      1  0.5419200000000  0.5302490000000  0.4755350000000 1.0
C      1  0.4099210000000  0.5700160000000  0.4599840000000 1.0
C      1  0.4095970000000  0.4880300000000  0.4132720000000 1.0
C      1  0.4162430000000  0.4136250000000  0.4919110000000 1.0
C      1  0.4117090000000  0.4657330000000  0.5769290000000 1.0
C      1  0.4140010000000  0.5585320000000  0.5524780000000 1.0
C      1  0.4131070000000  0.4273040000000  0.4652180000000 1.0
C      1  0.4160470000000  0.5169660000000  0.4100370000000 1.0
C      1  0.4126090000000  0.5812150000000  0.4891390000000 1.0
C      1  0.4144550000000  0.5383440000000  0.5739410000000 1.0
C      1  0.4117230000000  0.4424710000000  0.5578140000000 1.0
END
