TITL C-2441159-1093-333 0.101371292560597 125000 -24194.7661396673 0 0 182 (C1) n - 1
REM
REM in /home/bkarasulu/work/CARBON/AIRSS/Generating-Clusters/ReaxFF-fromJPCA2015/Units_Real/with-SteepDescent/Higher-Symm
REM
REM
REM
REM
REM
REM ./C.cell (1df0a924f5614ab8850e4351716899ee)
REM
REM compiler GCC version 9.2.1 20190827 (Red Hat 9.2.1-1)
REM options -cpp -mtune=generic -march=x86-64 -g -O0 -fpre-include=/usr/include/finclude/math-vector-fortran.h
REM seed -139494403 -1584334800 1508147901 1144924669 1459845660 2001558434 -1564466206 1927069204 -1734084113 505110050 -1569735132 -2118716750 -1796129801 667877996 594412668 -1678479245 -1758156673 -526861806 1440307691 -969478742 1175051104 -1466428708 1468742143 1604032539 -1718869999 -1107535944 -1685945944 1258295225 670585311 -2011223375 1610569640 -1745796305 -1811680579
REM
CELL 1.54180   50.00000   50.00000   50.00000   90.00000   90.00000   90.00000
LATT -1
SFAC C  
C      1  0.4427830000000  0.4552890000000  0.4178030000000 1.0
C      1  0.5616540000000  0.5528630000000  0.5737460000000 1.0
C      1  0.4335410000000  0.5834480000000  0.5312080000000 1.0
C      1  0.5662650000000  0.4197240000000  0.4647120000000 1.0
C      1  0.5639100000000  0.4836100000000  0.4783210000000 1.0
C      1  0.4388110000000  0.5163590000000  0.5251680000000 1.0
C      1  0.4615640000000  0.5888210000000  0.5238460000000 1.0
C      1  0.5419470000000  0.4067780000000  0.4711700000000 1.0
C      1  0.4496260000000  0.5487830000000  0.5528620000000 1.0
C      1  0.5490640000000  0.4566210000000  0.4494340000000 1.0
C      1  0.4349950000000  0.4648880000000  0.5203460000000 1.0
C      1  0.5524250000000  0.5467550000000  0.4829150000000 1.0
C      1  0.4052270000000  0.5103830000000  0.4457170000000 1.0
C      1  0.5908490000000  0.4837610000000  0.5568590000000 1.0
C      1  0.5943860000000  0.4412470000000  0.4911130000000 1.0
C      1  0.4080190000000  0.5596730000000  0.5054810000000 1.0
C      1  0.5072180000000  0.5168130000000  0.6099880000000 1.0
C      1  0.4820040000000  0.4803080000000  0.3877240000000 1.0
C      1  0.5513370000000  0.5733710000000  0.4402360000000 1.0
C      1  0.4513120000000  0.4226310000000  0.5605010000000 1.0
C      1  0.4240310000000  0.4663310000000  0.5640890000000 1.0
C      1  0.5863850000000  0.5325490000000  0.4452150000000 1.0
C      1  0.4130430000000  0.4811300000000  0.5343100000000 1.0
C      1  0.5976270000000  0.5149540000000  0.4667140000000 1.0
C      1  0.5277200000000  0.4573650000000  0.4931370000000 1.0
C      1  0.4786320000000  0.5418860000000  0.5129090000000 1.0
C      1  0.5096630000000  0.5248460000000  0.4881450000000 1.0
C      1  0.4868050000000  0.4732860000000  0.5236970000000 1.0
C      1  0.4685870000000  0.4623570000000  0.4058620000000 1.0
C      1  0.5062450000000  0.5440120000000  0.5980530000000 1.0
C      1  0.5201490000000  0.3932610000000  0.5241640000000 1.0
C      1  0.4805360000000  0.6071840000000  0.4755590000000 1.0
C      1  0.4430460000000  0.4774330000000  0.5838560000000 1.0
C      1  0.5649590000000  0.5152170000000  0.4323150000000 1.0
C      1  0.5951640000000  0.4622840000000  0.4502750000000 1.0
C      1  0.4076940000000  0.5355800000000  0.5478810000000 1.0
C      1  0.4425630000000  0.4081290000000  0.4819860000000 1.0
C      1  0.5558180000000  0.5947140000000  0.5147500000000 1.0
C      1  0.4615900000000  0.4998800000000  0.3902770000000 1.0
C      1  0.5339660000000  0.5064810000000  0.6063990000000 1.0
C      1  0.5583400000000  0.4848880000000  0.5189860000000 1.0
C      1  0.4385250000000  0.5168620000000  0.4831310000000 1.0
C      1  0.5641170000000  0.4847910000000  0.4329780000000 1.0
C      1  0.4402290000000  0.5033040000000  0.5714520000000 1.0
C      1  0.4676320000000  0.5140840000000  0.4918580000000 1.0
C      1  0.5291030000000  0.4838200000000  0.5082810000000 1.0
C      1  0.5309190000000  0.6050230000000  0.5043580000000 1.0
C      1  0.4668190000000  0.3958070000000  0.4915000000000 1.0
C      1  0.5931320000000  0.4651730000000  0.5310230000000 1.0
C      1  0.4042940000000  0.5326110000000  0.4669740000000 1.0
C      1  0.4988860000000  0.4864460000000  0.4588550000000 1.0
C      1  0.5069490000000  0.5076300000000  0.5444860000000 1.0
C      1  0.5316220000000  0.6038380000000  0.4746820000000 1.0
C      1  0.4671240000000  0.3951180000000  0.5223760000000 1.0
C      1  0.3937760000000  0.4622810000000  0.4865840000000 1.0
C      1  0.6061100000000  0.5381620000000  0.5161410000000 1.0
C      1  0.4633010000000  0.4498730000000  0.4598220000000 1.0
C      1  0.5413890000000  0.5532560000000  0.5364700000000 1.0
C      1  0.5930130000000  0.4850010000000  0.4733970000000 1.0
C      1  0.4096700000000  0.5150740000000  0.5265920000000 1.0
C      1  0.5058790000000  0.4591260000000  0.4763460000000 1.0
C      1  0.5053600000000  0.5377940000000  0.5116490000000 1.0
C      1  0.5448870000000  0.5064290000000  0.4729770000000 1.0
C      1  0.4597360000000  0.4991270000000  0.5358210000000 1.0
C      1  0.4554500000000  0.4758290000000  0.4692770000000 1.0
C      1  0.5447350000000  0.5259300000000  0.5280060000000 1.0
C      1  0.4680600000000  0.5250440000000  0.5970500000000 1.0
C      1  0.5306240000000  0.4767300000000  0.4005850000000 1.0
C      1  0.4454390000000  0.5228900000000  0.4552130000000 1.0
C      1  0.5509810000000  0.4784380000000  0.5460430000000 1.0
C      1  0.4741330000000  0.4204130000000  0.4304600000000 1.0
C      1  0.5221030000000  0.5793510000000  0.5652770000000 1.0
C      1  0.5393780000000  0.4395560000000  0.5864890000000 1.0
C      1  0.4585560000000  0.5611460000000  0.4213840000000 1.0
C      1  0.4445420000000  0.4075640000000  0.5353490000000 1.0
C      1  0.5557600000000  0.5924690000000  0.4637110000000 1.0
C      1  0.5035690000000  0.5642680000000  0.4399570000000 1.0
C      1  0.4980830000000  0.4371170000000  0.5645970000000 1.0
C      1  0.5588090000000  0.4539980000000  0.5702010000000 1.0
C      1  0.4389440000000  0.5484600000000  0.4392660000000 1.0
C      1  0.3925500000000  0.4722330000000  0.5157210000000 1.0
C      1  0.6115430000000  0.5266080000000  0.4884960000000 1.0
C      1  0.5591080000000  0.4046490000000  0.5141300000000 1.0
C      1  0.4417160000000  0.5949300000000  0.4828710000000 1.0
C      1  0.4880080000000  0.4072100000000  0.4756010000000 1.0
C      1  0.5049190000000  0.6004030000000  0.5182350000000 1.0
C      1  0.5537010000000  0.4565710000000  0.4786350000000 1.0
C      1  0.4406650000000  0.5443620000000  0.5242680000000 1.0
C      1  0.4928500000000  0.4311940000000  0.5187690000000 1.0
C      1  0.5034230000000  0.5710850000000  0.4810240000000 1.0
C      1  0.5195420000000  0.5620610000000  0.5192080000000 1.0
C      1  0.4837100000000  0.4389710000000  0.4776240000000 1.0
C      1  0.4697070000000  0.5088300000000  0.5718720000000 1.0
C      1  0.5300780000000  0.5020950000000  0.4183890000000 1.0
C      1  0.4765430000000  0.5412500000000  0.5415390000000 1.0
C      1  0.5194800000000  0.4497560000000  0.4551630000000 1.0
C      1  0.5039180000000  0.5942690000000  0.5475050000000 1.0
C      1  0.4939810000000  0.4070710000000  0.4476010000000 1.0
C      1  0.5211950000000  0.4389940000000  0.5146280000000 1.0
C      1  0.4772480000000  0.5654110000000  0.4938080000000 1.0
C      1  0.6051730000000  0.5081620000000  0.5108080000000 1.0
C      1  0.3961880000000  0.4905010000000  0.4936030000000 1.0
C      1  0.5436870000000  0.5135350000000  0.5800990000000 1.0
C      1  0.4677980000000  0.5002870000000  0.4205500000000 1.0
C      1  0.4879750000000  0.5217820000000  0.4256690000000 1.0
C      1  0.5138170000000  0.4763960000000  0.5785040000000 1.0
C      1  0.4143000000000  0.4430250000000  0.4801720000000 1.0
C      1  0.5850760000000  0.5570610000000  0.5203100000000 1.0
C      1  0.5433170000000  0.5266830000000  0.4494510000000 1.0
C      1  0.4634170000000  0.4677310000000  0.5402780000000 1.0
C      1  0.4458540000000  0.4284590000000  0.4305970000000 1.0
C      1  0.5517430000000  0.5776140000000  0.5676200000000 1.0
C      1  0.5288330000000  0.5636590000000  0.4913130000000 1.0
C      1  0.4705480000000  0.4430690000000  0.5037560000000 1.0
C      1  0.5235570000000  0.4161200000000  0.4488800000000 1.0
C      1  0.4765250000000  0.5864730000000  0.5512960000000 1.0
C      1  0.4592130000000  0.5935580000000  0.4609420000000 1.0
C      1  0.5423810000000  0.4060230000000  0.5385570000000 1.0
C      1  0.4873530000000  0.5610100000000  0.4143690000000 1.0
C      1  0.5100050000000  0.4369690000000  0.5915310000000 1.0
C      1  0.5728760000000  0.4445720000000  0.5327870000000 1.0
C      1  0.4181800000000  0.5569030000000  0.4588420000000 1.0
C      1  0.5366870000000  0.3946250000000  0.4988600000000 1.0
C      1  0.4787330000000  0.6059850000000  0.5048690000000 1.0
C      1  0.5850450000000  0.5116920000000  0.5524360000000 1.0
C      1  0.4126270000000  0.4838320000000  0.4549800000000 1.0
C      1  0.5445740000000  0.4866920000000  0.5895570000000 1.0
C      1  0.4442400000000  0.5124030000000  0.4081930000000 1.0
C      1  0.5629720000000  0.5742330000000  0.5363300000000 1.0
C      1  0.4380350000000  0.4300070000000  0.4607790000000 1.0
C      1  0.4043890000000  0.5322110000000  0.4966860000000 1.0
C      1  0.6004210000000  0.4677170000000  0.5023070000000 1.0
C      1  0.5739560000000  0.4763280000000  0.5799580000000 1.0
C      1  0.4187380000000  0.5041840000000  0.4194210000000 1.0
C      1  0.5899810000000  0.4350000000000  0.4622060000000 1.0
C      1  0.4106500000000  0.5651180000000  0.5353720000000 1.0
C      1  0.4702530000000  0.4769290000000  0.5998220000000 1.0
C      1  0.5173920000000  0.5164540000000  0.3950990000000 1.0
C      1  0.4674420000000  0.5677080000000  0.5707600000000 1.0
C      1  0.5442290000000  0.4323870000000  0.4308630000000 1.0
C      1  0.4934720000000  0.4047600000000  0.5307100000000 1.0
C      1  0.5057600000000  0.5941720000000  0.4625380000000 1.0
C      1  0.5347580000000  0.4479350000000  0.4082390000000 1.0
C      1  0.4787900000000  0.5525710000000  0.5929750000000 1.0
C      1  0.5306560000000  0.5516740000000  0.4395470000000 1.0
C      1  0.4708250000000  0.4451710000000  0.5602050000000 1.0
C      1  0.5039790000000  0.4658050000000  0.4377130000000 1.0
C      1  0.5005410000000  0.5344030000000  0.5528630000000 1.0
C      1  0.4859630000000  0.5261920000000  0.4724810000000 1.0
C      1  0.5122260000000  0.4680180000000  0.5277890000000 1.0
C      1  0.4216630000000  0.5751180000000  0.4822010000000 1.0
C      1  0.5700850000000  0.4324480000000  0.5065930000000 1.0
C      1  0.4212590000000  0.4944430000000  0.4809770000000 1.0
C      1  0.5795250000000  0.5050360000000  0.5243170000000 1.0
C      1  0.4550530000000  0.4669930000000  0.4979070000000 1.0
C      1  0.5507760000000  0.5240420000000  0.5005650000000 1.0
C      1  0.5099940000000  0.4897420000000  0.3845290000000 1.0
C      1  0.4806820000000  0.5026920000000  0.6107010000000 1.0
C      1  0.4964410000000  0.5359980000000  0.4013400000000 1.0
C      1  0.4957980000000  0.4628470000000  0.5984560000000 1.0
C      1  0.4641400000000  0.5645000000000  0.4678960000000 1.0
C      1  0.5401730000000  0.4359720000000  0.5383190000000 1.0
C      1  0.5155130000000  0.5515290000000  0.5713440000000 1.0
C      1  0.4812740000000  0.4501530000000  0.4294560000000 1.0
C      1  0.4207290000000  0.4386400000000  0.5077210000000 1.0
C      1  0.5788000000000  0.5606020000000  0.4926230000000 1.0
C      1  0.5859550000000  0.4694270000000  0.4249880000000 1.0
C      1  0.4277180000000  0.5294140000000  0.5667080000000 1.0
C      1  0.4306680000000  0.4116050000000  0.5090500000000 1.0
C      1  0.5693520000000  0.5881990000000  0.4897690000000 1.0
C      1  0.5725710000000  0.5572340000000  0.4453410000000 1.0
C      1  0.4298170000000  0.4393330000000  0.5599970000000 1.0
C      1  0.4563600000000  0.4979500000000  0.4503720000000 1.0
C      1  0.5364620000000  0.5043290000000  0.5487100000000 1.0
C      1  0.5086750000000  0.5058960000000  0.4382720000000 1.0
C      1  0.4941210000000  0.4942540000000  0.5659660000000 1.0
C      1  0.5187630000000  0.4539840000000  0.5524130000000 1.0
C      1  0.4817190000000  0.5469010000000  0.4527120000000 1.0
C      1  0.5708190000000  0.5271820000000  0.5742530000000 1.0
C      1  0.4243990000000  0.4768330000000  0.4282090000000 1.0
C      1  0.5198060000000  0.4991560000000  0.4845710000000 1.0
C      1  0.4807150000000  0.5000740000000  0.5167940000000 1.0
END
