TITL C-2441161-5029-1 0.000329091512051986 125000 -1617.59774654096 0 0 13 (C3) n - 1
REM
REM in /home/bkarasulu/work/CARBON/AIRSS/Generating-Clusters/ReaxFF-fromJPCA2015/Units_Real/with-SteepDescent/Higher-Symm
REM
REM
REM
REM
REM
REM ./C.cell (1df0a924f5614ab8850e4351716899ee)
REM
REM compiler GCC version 9.2.1 20190827 (Red Hat 9.2.1-1)
REM options -cpp -mtune=generic -march=x86-64 -g -O0 -fpre-include=/usr/include/finclude/math-vector-fortran.h
REM seed -294069790 -466448684 975026400 756586517 1068959629 815957823 1263897303 -1997322326 89848141 384763097 -245408275 1549291672 1950851850 806006858 1920977021 -1413553773 1603959025 -1251630668 1803399956 -948705646 -1541929109 668452809 149323063 864386571 -1022557426 984749511 -877934844 -1664355697 415501221 840733234 -1653739645 1035349528 1643611708
REM
CELL 1.54180   50.00000   50.00000   50.00000   90.00000   90.00000   90.00000
LATT -1
SFAC C  
C      1  0.4568850000000  0.4803740000000  0.4864360000000 1.0
C      1  0.5057570000000  0.4803740000000  0.5425930000000 1.0
C      1  0.5299540000000  0.4803740000000  0.4721900000000 1.0
C      1  0.4954740000000  0.5083540000000  0.5543220000000 1.0
C      1  0.5452540000000  0.5083540000000  0.4752300000000 1.0
C      1  0.4518680000000  0.5083540000000  0.4716660000000 1.0
C      1  0.5216830000000  0.5183710000000  0.4878090000000 1.0
C      1  0.4745470000000  0.5183710000000  0.4857890000000 1.0
C      1  0.4963650000000  0.5183710000000  0.5276200000000 1.0
C      1  0.5185760000000  0.4595780000000  0.4699240000000 1.0
C      1  0.4606110000000  0.4595770000000  0.4974220000000 1.0
C      1  0.5134080000000  0.4595770000000  0.5338720000000 1.0
C      1  0.4975320000000  0.5275150000000  0.5004060000000 1.0
END
