TITL C-2441158-471-197 0.0155966489377705 125000 -13627.7728256194 0 0 95 (C1) n - 1
REM
REM in /home/bkarasulu/work/CARBON/AIRSS/Generating-Clusters/ReaxFF-fromJPCA2015/Units_Real/with-SteepDescent/Higher-Symm
REM
REM
REM
REM
REM
REM ./C.cell (1df0a924f5614ab8850e4351716899ee)
REM
REM compiler GCC version 9.2.1 20190827 (Red Hat 9.2.1-1)
REM options -cpp -mtune=generic -march=x86-64 -g -O0 -fpre-include=/usr/include/finclude/math-vector-fortran.h
REM seed 912550483 289258092 -677349724 -1503148266 1455042039 -1118492657 -1328204439 -1323033468 18112844 211187874 1625245952 -106352348 -1839373074 -421176261 -1728414018 2015509787 -799704667 1035124555 -1926326985 -1480940346 806845435 1846359515 -123031689 1627963777 1348637301 797983300 -2143167374 287341309 415697486 -1558407969 2057002986 1659759836 1052047042
REM
CELL 1.54180   50.00000   50.00000   50.00000   90.00000   90.00000   90.00000
LATT -1
SFAC C  
C      1  0.5638330000000  0.5376580000000  0.5580130000000 1.0
C      1  0.5564050000000  0.4516100000000  0.5615970000000 1.0
C      1  0.4706820000000  0.4352600000000  0.5609300000000 1.0
C      1  0.4251550000000  0.5040200000000  0.5614260000000 1.0
C      1  0.4810370000000  0.5693990000000  0.5611270000000 1.0
C      1  0.5659930000000  0.5365650000000  0.4397360000000 1.0
C      1  0.5537610000000  0.4495960000000  0.4408190000000 1.0
C      1  0.4676140000000  0.4328610000000  0.4431060000000 1.0
C      1  0.4245400000000  0.5069400000000  0.4400940000000 1.0
C      1  0.4833570000000  0.5719550000000  0.4428000000000 1.0
C      1  0.5111580000000  0.5780370000000  0.4482840000000 1.0
C      1  0.5762300000000  0.5101920000000  0.4448110000000 1.0
C      1  0.5359530000000  0.4299560000000  0.4451290000000 1.0
C      1  0.4419530000000  0.4485110000000  0.4434030000000 1.0
C      1  0.4308320000000  0.5340800000000  0.4485210000000 1.0
C      1  0.5091410000000  0.5753600000000  0.5596480000000 1.0
C      1  0.5745150000000  0.5107400000000  0.5586890000000 1.0
C      1  0.5369520000000  0.4321340000000  0.5546590000000 1.0
C      1  0.4455730000000  0.4480650000000  0.5644880000000 1.0
C      1  0.4262290000000  0.5336680000000  0.5574800000000 1.0
C      1  0.5336860000000  0.4307080000000  0.5241330000000 1.0
C      1  0.4307390000000  0.4583350000000  0.5413610000000 1.0
C      1  0.4232510000000  0.5444800000000  0.5316530000000 1.0
C      1  0.5141110000000  0.5785770000000  0.5311110000000 1.0
C      1  0.5803940000000  0.4889670000000  0.5350420000000 1.0
C      1  0.5320360000000  0.4213300000000  0.4715610000000 1.0
C      1  0.4235410000000  0.4601300000000  0.4638310000000 1.0
C      1  0.4333840000000  0.5336060000000  0.4798670000000 1.0
C      1  0.5128690000000  0.5846950000000  0.4772510000000 1.0
C      1  0.5770150000000  0.5071810000000  0.4803990000000 1.0
C      1  0.4606690000000  0.4633890000000  0.4814700000000 1.0
C      1  0.4636670000000  0.5395090000000  0.4729310000000 1.0
C      1  0.5304640000000  0.5470010000000  0.4748610000000 1.0
C      1  0.5535260000000  0.4914590000000  0.4707150000000 1.0
C      1  0.5089080000000  0.4374950000000  0.4789420000000 1.0
C      1  0.4388500000000  0.4464040000000  0.5161740000000 1.0
C      1  0.4617290000000  0.5478730000000  0.5214640000000 1.0
C      1  0.5281450000000  0.5554340000000  0.5208780000000 1.0
C      1  0.5605660000000  0.5056090000000  0.5189970000000 1.0
C      1  0.5085510000000  0.4486230000000  0.5309330000000 1.0
C      1  0.5137850000000  0.4791960000000  0.5690140000000 1.0
C      1  0.4852530000000  0.4809130000000  0.5690500000000 1.0
C      1  0.4761790000000  0.5082210000000  0.5675630000000 1.0
C      1  0.5001270000000  0.5240570000000  0.5688050000000 1.0
C      1  0.5226650000000  0.5063060000000  0.5698320000000 1.0
C      1  0.5130740000000  0.4786460000000  0.4333230000000 1.0
C      1  0.4842420000000  0.4816710000000  0.4336870000000 1.0
C      1  0.4773770000000  0.5098600000000  0.4336430000000 1.0
C      1  0.5024920000000  0.5249800000000  0.4332890000000 1.0
C      1  0.5240810000000  0.5054380000000  0.4319590000000 1.0
C      1  0.4637010000000  0.4319900000000  0.5153330000000 1.0
C      1  0.4370200000000  0.4971270000000  0.5132400000000 1.0
C      1  0.4881340000000  0.5826650000000  0.5180130000000 1.0
C      1  0.5671720000000  0.5339990000000  0.5141970000000 1.0
C      1  0.5612670000000  0.4463980000000  0.5164530000000 1.0
C      1  0.4681790000000  0.4356660000000  0.4871350000000 1.0
C      1  0.4251380000000  0.5054170000000  0.4875490000000 1.0
C      1  0.4860760000000  0.5823450000000  0.4889310000000 1.0
C      1  0.5719620000000  0.5352790000000  0.4865410000000 1.0
C      1  0.5628460000000  0.4540590000000  0.4907280000000 1.0
C      1  0.5271370000000  0.4995060000000  0.5177850000000 1.0
C      1  0.5119290000000  0.4739150000000  0.5169570000000 1.0
C      1  0.4662860000000  0.4976120000000  0.5128000000000 1.0
C      1  0.4804200000000  0.5245180000000  0.5154600000000 1.0
C      1  0.5123860000000  0.5252470000000  0.5157400000000 1.0
C      1  0.5271610000000  0.4951490000000  0.4832290000000 1.0
C      1  0.5069810000000  0.4722080000000  0.4879270000000 1.0
C      1  0.4786110000000  0.4848340000000  0.4892650000000 1.0
C      1  0.4839520000000  0.5220660000000  0.4843850000000 1.0
C      1  0.5145240000000  0.5235010000000  0.4840750000000 1.0
C      1  0.5557440000000  0.5510750000000  0.5336670000000 1.0
C      1  0.5696870000000  0.4618940000000  0.5393660000000 1.0
C      1  0.4834370000000  0.4339620000000  0.5357940000000 1.0
C      1  0.4243760000000  0.4864150000000  0.5380940000000 1.0
C      1  0.4701060000000  0.5700540000000  0.5358960000000 1.0
C      1  0.5578600000000  0.5487350000000  0.4653340000000 1.0
C      1  0.5639970000000  0.4638640000000  0.4651060000000 1.0
C      1  0.4838170000000  0.4252040000000  0.4657060000000 1.0
C      1  0.4203020000000  0.4898240000000  0.4637780000000 1.0
C      1  0.4701050000000  0.5677820000000  0.4690310000000 1.0
C      1  0.4487410000000  0.5177150000000  0.5703670000000 1.0
C      1  0.4993310000000  0.5520740000000  0.5729960000000 1.0
C      1  0.5507140000000  0.5148080000000  0.5734440000000 1.0
C      1  0.5305180000000  0.4555350000000  0.5706030000000 1.0
C      1  0.4696320000000  0.4583980000000  0.5753610000000 1.0
C      1  0.4496390000000  0.5199230000000  0.4311100000000 1.0
C      1  0.5041940000000  0.5544330000000  0.4318120000000 1.0
C      1  0.5528060000000  0.5122580000000  0.4281260000000 1.0
C      1  0.5280120000000  0.4535500000000  0.4305660000000 1.0
C      1  0.4653580000000  0.4591920000000  0.4298410000000 1.0
C      1  0.4339470000000  0.4606830000000  0.4913460000000 1.0
C      1  0.4358720000000  0.5498560000000  0.5080400000000 1.0
C      1  0.5817440000000  0.4930740000000  0.5053740000000 1.0
C      1  0.5228340000000  0.4213040000000  0.4981120000000 1.0
C      1  0.5300600000000  0.5681880000000  0.4942840000000 1.0
END
