TITL C-2441156-4686-1272 -7.92808242564377e-06 125000 -10238.3167332986 0 0 64 (C1) n - 1
REM
REM in /home/bkarasulu/work/CARBON/AIRSS/Generating-Clusters/ReaxFF-fromJPCA2015/Units_Real/with-SteepDescent/Higher-Symm
REM
REM
REM
REM
REM
REM ./C.cell (1df0a924f5614ab8850e4351716899ee)
REM
REM compiler GCC version 9.2.1 20190827 (Red Hat 9.2.1-1)
REM options -cpp -mtune=generic -march=x86-64 -g -O0 -fpre-include=/usr/include/finclude/math-vector-fortran.h
REM seed 212280549 1514286106 -97540248 1211628071 -1534055105 -1031302758 -938635659 694107346 683919559 -1009558051 -1372211299 -117271786 -203447680 112876742 1305921038 -1198114548 1287771262 1467064774 186235278 1867317561 -597133553 340177350 -1705279485 -1412835971 939316739 -279674622 1021773477 505594810 1672079907 -460213612 -775316216 1373777077 1672365665
REM
CELL 1.54180   50.00000   50.00000   50.00000   90.00000   90.00000   90.00000
LATT -1
SFAC C  
C      1  0.5690240000000  0.5076740000000  0.5346200000000 1.0
C      1  0.5516420000000  0.5069080000000  0.4460710000000 1.0
C      1  0.4642490000000  0.5081980000000  0.4301650000000 1.0
C      1  0.4282600000000  0.5096930000000  0.5115810000000 1.0
C      1  0.4901170000000  0.5072400000000  0.5770840000000 1.0
C      1  0.5650810000000  0.4933380000000  0.4670990000000 1.0
C      1  0.5553810000000  0.4950590000000  0.5564910000000 1.0
C      1  0.4667510000000  0.4944850000000  0.5670430000000 1.0
C      1  0.4255420000000  0.4962620000000  0.4861970000000 1.0
C      1  0.4883370000000  0.4943160000000  0.4221790000000 1.0
C      1  0.5174590000000  0.5560030000000  0.4880270000000 1.0
C      1  0.4954690000000  0.5613830000000  0.4701520000000 1.0
C      1  0.4706310000000  0.5683640000000  0.4851610000000 1.0
C      1  0.4929790000000  0.5630640000000  0.5319020000000 1.0
C      1  0.5114570000000  0.5430430000000  0.5146810000000 1.0
C      1  0.5289700000000  0.4359530000000  0.5243400000000 1.0
C      1  0.4992540000000  0.4401560000000  0.5243030000000 1.0
C      1  0.4831890000000  0.4613300000000  0.5019050000000 1.0
C      1  0.4886100000000  0.4481430000000  0.4756830000000 1.0
C      1  0.5154300000000  0.4382180000000  0.4777180000000 1.0
C      1  0.5555290000000  0.4681630000000  0.4774600000000 1.0
C      1  0.4946590000000  0.4688910000000  0.4342290000000 1.0
C      1  0.4386980000000  0.4705660000000  0.4832370000000 1.0
C      1  0.4693060000000  0.4693780000000  0.5526650000000 1.0
C      1  0.5437270000000  0.4693270000000  0.5517110000000 1.0
C      1  0.5582520000000  0.5325600000000  0.5241220000000 1.0
C      1  0.4960040000000  0.5334650000000  0.5674450000000 1.0
C      1  0.4421240000000  0.5349300000000  0.5135880000000 1.0
C      1  0.4662740000000  0.5337540000000  0.4433940000000 1.0
C      1  0.5394620000000  0.5326400000000  0.4512480000000 1.0
C      1  0.5138700000000  0.4928040000000  0.5780580000000 1.0
C      1  0.5754930000000  0.4924910000000  0.5114040000000 1.0
C      1  0.5337050000000  0.4922540000000  0.4302650000000 1.0
C      1  0.4436590000000  0.4938860000000  0.4436570000000 1.0
C      1  0.4336790000000  0.4944950000000  0.5346400000000 1.0
C      1  0.5129690000000  0.5088980000000  0.4215490000000 1.0
C      1  0.5739020000000  0.5086090000000  0.4887900000000 1.0
C      1  0.5360690000000  0.5096990000000  0.5721380000000 1.0
C      1  0.4467950000000  0.5102500000000  0.5533470000000 1.0
C      1  0.4309540000000  0.5103630000000  0.4621040000000 1.0
C      1  0.5150480000000  0.5339050000000  0.4356700000000 1.0
C      1  0.4453320000000  0.5349140000000  0.4635610000000 1.0
C      1  0.4531310000000  0.5352920000000  0.5406190000000 1.0
C      1  0.5245630000000  0.5341340000000  0.5614980000000 1.0
C      1  0.5607620000000  0.5330490000000  0.4951340000000 1.0
C      1  0.5169590000000  0.4685110000000  0.5631860000000 1.0
C      1  0.4477750000000  0.4697630000000  0.5328490000000 1.0
C      1  0.4503190000000  0.4691990000000  0.4565150000000 1.0
C      1  0.5229800000000  0.4678570000000  0.4402590000000 1.0
C      1  0.5623880000000  0.4676460000000  0.5056790000000 1.0
C      1  0.4535650000000  0.4611650000000  0.5060480000000 1.0
C      1  0.4948120000000  0.4569740000000  0.5492810000000 1.0
C      1  0.5485660000000  0.4549060000000  0.5275710000000 1.0
C      1  0.5339420000000  0.4550440000000  0.4638280000000 1.0
C      1  0.4763080000000  0.4579310000000  0.4523720000000 1.0
C      1  0.4493330000000  0.5481620000000  0.4888350000000 1.0
C      1  0.4916870000000  0.5461230000000  0.4467450000000 1.0
C      1  0.5410070000000  0.5441400000000  0.4773590000000 1.0
C      1  0.5337600000000  0.5416620000000  0.5353670000000 1.0
C      1  0.4770340000000  0.5480380000000  0.5510610000000 1.0
C      1  0.5010000000000  0.5122060000000  0.5091540000000 1.0
C      1  0.4940480000000  0.4916560000000  0.5054500000000 1.0
C      1  0.4861200000000  0.5750040000000  0.5078680000000 1.0
C      1  0.5173170000000  0.4283430000000  0.5033920000000 1.0
END
