TITL C-2441154-10-581 0.0345110691377771 125000 -20128.603805561 0 0 141 (C1) n - 1
REM
REM in /home/bkarasulu/work/CARBON/AIRSS/Generating-Clusters/ReaxFF-fromJPCA2015/Units_Real/with-SteepDescent/Higher-Symm
REM
REM
REM
REM
REM
REM ./C.cell (1df0a924f5614ab8850e4351716899ee)
REM
REM compiler GCC version 9.2.1 20190827 (Red Hat 9.2.1-1)
REM options -cpp -mtune=generic -march=x86-64 -g -O0 -fpre-include=/usr/include/finclude/math-vector-fortran.h
REM seed -1466246012 -1893207424 1960637174 -328623924 1781615590 -565572704 -1992000462 559003000 -315881639 107449960 -463930576 306541054 -637120267 -1064905906 347668537 -180345370 -1164416397 -1107974869 735008004 -393699370 -969104496 1905313161 36536335 446216644 -624940169 628169757 -1531669649 891438665 -311398894 446124608 -761763165 -517753620 297543071
REM
CELL 1.54180   50.00000   50.00000   50.00000   90.00000   90.00000   90.00000
LATT -1
SFAC C  
C      1  0.5138310000000  0.4654000000000  0.5022070000000 1.0
C      1  0.5126930000000  0.4435160000000  0.5217090000000 1.0
C      1  0.5072380000000  0.4843420000000  0.5529790000000 1.0
C      1  0.5159130000000  0.5112670000000  0.5548710000000 1.0
C      1  0.5083450000000  0.5336030000000  0.5361980000000 1.0
C      1  0.5208270000000  0.5397950000000  0.5101060000000 1.0
C      1  0.5084650000000  0.5483950000000  0.4847850000000 1.0
C      1  0.5189110000000  0.5324690000000  0.4596390000000 1.0
C      1  0.5095520000000  0.5050840000000  0.4592480000000 1.0
C      1  0.5186290000000  0.4770210000000  0.4535220000000 1.0
C      1  0.5173670000000  0.4574240000000  0.4739690000000 1.0
C      1  0.5648210000000  0.5680040000000  0.4898540000000 1.0
C      1  0.5703180000000  0.5314970000000  0.4462050000000 1.0
C      1  0.5642910000000  0.5028020000000  0.4463100000000 1.0
C      1  0.5775840000000  0.4596300000000  0.4466620000000 1.0
C      1  0.5673530000000  0.4599840000000  0.4727450000000 1.0
C      1  0.5659520000000  0.4396610000000  0.4960400000000 1.0
C      1  0.5763200000000  0.4428800000000  0.5395380000000 1.0
C      1  0.5595350000000  0.4743610000000  0.5646970000000 1.0
C      1  0.5639290000000  0.5216260000000  0.5591720000000 1.0
C      1  0.5670860000000  0.5351010000000  0.5341490000000 1.0
C      1  0.5843410000000  0.5687300000000  0.5079950000000 1.0
C      1  0.4718990000000  0.4936740000000  0.5948360000000 1.0
C      1  0.4726600000000  0.5445830000000  0.5835460000000 1.0
C      1  0.4742680000000  0.5820240000000  0.5454290000000 1.0
C      1  0.4745940000000  0.5932160000000  0.4954860000000 1.0
C      1  0.4736210000000  0.5759220000000  0.4442640000000 1.0
C      1  0.4741960000000  0.5333850000000  0.4127670000000 1.0
C      1  0.4714620000000  0.4798410000000  0.4168200000000 1.0
C      1  0.4733230000000  0.4321030000000  0.4352200000000 1.0
C      1  0.4746930000000  0.4177570000000  0.4861420000000 1.0
C      1  0.4736560000000  0.4115900000000  0.5353980000000 1.0
C      1  0.4713650000000  0.4430820000000  0.5780360000000 1.0
C      1  0.4325590000000  0.4794450000000  0.4516370000000 1.0
C      1  0.4319330000000  0.4548830000000  0.4761010000000 1.0
C      1  0.4256520000000  0.4473490000000  0.5038260000000 1.0
C      1  0.4359610000000  0.4590010000000  0.5294650000000 1.0
C      1  0.4276280000000  0.4805540000000  0.5479780000000 1.0
C      1  0.4368190000000  0.5090310000000  0.5475540000000 1.0
C      1  0.4274890000000  0.5360240000000  0.5372850000000 1.0
C      1  0.4361450000000  0.5484530000000  0.5116400000000 1.0
C      1  0.4269170000000  0.5498130000000  0.4832460000000 1.0
C      1  0.4362020000000  0.5312730000000  0.4617510000000 1.0
C      1  0.4260810000000  0.5062580000000  0.4476030000000 1.0
C      1  0.5341910000000  0.4747630000000  0.5982530000000 1.0
C      1  0.5361820000000  0.5293350000000  0.5954700000000 1.0
C      1  0.5384990000000  0.5692800000000  0.5611710000000 1.0
C      1  0.5360630000000  0.5951970000000  0.5103850000000 1.0
C      1  0.5367490000000  0.5890400000000  0.4582540000000 1.0
C      1  0.5394610000000  0.5541000000000  0.4155900000000 1.0
C      1  0.5396760000000  0.4988030000000  0.3980740000000 1.0
C      1  0.5382360000000  0.4458030000000  0.4196360000000 1.0
C      1  0.5396460000000  0.4128430000000  0.4650260000000 1.0
C      1  0.5406210000000  0.4105640000000  0.5178140000000 1.0
C      1  0.5369930000000  0.4344220000000  0.5632010000000 1.0
C      1  0.4799310000000  0.5439620000000  0.4872570000000 1.0
C      1  0.4668880000000  0.5297710000000  0.4679890000000 1.0
C      1  0.4804430000000  0.5070610000000  0.4587750000000 1.0
C      1  0.4657420000000  0.4818080000000  0.4521040000000 1.0
C      1  0.4626250000000  0.4622600000000  0.4737400000000 1.0
C      1  0.4760170000000  0.4509720000000  0.4966090000000 1.0
C      1  0.4684110000000  0.4617990000000  0.5226080000000 1.0
C      1  0.4807820000000  0.4820770000000  0.5398280000000 1.0
C      1  0.4661830000000  0.5067490000000  0.5417700000000 1.0
C      1  0.4791500000000  0.5295220000000  0.5320510000000 1.0
C      1  0.4668930000000  0.5439060000000  0.5110760000000 1.0
C      1  0.5854300000000  0.5479590000000  0.4616880000000 1.0
C      1  0.5863040000000  0.5112920000000  0.4324150000000 1.0
C      1  0.5803820000000  0.4835990000000  0.4328920000000 1.0
C      1  0.5936110000000  0.4503160000000  0.4662170000000 1.0
C      1  0.5947470000000  0.4337270000000  0.4888580000000 1.0
C      1  0.5892100000000  0.4440960000000  0.5148140000000 1.0
C      1  0.5799920000000  0.4705800000000  0.5471880000000 1.0
C      1  0.5778650000000  0.4945560000000  0.5638470000000 1.0
C      1  0.5909430000000  0.5298370000000  0.5471010000000 1.0
C      1  0.5866420000000  0.5540860000000  0.5311920000000 1.0
C      1  0.5925800000000  0.5646840000000  0.4805110000000 1.0
C      1  0.5124330000000  0.5021460000000  0.4027320000000 1.0
C      1  0.5131300000000  0.4610440000000  0.4288260000000 1.0
C      1  0.5139150000000  0.4289350000000  0.4645020000000 1.0
C      1  0.5137260000000  0.4174870000000  0.5136300000000 1.0
C      1  0.5109150000000  0.4395350000000  0.5505310000000 1.0
C      1  0.5105240000000  0.4711570000000  0.5793690000000 1.0
C      1  0.5114970000000  0.5194690000000  0.5810990000000 1.0
C      1  0.5124750000000  0.5568440000000  0.5601290000000 1.0
C      1  0.5171660000000  0.5783090000000  0.5197650000000 1.0
C      1  0.5128110000000  0.5790750000000  0.4718870000000 1.0
C      1  0.5143300000000  0.5466770000000  0.4347210000000 1.0
C      1  0.5517590000000  0.4129740000000  0.4916910000000 1.0
C      1  0.5526970000000  0.4253170000000  0.5408760000000 1.0
C      1  0.5485760000000  0.4544360000000  0.5817880000000 1.0
C      1  0.5408760000000  0.5019630000000  0.6019740000000 1.0
C      1  0.5496400000000  0.5459930000000  0.5755320000000 1.0
C      1  0.5405050000000  0.5844100000000  0.5359120000000 1.0
C      1  0.5495810000000  0.5910330000000  0.4855750000000 1.0
C      1  0.5441770000000  0.5740270000000  0.4351480000000 1.0
C      1  0.5458010000000  0.5271520000000  0.4063680000000 1.0
C      1  0.5471800000000  0.4701250000000  0.4063740000000 1.0
C      1  0.5480010000000  0.4250050000000  0.4394950000000 1.0
C      1  0.4318750000000  0.4714060000000  0.5741310000000 1.0
C      1  0.4340290000000  0.5163620000000  0.5788600000000 1.0
C      1  0.4327880000000  0.5555230000000  0.5567460000000 1.0
C      1  0.4346480000000  0.5796270000000  0.5187730000000 1.0
C      1  0.4332460000000  0.5754760000000  0.4738210000000 1.0
C      1  0.4351590000000  0.5496680000000  0.4362440000000 1.0
C      1  0.4321690000000  0.5073820000000  0.4199710000000 1.0
C      1  0.4318980000000  0.4616040000000  0.4287570000000 1.0
C      1  0.4333620000000  0.4279600000000  0.4608040000000 1.0
C      1  0.4322400000000  0.4196190000000  0.5060520000000 1.0
C      1  0.4341000000000  0.4345530000000  0.5482030000000 1.0
C      1  0.4422760000000  0.4814510000000  0.4109410000000 1.0
C      1  0.4437780000000  0.4354320000000  0.4349520000000 1.0
C      1  0.4451390000000  0.4116470000000  0.4812700000000 1.0
C      1  0.4445710000000  0.4132100000000  0.5324940000000 1.0
C      1  0.4423990000000  0.4438770000000  0.5740480000000 1.0
C      1  0.4428110000000  0.4927450000000  0.5919980000000 1.0
C      1  0.4435570000000  0.5431380000000  0.5815610000000 1.0
C      1  0.4447770000000  0.5803910000000  0.5453290000000 1.0
C      1  0.4451630000000  0.5921640000000  0.4953680000000 1.0
C      1  0.4445240000000  0.5746810000000  0.4462340000000 1.0
C      1  0.4450960000000  0.5336440000000  0.4147190000000 1.0
C      1  0.4870730000000  0.4199410000000  0.4581610000000 1.0
C      1  0.4884160000000  0.4071480000000  0.5111440000000 1.0
C      1  0.4854100000000  0.4271880000000  0.5578130000000 1.0
C      1  0.4836000000000  0.4672130000000  0.5902160000000 1.0
C      1  0.4852260000000  0.5195710000000  0.5907940000000 1.0
C      1  0.4861680000000  0.5658440000000  0.5677400000000 1.0
C      1  0.4882390000000  0.5879510000000  0.5206720000000 1.0
C      1  0.4861050000000  0.5890170000000  0.4678910000000 1.0
C      1  0.4867110000000  0.5551900000000  0.4276580000000 1.0
C      1  0.4863350000000  0.5065020000000  0.4075290000000 1.0
C      1  0.4860980000000  0.4538950000000  0.4204360000000 1.0
C      1  0.4469620000000  0.4986050000000  0.5004100000000 1.0
C      1  0.4205400000000  0.4997160000000  0.4998270000000 1.0
C      1  0.5015580000000  0.4924610000000  0.5038510000000 1.0
C      1  0.5247810000000  0.5116620000000  0.5036890000000 1.0
C      1  0.4735150000000  0.4973620000000  0.5011410000000 1.0
C      1  0.5764620000000  0.5002210000000  0.5003540000000 1.0
C      1  0.6010710000000  0.4984180000000  0.4994490000000 1.0
C      1  0.3958170000000  0.5005490000000  0.4997860000000 1.0
C      1  0.5511170000000  0.5039440000000  0.5016750000000 1.0
END
