TITL C-2441164-471-594 0.0592067475753471 125000 -13649.2434306833 0 0 105 (C1) n - 1
REM
REM in /home/bkarasulu/work/CARBON/AIRSS/Generating-Clusters/ReaxFF-fromJPCA2015/Units_Real/with-SteepDescent/Higher-Symm
REM
REM
REM
REM
REM
REM ./C.cell (1df0a924f5614ab8850e4351716899ee)
REM
REM compiler GCC version 9.2.1 20190827 (Red Hat 9.2.1-1)
REM options -cpp -mtune=generic -march=x86-64 -g -O0 -fpre-include=/usr/include/finclude/math-vector-fortran.h
REM seed 1360232565 -764933006 839578188 1866070080 -1947058421 -1229839197 1209662531 -2115296115 -32377871 56245992 1052875178 -1111334544 -1083357669 -30471708 -398474754 -424441648 -2134172048 -1039976120 1429916264 -117676579 -575458500 -362546304 -1935085918 -2053556695 -1346149678 -251166802 -639527749 -1259241493 836491161 -1796483668 -902874824 1418026098 -1932575397
REM
CELL 1.54180   50.00000   50.00000   50.00000   90.00000   90.00000   90.00000
LATT -1
SFAC C  
C      1  0.5091270000000  0.4501260000000  0.4841470000000 1.0
C      1  0.5449640000000  0.4753050000000  0.4863420000000 1.0
C      1  0.5460430000000  0.5193300000000  0.4837100000000 1.0
C      1  0.5105870000000  0.5514920000000  0.4837210000000 1.0
C      1  0.4699860000000  0.5389090000000  0.4827480000000 1.0
C      1  0.4442250000000  0.5000120000000  0.4824600000000 1.0
C      1  0.4671320000000  0.4614100000000  0.4831420000000 1.0
C      1  0.5289660000000  0.4900990000000  0.5369090000000 1.0
C      1  0.5251590000000  0.5157630000000  0.5450850000000 1.0
C      1  0.5021540000000  0.5308380000000  0.5448570000000 1.0
C      1  0.4777240000000  0.5188110000000  0.5461070000000 1.0
C      1  0.4708490000000  0.4965260000000  0.5354880000000 1.0
C      1  0.4828620000000  0.4748550000000  0.5466550000000 1.0
C      1  0.5099670000000  0.4725590000000  0.5477040000000 1.0
C      1  0.4934720000000  0.5871820000000  0.5106020000000 1.0
C      1  0.4280050000000  0.5511550000000  0.5087960000000 1.0
C      1  0.4157400000000  0.4736140000000  0.5104860000000 1.0
C      1  0.4668750000000  0.4185350000000  0.5095060000000 1.0
C      1  0.5435530000000  0.4237650000000  0.5091630000000 1.0
C      1  0.5873640000000  0.4870490000000  0.5086610000000 1.0
C      1  0.5653280000000  0.5590410000000  0.5087860000000 1.0
C      1  0.5025680000000  0.5809450000000  0.4815980000000 1.0
C      1  0.4345110000000  0.5571940000000  0.4804380000000 1.0
C      1  0.4200690000000  0.4818550000000  0.4810920000000 1.0
C      1  0.4604080000000  0.4218590000000  0.4800230000000 1.0
C      1  0.5359870000000  0.4215240000000  0.4802460000000 1.0
C      1  0.5845050000000  0.4797130000000  0.4795320000000 1.0
C      1  0.5689490000000  0.5522370000000  0.4802320000000 1.0
C      1  0.4295850000000  0.4500660000000  0.5087790000000 1.0
C      1  0.4942850000000  0.4141570000000  0.5105570000000 1.0
C      1  0.5638170000000  0.4418750000000  0.5098980000000 1.0
C      1  0.5841390000000  0.5144960000000  0.5098000000000 1.0
C      1  0.5429820000000  0.5747630000000  0.5098990000000 1.0
C      1  0.4671180000000  0.5794550000000  0.5096260000000 1.0
C      1  0.4168480000000  0.5257660000000  0.5096460000000 1.0
C      1  0.4303930000000  0.5364120000000  0.4596130000000 1.0
C      1  0.4294570000000  0.4651420000000  0.4584520000000 1.0
C      1  0.4823210000000  0.4243380000000  0.4606710000000 1.0
C      1  0.5476760000000  0.4394380000000  0.4601290000000 1.0
C      1  0.5773050000000  0.4997540000000  0.4599120000000 1.0
C      1  0.5483380000000  0.5595640000000  0.4609220000000 1.0
C      1  0.4820870000000  0.5756770000000  0.4595150000000 1.0
C      1  0.5399820000000  0.4833350000000  0.5738970000000 1.0
C      1  0.5351820000000  0.5191670000000  0.5718720000000 1.0
C      1  0.5088520000000  0.5398330000000  0.5717190000000 1.0
C      1  0.4706950000000  0.5267930000000  0.5727090000000 1.0
C      1  0.4572170000000  0.4987940000000  0.5754120000000 1.0
C      1  0.4681410000000  0.4714370000000  0.5716960000000 1.0
C      1  0.5198280000000  0.4616180000000  0.5725660000000 1.0
C      1  0.4872750000000  0.5578080000000  0.4382080000000 1.0
C      1  0.4470650000000  0.5265010000000  0.4380950000000 1.0
C      1  0.4463990000000  0.4744650000000  0.4385530000000 1.0
C      1  0.4931710000000  0.4429040000000  0.4404620000000 1.0
C      1  0.5402780000000  0.4600880000000  0.4407300000000 1.0
C      1  0.5561880000000  0.5061310000000  0.4400590000000 1.0
C      1  0.5290710000000  0.5473660000000  0.4406720000000 1.0
C      1  0.5305700000000  0.4804320000000  0.4621270000000 1.0
C      1  0.5334730000000  0.5098020000000  0.4600390000000 1.0
C      1  0.5110010000000  0.5328670000000  0.4607360000000 1.0
C      1  0.4829750000000  0.5237540000000  0.4621180000000 1.0
C      1  0.4678780000000  0.5007260000000  0.4642660000000 1.0
C      1  0.4788540000000  0.4771220000000  0.4637190000000 1.0
C      1  0.5035480000000  0.4656250000000  0.4602440000000 1.0
C      1  0.5595860000000  0.4560200000000  0.5343270000000 1.0
C      1  0.5696050000000  0.5199660000000  0.5339010000000 1.0
C      1  0.5283430000000  0.5675930000000  0.5339390000000 1.0
C      1  0.4657740000000  0.5647630000000  0.5351200000000 1.0
C      1  0.4285270000000  0.5118490000000  0.5330790000000 1.0
C      1  0.4456500000000  0.4510730000000  0.5326910000000 1.0
C      1  0.5035760000000  0.4279510000000  0.5344950000000 1.0
C      1  0.5594440000000  0.5308700000000  0.5583310000000 1.0
C      1  0.5145170000000  0.5656460000000  0.5595830000000 1.0
C      1  0.4565870000000  0.5503590000000  0.5592580000000 1.0
C      1  0.4326840000000  0.4998510000000  0.5600410000000 1.0
C      1  0.4566330000000  0.4473000000000  0.5591850000000 1.0
C      1  0.5179380000000  0.4350570000000  0.5587910000000 1.0
C      1  0.5627900000000  0.4720950000000  0.5597540000000 1.0
C      1  0.4198970000000  0.5178570000000  0.4806670000000 1.0
C      1  0.4406170000000  0.4454770000000  0.4810730000000 1.0
C      1  0.5043680000000  0.4187170000000  0.4818390000000 1.0
C      1  0.5646890000000  0.4539580000000  0.4826070000000 1.0
C      1  0.5759560000000  0.5230760000000  0.4825520000000 1.0
C      1  0.5346390000000  0.5757770000000  0.4815220000000 1.0
C      1  0.4603510000000  0.5710970000000  0.4808040000000 1.0
C      1  0.5666540000000  0.5479540000000  0.5361510000000 1.0
C      1  0.5045860000000  0.5822160000000  0.5372470000000 1.0
C      1  0.4383360000000  0.5558810000000  0.5369900000000 1.0
C      1  0.4182320000000  0.4856910000000  0.5372910000000 1.0
C      1  0.4615660000000  0.4286130000000  0.5370270000000 1.0
C      1  0.5315810000000  0.4236900000000  0.5359430000000 1.0
C      1  0.5801990000000  0.4755120000000  0.5354590000000 1.0
C      1  0.4672090000000  0.4849310000000  0.4226310000000 1.0
C      1  0.4907640000000  0.4655470000000  0.4224230000000 1.0
C      1  0.5202200000000  0.4709530000000  0.4213560000000 1.0
C      1  0.5344530000000  0.4979290000000  0.4211970000000 1.0
C      1  0.5221320000000  0.5257960000000  0.4213780000000 1.0
C      1  0.4927750000000  0.5345280000000  0.4220050000000 1.0
C      1  0.4676480000000  0.5155020000000  0.4222820000000 1.0
C      1  0.4808300000000  0.4732030000000  0.5040470000000 1.0
C      1  0.5069510000000  0.4675180000000  0.5052930000000 1.0
C      1  0.5298540000000  0.4868440000000  0.5086800000000 1.0
C      1  0.5277560000000  0.5150500000000  0.5030750000000 1.0
C      1  0.5069360000000  0.5335010000000  0.5063230000000 1.0
C      1  0.4797690000000  0.5251110000000  0.5053050000000 1.0
C      1  0.4683080000000  0.4985110000000  0.5087830000000 1.0
END
