TITL C-2441156-4686-1147 0.0432890706445879 125000 -10525.4326692085 0 0 84 (C1) n - 1
REM
REM in /home/bkarasulu/work/CARBON/AIRSS/Generating-Clusters/ReaxFF-fromJPCA2015/Units_Real/with-SteepDescent/Higher-Symm
REM
REM
REM
REM
REM
REM ./C.cell (1df0a924f5614ab8850e4351716899ee)
REM
REM compiler GCC version 9.2.1 20190827 (Red Hat 9.2.1-1)
REM options -cpp -mtune=generic -march=x86-64 -g -O0 -fpre-include=/usr/include/finclude/math-vector-fortran.h
REM seed 976011450 -1195712966 1278218713 -557060283 1056568749 -890926512 1382630590 -1716513751 -145348246 1920034320 -1538784399 -1848380635 -1080081605 -380660014 267430939 1849494381 1498221146 950407669 -217907808 -115469041 -1770241475 16337167 1637638071 1965111744 -231752705 -983563197 1651138730 -191584794 1192773947 1335915190 -946115025 -547000209 -1902108625
REM
CELL 1.54180   50.00000   50.00000   50.00000   90.00000   90.00000   90.00000
LATT -1
SFAC C  
C      1  0.4676470000000  0.4550560000000  0.4764860000000 1.0
C      1  0.4700350000000  0.4531160000000  0.5244580000000 1.0
C      1  0.5726480000000  0.5071370000000  0.5308270000000 1.0
C      1  0.5746870000000  0.5113370000000  0.4687770000000 1.0
C      1  0.4893250000000  0.4711910000000  0.4277520000000 1.0
C      1  0.4895650000000  0.4709050000000  0.5718330000000 1.0
C      1  0.5527840000000  0.5239350000000  0.5425080000000 1.0
C      1  0.5518120000000  0.5236400000000  0.4570270000000 1.0
C      1  0.5353510000000  0.5573490000000  0.4525530000000 1.0
C      1  0.5316640000000  0.5575320000000  0.5471500000000 1.0
C      1  0.5764910000000  0.4831140000000  0.4721700000000 1.0
C      1  0.5748370000000  0.4784620000000  0.5264500000000 1.0
C      1  0.4864140000000  0.5225170000000  0.4261450000000 1.0
C      1  0.4862240000000  0.5226820000000  0.5726790000000 1.0
C      1  0.4753870000000  0.4962800000000  0.4345940000000 1.0
C      1  0.4754530000000  0.4958650000000  0.5650530000000 1.0
C      1  0.4440240000000  0.4401690000000  0.4790470000000 1.0
C      1  0.4447580000000  0.4408020000000  0.5204700000000 1.0
C      1  0.4676110000000  0.5338980000000  0.4725850000000 1.0
C      1  0.4677320000000  0.5303440000000  0.5276410000000 1.0
C      1  0.5077580000000  0.5316250000000  0.4451520000000 1.0
C      1  0.5091260000000  0.5330950000000  0.5555950000000 1.0
C      1  0.4659080000000  0.5666750000000  0.4736010000000 1.0
C      1  0.4645740000000  0.5723460000000  0.5180530000000 1.0
C      1  0.5464620000000  0.4499410000000  0.5286200000000 1.0
C      1  0.5443210000000  0.4474590000000  0.4720350000000 1.0
C      1  0.5319710000000  0.4925290000000  0.4320220000000 1.0
C      1  0.5322330000000  0.4927380000000  0.5673300000000 1.0
C      1  0.4956680000000  0.5218140000000  0.5275310000000 1.0
C      1  0.4954590000000  0.5230110000000  0.4720080000000 1.0
C      1  0.4928150000000  0.4405450000000  0.4615120000000 1.0
C      1  0.4932120000000  0.4404570000000  0.5376290000000 1.0
C      1  0.5182180000000  0.4656760000000  0.5668950000000 1.0
C      1  0.5179920000000  0.4659780000000  0.4317260000000 1.0
C      1  0.4864270000000  0.5504180000000  0.5632840000000 1.0
C      1  0.4890330000000  0.5509530000000  0.4336340000000 1.0
C      1  0.4897880000000  0.5704910000000  0.4567510000000 1.0
C      1  0.4861810000000  0.5681900000000  0.5383760000000 1.0
C      1  0.4764490000000  0.4471550000000  0.4385670000000 1.0
C      1  0.4772080000000  0.4459160000000  0.5623740000000 1.0
C      1  0.4214320000000  0.5221460000000  0.5293590000000 1.0
C      1  0.4231250000000  0.5265840000000  0.4717440000000 1.0
C      1  0.5578490000000  0.5495640000000  0.4687130000000 1.0
C      1  0.5547530000000  0.5501590000000  0.5315430000000 1.0
C      1  0.5215560000000  0.4478490000000  0.5436820000000 1.0
C      1  0.5208540000000  0.4471380000000  0.4554480000000 1.0
C      1  0.5470720000000  0.4766010000000  0.4732930000000 1.0
C      1  0.5460100000000  0.4770030000000  0.5244320000000 1.0
C      1  0.4454130000000  0.5227090000000  0.5458310000000 1.0
C      1  0.4448750000000  0.5237000000000  0.4534370000000 1.0
C      1  0.4505500000000  0.4949290000000  0.4513090000000 1.0
C      1  0.4510130000000  0.4934620000000  0.5478860000000 1.0
C      1  0.4414890000000  0.4873590000000  0.5201270000000 1.0
C      1  0.4394920000000  0.4897820000000  0.4787550000000 1.0
C      1  0.4238980000000  0.5490180000000  0.5219290000000 1.0
C      1  0.4310970000000  0.5515290000000  0.4817380000000 1.0
C      1  0.4992690000000  0.4886900000000  0.4756040000000 1.0
C      1  0.4982320000000  0.4912730000000  0.5250910000000 1.0
C      1  0.4515690000000  0.4534900000000  0.4531170000000 1.0
C      1  0.4533380000000  0.4530230000000  0.5462300000000 1.0
C      1  0.5257350000000  0.4976900000000  0.5384830000000 1.0
C      1  0.5259380000000  0.4976250000000  0.4612210000000 1.0
C      1  0.5134180000000  0.5692810000000  0.5283540000000 1.0
C      1  0.5159770000000  0.5693330000000  0.4697470000000 1.0
C      1  0.5073600000000  0.4695990000000  0.4983330000000 1.0
C      1  0.5335460000000  0.4163580000000  0.4998650000000 1.0
C      1  0.4811320000000  0.4980910000000  0.4998690000000 1.0
C      1  0.4794670000000  0.5735710000000  0.4972050000000 1.0
C      1  0.4847390000000  0.4234900000000  0.5009300000000 1.0
C      1  0.5526460000000  0.4398060000000  0.4997550000000 1.0
C      1  0.5858290000000  0.4840300000000  0.4993440000000 1.0
C      1  0.5238730000000  0.5100330000000  0.4998410000000 1.0
C      1  0.5466060000000  0.5258390000000  0.4982280000000 1.0
C      1  0.5503260000000  0.5550360000000  0.5002450000000 1.0
C      1  0.5645370000000  0.5066070000000  0.5014330000000 1.0
C      1  0.4362320000000  0.5609000000000  0.5063780000000 1.0
C      1  0.4321390000000  0.5092010000000  0.5012310000000 1.0
C      1  0.4566860000000  0.4233320000000  0.4997610000000 1.0
C      1  0.5351580000000  0.4730070000000  0.4996300000000 1.0
C      1  0.5208470000000  0.5607160000000  0.4992730000000 1.0
C      1  0.4628890000000  0.5216690000000  0.5003830000000 1.0
C      1  0.5055410000000  0.5326020000000  0.4982880000000 1.0
C      1  0.5098760000000  0.4352130000000  0.4988590000000 1.0
C      1  0.4595110000000  0.4799660000000  0.4976640000000 1.0
END
