TITL C-2441162-9305-867 0.125352918032702 125000 -25404.2041517887 0 0 188 (C1) n - 1
REM
REM in /home/bkarasulu/work/CARBON/AIRSS/Generating-Clusters/ReaxFF-fromJPCA2015/Units_Real/with-SteepDescent/Higher-Symm
REM
REM
REM
REM
REM
REM ./C.cell (1df0a924f5614ab8850e4351716899ee)
REM
REM compiler GCC version 9.2.1 20190827 (Red Hat 9.2.1-1)
REM options -cpp -mtune=generic -march=x86-64 -g -O0 -fpre-include=/usr/include/finclude/math-vector-fortran.h
REM seed -249959463 -1500174835 113923005 -1068434672 -1388408052 -2131153532 1976864464 1661706460 -2020583093 1318817939 -418592318 808998045 -1193977997 -191924211 -1602324182 1146760335 219761044 819765544 11593880 1823048811 -576539741 -1569872342 810677036 -879391419 1176584445 1723649276 -739292221 269249714 1951877643 425405166 -1797778191 1534791499 -931686266
REM
CELL 1.54180   50.00000   50.00000   50.00000   90.00000   90.00000   90.00000
LATT -1
SFAC C  
C      1  0.5115680000000  0.4150430000000  0.5341070000000 1.0
C      1  0.4874280000000  0.4038310000000  0.5223280000000 1.0
C      1  0.5248940000000  0.4857200000000  0.4525520000000 1.0
C      1  0.4821920000000  0.4888080000000  0.4658840000000 1.0
C      1  0.5123830000000  0.5082240000000  0.4414960000000 1.0
C      1  0.4860570000000  0.4949360000000  0.4375180000000 1.0
C      1  0.5653420000000  0.4324600000000  0.5787510000000 1.0
C      1  0.4356340000000  0.4368980000000  0.5736780000000 1.0
C      1  0.5154700000000  0.4872850000000  0.5455870000000 1.0
C      1  0.4872210000000  0.4855700000000  0.5378660000000 1.0
C      1  0.4523100000000  0.5433770000000  0.4613220000000 1.0
C      1  0.5469750000000  0.5452000000000  0.4611850000000 1.0
C      1  0.5105260000000  0.5245970000000  0.4828760000000 1.0
C      1  0.4860240000000  0.5149250000000  0.4771250000000 1.0
C      1  0.4853850000000  0.4506180000000  0.4084350000000 1.0
C      1  0.5144920000000  0.4525220000000  0.4105440000000 1.0
C      1  0.6073200000000  0.4663070000000  0.5094700000000 1.0
C      1  0.3868600000000  0.4592800000000  0.5014010000000 1.0
C      1  0.5535450000000  0.4527400000000  0.5450520000000 1.0
C      1  0.4371190000000  0.4628410000000  0.5338800000000 1.0
C      1  0.5822640000000  0.4896000000000  0.5491880000000 1.0
C      1  0.4051350000000  0.4929450000000  0.5560330000000 1.0
C      1  0.5793110000000  0.5346090000000  0.5458780000000 1.0
C      1  0.4215400000000  0.5361920000000  0.5453200000000 1.0
C      1  0.5957330000000  0.5279980000000  0.5175630000000 1.0
C      1  0.4012700000000  0.5378580000000  0.5211160000000 1.0
C      1  0.3987620000000  0.4791790000000  0.4837780000000 1.0
C      1  0.5982570000000  0.4823990000000  0.4868050000000 1.0
C      1  0.4385780000000  0.5790290000000  0.5424800000000 1.0
C      1  0.5642610000000  0.5831140000000  0.5465240000000 1.0
C      1  0.5531680000000  0.5173970000000  0.5331340000000 1.0
C      1  0.4458490000000  0.5160720000000  0.5338970000000 1.0
C      1  0.4110130000000  0.4341540000000  0.4620660000000 1.0
C      1  0.5939540000000  0.4418590000000  0.4593430000000 1.0
C      1  0.5330700000000  0.5611300000000  0.5822750000000 1.0
C      1  0.4500260000000  0.5395380000000  0.5918570000000 1.0
C      1  0.5297480000000  0.4111970000000  0.4532290000000 1.0
C      1  0.4738410000000  0.4050410000000  0.4513260000000 1.0
C      1  0.4449110000000  0.4888200000000  0.5965990000000 1.0
C      1  0.5561820000000  0.4856450000000  0.5994660000000 1.0
C      1  0.5332970000000  0.5299840000000  0.5948060000000 1.0
C      1  0.4752430000000  0.5297470000000  0.6016150000000 1.0
C      1  0.5123280000000  0.4435940000000  0.5297090000000 1.0
C      1  0.4865130000000  0.4558900000000  0.5348670000000 1.0
C      1  0.4930640000000  0.5972930000000  0.4389940000000 1.0
C      1  0.5239950000000  0.5992830000000  0.4386460000000 1.0
C      1  0.4220210000000  0.5509850000000  0.4299520000000 1.0
C      1  0.5839920000000  0.5478750000000  0.4280490000000 1.0
C      1  0.5634310000000  0.4722920000000  0.5624150000000 1.0
C      1  0.4302390000000  0.4776830000000  0.5570650000000 1.0
C      1  0.5804510000000  0.5008830000000  0.5016000000000 1.0
C      1  0.4079290000000  0.4944810000000  0.5072890000000 1.0
C      1  0.5502800000000  0.5318290000000  0.4068600000000 1.0
C      1  0.4644990000000  0.5112120000000  0.4239290000000 1.0
C      1  0.4560970000000  0.5292580000000  0.5098350000000 1.0
C      1  0.5418970000000  0.5346900000000  0.5100680000000 1.0
C      1  0.4014920000000  0.5352190000000  0.4719020000000 1.0
C      1  0.5967680000000  0.5400050000000  0.4710460000000 1.0
C      1  0.5410090000000  0.3907860000000  0.4998210000000 1.0
C      1  0.4592210000000  0.3812990000000  0.4982490000000 1.0
C      1  0.4810850000000  0.4865550000000  0.5097240000000 1.0
C      1  0.5237790000000  0.4844250000000  0.5140480000000 1.0
C      1  0.4858770000000  0.5938350000000  0.5402370000000 1.0
C      1  0.5141220000000  0.5936810000000  0.5444400000000 1.0
C      1  0.4846070000000  0.6042560000000  0.4884180000000 1.0
C      1  0.5137240000000  0.6043650000000  0.4902160000000 1.0
C      1  0.5571060000000  0.4173340000000  0.4514710000000 1.0
C      1  0.4481180000000  0.4173740000000  0.4544630000000 1.0
C      1  0.4879400000000  0.5063010000000  0.6135980000000 1.0
C      1  0.5165520000000  0.5077600000000  0.6092050000000 1.0
C      1  0.4832600000000  0.5200670000000  0.5756540000000 1.0
C      1  0.5089980000000  0.5298960000000  0.5772680000000 1.0
C      1  0.5568190000000  0.4798930000000  0.4154910000000 1.0
C      1  0.4415460000000  0.4742190000000  0.4129950000000 1.0
C      1  0.4066160000000  0.4352450000000  0.5095570000000 1.0
C      1  0.5966860000000  0.4386800000000  0.5081650000000 1.0
C      1  0.4815840000000  0.5608220000000  0.4931170000000 1.0
C      1  0.5088610000000  0.5531110000000  0.4820880000000 1.0
C      1  0.4890960000000  0.5698450000000  0.4458470000000 1.0
C      1  0.5105460000000  0.5592330000000  0.4559910000000 1.0
C      1  0.4236970000000  0.5768090000000  0.4980270000000 1.0
C      1  0.5707440000000  0.5704700000000  0.4996230000000 1.0
C      1  0.5394600000000  0.4245590000000  0.5705230000000 1.0
C      1  0.4599900000000  0.4226910000000  0.5671330000000 1.0
C      1  0.4379090000000  0.5007880000000  0.4728170000000 1.0
C      1  0.5632120000000  0.5060140000000  0.4783070000000 1.0
C      1  0.5864330000000  0.4264810000000  0.4840820000000 1.0
C      1  0.4205950000000  0.4228150000000  0.4878080000000 1.0
C      1  0.4271580000000  0.4296050000000  0.4378390000000 1.0
C      1  0.5764150000000  0.4341130000000  0.4367740000000 1.0
C      1  0.5575650000000  0.5861600000000  0.5195690000000 1.0
C      1  0.4438430000000  0.5877180000000  0.5178810000000 1.0
C      1  0.5233060000000  0.4010100000000  0.4795890000000 1.0
C      1  0.4754860000000  0.3913430000000  0.4780760000000 1.0
C      1  0.4876300000000  0.4300900000000  0.4494660000000 1.0
C      1  0.5150810000000  0.4370560000000  0.4567970000000 1.0
C      1  0.5218000000000  0.5383770000000  0.4415360000000 1.0
C      1  0.4690240000000  0.5522650000000  0.4373290000000 1.0
C      1  0.5141930000000  0.5354960000000  0.5508310000000 1.0
C      1  0.4873320000000  0.5441920000000  0.5425910000000 1.0
C      1  0.4501510000000  0.4298880000000  0.4821120000000 1.0
C      1  0.5571850000000  0.4298950000000  0.4775720000000 1.0
C      1  0.4197550000000  0.4632030000000  0.4627580000000 1.0
C      1  0.5839940000000  0.4663070000000  0.4687630000000 1.0
C      1  0.4369170000000  0.5029180000000  0.4176330000000 1.0
C      1  0.5656050000000  0.5083210000000  0.4154610000000 1.0
C      1  0.3768610000000  0.5212450000000  0.5248850000000 1.0
C      1  0.6207770000000  0.5110780000000  0.5254820000000 1.0
C      1  0.4731530000000  0.4840800000000  0.6008550000000 1.0
C      1  0.5269130000000  0.4828330000000  0.5992800000000 1.0
C      1  0.4931400000000  0.5577820000000  0.5179630000000 1.0
C      1  0.5218300000000  0.5612700000000  0.5115820000000 1.0
C      1  0.4730600000000  0.6046540000000  0.4595560000000 1.0
C      1  0.5244180000000  0.6025150000000  0.4652820000000 1.0
C      1  0.4910430000000  0.4704930000000  0.4866450000000 1.0
C      1  0.5092540000000  0.4487360000000  0.4836470000000 1.0
C      1  0.5576350000000  0.4593990000000  0.4780440000000 1.0
C      1  0.4442760000000  0.4579170000000  0.4778490000000 1.0
C      1  0.4534120000000  0.5630490000000  0.5752520000000 1.0
C      1  0.5577350000000  0.5716960000000  0.5725940000000 1.0
C      1  0.4183040000000  0.5199360000000  0.4322270000000 1.0
C      1  0.5858000000000  0.5185380000000  0.4333000000000 1.0
C      1  0.5777000000000  0.5140790000000  0.5665640000000 1.0
C      1  0.4137950000000  0.5178200000000  0.5677690000000 1.0
C      1  0.5526570000000  0.5299130000000  0.4840300000000 1.0
C      1  0.4456830000000  0.5261070000000  0.4824440000000 1.0
C      1  0.5336340000000  0.3976010000000  0.5265160000000 1.0
C      1  0.4623490000000  0.3900430000000  0.5247980000000 1.0
C      1  0.5548270000000  0.5697890000000  0.4748530000000 1.0
C      1  0.4576550000000  0.5644650000000  0.4792540000000 1.0
C      1  0.5677300000000  0.4609110000000  0.5880660000000 1.0
C      1  0.4354180000000  0.4651930000000  0.5826800000000 1.0
C      1  0.5078060000000  0.4223610000000  0.4923360000000 1.0
C      1  0.4811460000000  0.4152570000000  0.4966860000000 1.0
C      1  0.4609510000000  0.4455430000000  0.5303720000000 1.0
C      1  0.5371510000000  0.4597290000000  0.5213000000000 1.0
C      1  0.4719790000000  0.5981780000000  0.5141350000000 1.0
C      1  0.5287290000000  0.5912790000000  0.5165090000000 1.0
C      1  0.4481890000000  0.4818730000000  0.4928050000000 1.0
C      1  0.5412400000000  0.4827080000000  0.4761320000000 1.0
C      1  0.5107940000000  0.5449510000000  0.4115850000000 1.0
C      1  0.4825090000000  0.5447840000000  0.4080370000000 1.0
C      1  0.4822700000000  0.5704710000000  0.5603800000000 1.0
C      1  0.5129250000000  0.5759780000000  0.5684200000000 1.0
C      1  0.5887700000000  0.5131530000000  0.4617310000000 1.0
C      1  0.4133550000000  0.5094180000000  0.4595580000000 1.0
C      1  0.4678900000000  0.4713560000000  0.3983940000000 1.0
C      1  0.5304760000000  0.4740260000000  0.4010730000000 1.0
C      1  0.3903680000000  0.4946050000000  0.5307540000000 1.0
C      1  0.6102770000000  0.4847940000000  0.5319770000000 1.0
C      1  0.4382320000000  0.5882050000000  0.4758770000000 1.0
C      1  0.5704020000000  0.5824470000000  0.4534290000000 1.0
C      1  0.5144390000000  0.4357700000000  0.5739490000000 1.0
C      1  0.4841260000000  0.4353640000000  0.5767520000000 1.0
C      1  0.4341490000000  0.5153900000000  0.5878740000000 1.0
C      1  0.5594340000000  0.5124040000000  0.5876770000000 1.0
C      1  0.4182750000000  0.4397640000000  0.5499110000000 1.0
C      1  0.5744080000000  0.4331670000000  0.5510950000000 1.0
C      1  0.5490050000000  0.5826710000000  0.4330640000000 1.0
C      1  0.4482360000000  0.5920570000000  0.4487830000000 1.0
C      1  0.4819810000000  0.4548250000000  0.4375390000000 1.0
C      1  0.5124360000000  0.4593380000000  0.4389960000000 1.0
C      1  0.4854470000000  0.4648960000000  0.5819770000000 1.0
C      1  0.5141590000000  0.4687480000000  0.5751900000000 1.0
C      1  0.5645320000000  0.4910730000000  0.5244480000000 1.0
C      1  0.4347440000000  0.4880600000000  0.5176680000000 1.0
C      1  0.5584490000000  0.5586290000000  0.4186410000000 1.0
C      1  0.4452510000000  0.5693110000000  0.4302700000000 1.0
C      1  0.4263920000000  0.4578550000000  0.4313660000000 1.0
C      1  0.5720700000000  0.4616210000000  0.4309300000000 1.0
C      1  0.5290630000000  0.5123250000000  0.5476100000000 1.0
C      1  0.4719430000000  0.5136000000000  0.5491100000000 1.0
C      1  0.5922040000000  0.5618530000000  0.4516640000000 1.0
C      1  0.4086510000000  0.5535640000000  0.4539740000000 1.0
C      1  0.5241050000000  0.5243480000000  0.3963620000000 1.0
C      1  0.4724080000000  0.5201540000000  0.3969620000000 1.0
C      1  0.5924220000000  0.5500790000000  0.4982210000000 1.0
C      1  0.4072670000000  0.5525390000000  0.4961130000000 1.0
C      1  0.5803600000000  0.4212900000000  0.5248960000000 1.0
C      1  0.4200760000000  0.4197010000000  0.5298340000000 1.0
C      1  0.4782890000000  0.5133100000000  0.5037110000000 1.0
C      1  0.5230120000000  0.5119620000000  0.5038050000000 1.0
C      1  0.4319960000000  0.5619160000000  0.5572210000000 1.0
C      1  0.5773540000000  0.5613910000000  0.5552060000000 1.0
C      1  0.5138270000000  0.4963720000000  0.3934750000000 1.0
C      1  0.4847830000000  0.4940790000000  0.3905560000000 1.0
C      1  0.5575950000000  0.4058490000000  0.5165780000000 1.0
C      1  0.4518130000000  0.4177400000000  0.5371270000000 1.0
END
