TITL C-2441166-8118-1238 0.0318522272049384 125000 -7586.6098400496 0 0 60 (C1) n - 1
REM
REM in /home/bkarasulu/work/CARBON/AIRSS/Generating-Clusters/ReaxFF-fromJPCA2015/Units_Real/with-SteepDescent/Higher-Symm
REM
REM
REM
REM
REM
REM ./C.cell (1df0a924f5614ab8850e4351716899ee)
REM
REM compiler GCC version 9.2.1 20190827 (Red Hat 9.2.1-1)
REM options -cpp -mtune=generic -march=x86-64 -g -O0 -fpre-include=/usr/include/finclude/math-vector-fortran.h
REM seed 1037889813 -1451620046 -567141791 987962642 -2080932047 1279285878 -1090766488 1797725784 -1276512326 -21005798 -802033956 1462507070 -1633383436 666300018 -194804847 -1894542884 805089878 -432083013 660154891 -718191166 -1118399711 -1099197989 -1211137635 2012409716 -187898585 -811544502 -1672965161 -873148580 1505677838 -2049668216 1003335927 1323642507 2033116515
REM
CELL 1.54180   50.00000   50.00000   50.00000   90.00000   90.00000   90.00000
LATT -1
SFAC C  
C      1  0.5125040000000  0.5347570000000  0.5359740000000 1.0
C      1  0.5096270000000  0.4659480000000  0.5565840000000 1.0
C      1  0.4537060000000  0.5310860000000  0.4894570000000 1.0
C      1  0.5219900000000  0.4429940000000  0.4692220000000 1.0
C      1  0.4628730000000  0.4590550000000  0.4855440000000 1.0
C      1  0.4390430000000  0.4756070000000  0.4829660000000 1.0
C      1  0.5648810000000  0.4767380000000  0.5167860000000 1.0
C      1  0.4414260000000  0.5044130000000  0.4880410000000 1.0
C      1  0.4786820000000  0.5323420000000  0.5037770000000 1.0
C      1  0.5435900000000  0.5617150000000  0.5039980000000 1.0
C      1  0.4922530000000  0.4946310000000  0.4296260000000 1.0
C      1  0.4453040000000  0.5059520000000  0.5357770000000 1.0
C      1  0.4739820000000  0.5509800000000  0.5266090000000 1.0
C      1  0.4693870000000  0.4935900000000  0.4467010000000 1.0
C      1  0.4631680000000  0.5221550000000  0.4393890000000 1.0
C      1  0.4468840000000  0.5520150000000  0.5195830000000 1.0
C      1  0.4271140000000  0.5013200000000  0.5143850000000 1.0
C      1  0.5077040000000  0.4920190000000  0.5081530000000 1.0
C      1  0.5248840000000  0.5408810000000  0.5570730000000 1.0
C      1  0.5280150000000  0.4914220000000  0.4633180000000 1.0
C      1  0.5041560000000  0.4999550000000  0.4807480000000 1.0
C      1  0.4734250000000  0.4739890000000  0.5408220000000 1.0
C      1  0.4736340000000  0.4475430000000  0.4615610000000 1.0
C      1  0.4559900000000  0.5391410000000  0.4627220000000 1.0
C      1  0.4819040000000  0.5515000000000  0.4623210000000 1.0
C      1  0.4953690000000  0.5131820000000  0.5439440000000 1.0
C      1  0.5498620000000  0.5508650000000  0.4765340000000 1.0
C      1  0.4884370000000  0.5378260000000  0.4372540000000 1.0
C      1  0.4845670000000  0.4505410000000  0.5544610000000 1.0
C      1  0.5708160000000  0.4990610000000  0.4742970000000 1.0
C      1  0.5173320000000  0.4529480000000  0.5311670000000 1.0
C      1  0.5649230000000  0.4741900000000  0.4879720000000 1.0
C      1  0.5586810000000  0.5218950000000  0.5472830000000 1.0
C      1  0.5677990000000  0.5279240000000  0.4753510000000 1.0
C      1  0.4626920000000  0.4438290000000  0.5098120000000 1.0
C      1  0.5344610000000  0.5151130000000  0.5633640000000 1.0
C      1  0.4404480000000  0.4562530000000  0.5251620000000 1.0
C      1  0.4239070000000  0.4723970000000  0.5076580000000 1.0
C      1  0.4448310000000  0.4784710000000  0.5446430000000 1.0
C      1  0.4775760000000  0.4969850000000  0.4744030000000 1.0
C      1  0.5463610000000  0.5108380000000  0.4707120000000 1.0
C      1  0.5352860000000  0.5208780000000  0.5133620000000 1.0
C      1  0.5145120000000  0.5653290000000  0.5041480000000 1.0
C      1  0.5060100000000  0.5511660000000  0.4795100000000 1.0
C      1  0.5261340000000  0.4702870000000  0.5097000000000 1.0
C      1  0.4993580000000  0.4373260000000  0.4527210000000 1.0
C      1  0.5025030000000  0.5605710000000  0.5303270000000 1.0
C      1  0.4907710000000  0.4372870000000  0.5158440000000 1.0
C      1  0.4737760000000  0.5108430000000  0.5245190000000 1.0
C      1  0.4991830000000  0.4597200000000  0.4653520000000 1.0
C      1  0.5163170000000  0.5280610000000  0.4377430000000 1.0
C      1  0.5122550000000  0.4953840000000  0.5573530000000 1.0
C      1  0.4841450000000  0.4253440000000  0.5397060000000 1.0
C      1  0.5376640000000  0.4654120000000  0.4795150000000 1.0
C      1  0.5193400000000  0.4987640000000  0.4340590000000 1.0
C      1  0.5272370000000  0.5459290000000  0.4594560000000 1.0
C      1  0.4801490000000  0.4829400000000  0.5126270000000 1.0
C      1  0.5514040000000  0.5002000000000  0.5278200000000 1.0
C      1  0.5542040000000  0.5409930000000  0.5221640000000 1.0
C      1  0.5455590000000  0.4595060000000  0.5289190000000 1.0
END
