TITL C-2441167-4473-1279 0.14575569465182 125000 -23787.5153454145 0 0 176 (C1) n - 1
REM
REM in /home/bkarasulu/work/CARBON/AIRSS/Generating-Clusters/ReaxFF-fromJPCA2015/Units_Real/with-SteepDescent/Higher-Symm
REM
REM
REM
REM
REM
REM ./C.cell (1df0a924f5614ab8850e4351716899ee)
REM
REM compiler GCC version 9.2.1 20190827 (Red Hat 9.2.1-1)
REM options -cpp -mtune=generic -march=x86-64 -g -O0 -fpre-include=/usr/include/finclude/math-vector-fortran.h
REM seed -465863702 -786059635 -517364325 -2032689160 771059983 1695028876 -609188238 711072279 -749635478 1737243724 -1499105375 2015084330 -1814991435 -943227799 1245854874 -2130723906 2014561486 365631214 -943133021 -1894676385 703665153 -1464175617 -314806271 -1730351830 1910788293 -2061453276 1476952948 -1676030936 1332686823 -1236747113 -1780156084 -1634766126 1070177799
REM
CELL 1.54180   50.00000   50.00000   50.00000   90.00000   90.00000   90.00000
LATT -1
SFAC C  
C      1  0.4152620000000  0.5576200000000  0.4647920000000 1.0
C      1  0.4467610000000  0.5569710000000  0.4216640000000 1.0
C      1  0.4985240000000  0.5556990000000  0.4062580000000 1.0
C      1  0.5476790000000  0.5553550000000  0.4188260000000 1.0
C      1  0.5847120000000  0.5566140000000  0.4581440000000 1.0
C      1  0.5943460000000  0.5568330000000  0.5108700000000 1.0
C      1  0.5715050000000  0.5563780000000  0.5595360000000 1.0
C      1  0.5292960000000  0.5556300000000  0.5893610000000 1.0
C      1  0.4754310000000  0.5564750000000  0.5888220000000 1.0
C      1  0.4315660000000  0.5556130000000  0.5637790000000 1.0
C      1  0.4067770000000  0.5559230000000  0.5168040000000 1.0
C      1  0.5041840000000  0.4065620000000  0.5495250000000 1.0
C      1  0.4764280000000  0.4101920000000  0.5445160000000 1.0
C      1  0.4541840000000  0.4045470000000  0.5258290000000 1.0
C      1  0.4485720000000  0.4076210000000  0.4968900000000 1.0
C      1  0.4589780000000  0.4077760000000  0.4700450000000 1.0
C      1  0.4815040000000  0.4057250000000  0.4532790000000 1.0
C      1  0.5098890000000  0.4051490000000  0.4481800000000 1.0
C      1  0.5368190000000  0.4086680000000  0.4630590000000 1.0
C      1  0.5497240000000  0.4066140000000  0.4887310000000 1.0
C      1  0.5478730000000  0.4058350000000  0.5175550000000 1.0
C      1  0.5308050000000  0.4072220000000  0.5397970000000 1.0
C      1  0.5254230000000  0.5030130000000  0.4563450000000 1.0
C      1  0.5411590000000  0.4980470000000  0.4800840000000 1.0
C      1  0.5336950000000  0.5086440000000  0.5035540000000 1.0
C      1  0.5366950000000  0.4968970000000  0.5280620000000 1.0
C      1  0.5177870000000  0.5032420000000  0.5479590000000 1.0
C      1  0.4900050000000  0.4975950000000  0.5439980000000 1.0
C      1  0.4743070000000  0.5083020000000  0.5258400000000 1.0
C      1  0.4488320000000  0.4966480000000  0.5259430000000 1.0
C      1  0.4503010000000  0.5014830000000  0.4810260000000 1.0
C      1  0.4793550000000  0.5047510000000  0.4735790000000 1.0
C      1  0.4981110000000  0.4963860000000  0.4547320000000 1.0
C      1  0.5332500000000  0.4503190000000  0.5925200000000 1.0
C      1  0.4789330000000  0.4495530000000  0.5973110000000 1.0
C      1  0.4261640000000  0.4484860000000  0.5703980000000 1.0
C      1  0.4016610000000  0.4504750000000  0.5195330000000 1.0
C      1  0.4079440000000  0.4506000000000  0.4621980000000 1.0
C      1  0.4416830000000  0.4509310000000  0.4184390000000 1.0
C      1  0.4933420000000  0.4486250000000  0.4013360000000 1.0
C      1  0.5494870000000  0.4489470000000  0.4117580000000 1.0
C      1  0.5886680000000  0.4512100000000  0.4550330000000 1.0
C      1  0.5963550000000  0.4526620000000  0.5092400000000 1.0
C      1  0.5775830000000  0.4486310000000  0.5602250000000 1.0
C      1  0.5405610000000  0.4151930000000  0.5665930000000 1.0
C      1  0.5128010000000  0.4158590000000  0.5759000000000 1.0
C      1  0.4668790000000  0.4233430000000  0.5672810000000 1.0
C      1  0.4346570000000  0.4182890000000  0.5398150000000 1.0
C      1  0.4258880000000  0.4228800000000  0.4991120000000 1.0
C      1  0.4423950000000  0.4169510000000  0.4474350000000 1.0
C      1  0.4660610000000  0.4159780000000  0.4301990000000 1.0
C      1  0.5120780000000  0.4205850000000  0.4250410000000 1.0
C      1  0.5508990000000  0.4235820000000  0.4444460000000 1.0
C      1  0.5771490000000  0.4169720000000  0.4909100000000 1.0
C      1  0.5752470000000  0.4165750000000  0.5202580000000 1.0
C      1  0.4136580000000  0.5686930000000  0.4918790000000 1.0
C      1  0.4348830000000  0.5686590000000  0.4457740000000 1.0
C      1  0.4739400000000  0.5664590000000  0.4151640000000 1.0
C      1  0.5224900000000  0.5678550000000  0.4162750000000 1.0
C      1  0.5641330000000  0.5664450000000  0.4399580000000 1.0
C      1  0.5866200000000  0.5681470000000  0.4851090000000 1.0
C      1  0.5800110000000  0.5672210000000  0.5345350000000 1.0
C      1  0.5480480000000  0.5676200000000  0.5718490000000 1.0
C      1  0.5022400000000  0.5664720000000  0.5882460000000 1.0
C      1  0.4557510000000  0.5677640000000  0.5718480000000 1.0
C      1  0.4208360000000  0.5655560000000  0.5393460000000 1.0
C      1  0.5599170000000  0.4779780000000  0.4843710000000 1.0
C      1  0.5662540000000  0.4661530000000  0.5102360000000 1.0
C      1  0.5550420000000  0.4765630000000  0.5344180000000 1.0
C      1  0.5206280000000  0.4794800000000  0.5668800000000 1.0
C      1  0.4743560000000  0.4792460000000  0.5595150000000 1.0
C      1  0.4494330000000  0.4741900000000  0.5439190000000 1.0
C      1  0.4430650000000  0.4856450000000  0.5026170000000 1.0
C      1  0.4462490000000  0.4777560000000  0.4586290000000 1.0
C      1  0.4677370000000  0.4682650000000  0.4425940000000 1.0
C      1  0.4923580000000  0.4773010000000  0.4352280000000 1.0
C      1  0.5426830000000  0.4807690000000  0.4405570000000 1.0
C      1  0.4960890000000  0.5453330000000  0.5433110000000 1.0
C      1  0.4752610000000  0.5347250000000  0.5279100000000 1.0
C      1  0.4559860000000  0.5434270000000  0.5116760000000 1.0
C      1  0.4509560000000  0.5313350000000  0.4863310000000 1.0
C      1  0.4739460000000  0.5317670000000  0.4692220000000 1.0
C      1  0.4950210000000  0.5443710000000  0.4561660000000 1.0
C      1  0.5199540000000  0.5313380000000  0.4565820000000 1.0
C      1  0.5364860000000  0.5452120000000  0.4739020000000 1.0
C      1  0.5402100000000  0.5344900000000  0.4996300000000 1.0
C      1  0.5379630000000  0.5456150000000  0.5250000000000 1.0
C      1  0.5208290000000  0.5324120000000  0.5436480000000 1.0
C      1  0.5681750000000  0.4397140000000  0.4329800000000 1.0
C      1  0.5917420000000  0.4396300000000  0.4807890000000 1.0
C      1  0.5871070000000  0.4377370000000  0.5351900000000 1.0
C      1  0.5545790000000  0.4386210000000  0.5758860000000 1.0
C      1  0.5060040000000  0.4390100000000  0.5921790000000 1.0
C      1  0.4525650000000  0.4387360000000  0.5834160000000 1.0
C      1  0.4155520000000  0.4374300000000  0.5445600000000 1.0
C      1  0.4064820000000  0.4391990000000  0.4917610000000 1.0
C      1  0.4254740000000  0.4393870000000  0.4413580000000 1.0
C      1  0.4685810000000  0.4387310000000  0.4124480000000 1.0
C      1  0.5214760000000  0.4377040000000  0.4068340000000 1.0
C      1  0.4524370000000  0.5163390000000  0.5824300000000 1.0
C      1  0.4137840000000  0.5167580000000  0.5443330000000 1.0
C      1  0.4047440000000  0.5165160000000  0.4911900000000 1.0
C      1  0.4241700000000  0.5170480000000  0.4414290000000 1.0
C      1  0.4689000000000  0.5162430000000  0.4108790000000 1.0
C      1  0.5223100000000  0.5158020000000  0.4074370000000 1.0
C      1  0.5692310000000  0.5169830000000  0.4342200000000 1.0
C      1  0.5928490000000  0.5171490000000  0.4819690000000 1.0
C      1  0.5876930000000  0.5169870000000  0.5346740000000 1.0
C      1  0.5554280000000  0.5166460000000  0.5775830000000 1.0
C      1  0.5043020000000  0.5168530000000  0.5957840000000 1.0
C      1  0.4026100000000  0.4777910000000  0.4635120000000 1.0
C      1  0.4392130000000  0.4786910000000  0.4149480000000 1.0
C      1  0.4935380000000  0.4770260000000  0.4013080000000 1.0
C      1  0.5442450000000  0.4763140000000  0.4124670000000 1.0
C      1  0.5945020000000  0.4792420000000  0.4540510000000 1.0
C      1  0.6043280000000  0.4810860000000  0.5085330000000 1.0
C      1  0.5784720000000  0.4784040000000  0.5595950000000 1.0
C      1  0.5338920000000  0.4789340000000  0.5929960000000 1.0
C      1  0.4777850000000  0.4779450000000  0.6031500000000 1.0
C      1  0.4257820000000  0.4770780000000  0.5676700000000 1.0
C      1  0.3987400000000  0.4784270000000  0.5195890000000 1.0
C      1  0.4640920000000  0.4896000000000  0.4048160000000 1.0
C      1  0.5209830000000  0.4883920000000  0.4009520000000 1.0
C      1  0.5751070000000  0.4892890000000  0.4346630000000 1.0
C      1  0.6019950000000  0.4911710000000  0.4809290000000 1.0
C      1  0.5957280000000  0.4908170000000  0.5341890000000 1.0
C      1  0.5605610000000  0.4900130000000  0.5803660000000 1.0
C      1  0.5039660000000  0.4904910000000  0.6034110000000 1.0
C      1  0.4545560000000  0.4879770000000  0.5861990000000 1.0
C      1  0.4081240000000  0.4894620000000  0.5458480000000 1.0
C      1  0.3989710000000  0.4891920000000  0.4908540000000 1.0
C      1  0.4199640000000  0.4882880000000  0.4394580000000 1.0
C      1  0.5732980000000  0.5291290000000  0.5581410000000 1.0
C      1  0.5309570000000  0.5285480000000  0.5897530000000 1.0
C      1  0.4769590000000  0.5291240000000  0.5905170000000 1.0
C      1  0.4313560000000  0.5279760000000  0.5653040000000 1.0
C      1  0.4067590000000  0.5285590000000  0.5178220000000 1.0
C      1  0.4121180000000  0.5293230000000  0.4649820000000 1.0
C      1  0.4450810000000  0.5285740000000  0.4239520000000 1.0
C      1  0.4962310000000  0.5282150000000  0.4066460000000 1.0
C      1  0.5470210000000  0.5279270000000  0.4177920000000 1.0
C      1  0.5831040000000  0.5288300000000  0.4573000000000 1.0
C      1  0.5928770000000  0.5291520000000  0.5083780000000 1.0
C      1  0.4459860000000  0.5672240000000  0.5229880000000 1.0
C      1  0.4387890000000  0.5799220000000  0.4996640000000 1.0
C      1  0.4599340000000  0.5753920000000  0.4588240000000 1.0
C      1  0.4819470000000  0.5656670000000  0.4428130000000 1.0
C      1  0.5215220000000  0.5781520000000  0.4439650000000 1.0
C      1  0.5427990000000  0.5677460000000  0.4589350000000 1.0
C      1  0.5601960000000  0.5769010000000  0.4936830000000 1.0
C      1  0.5548170000000  0.5686080000000  0.5209120000000 1.0
C      1  0.5271010000000  0.5779790000000  0.5538930000000 1.0
C      1  0.5010350000000  0.5672880000000  0.5596690000000 1.0
C      1  0.4659150000000  0.5795670000000  0.5462760000000 1.0
C      1  0.5412200000000  0.4465970000000  0.5079570000000 1.0
C      1  0.5349400000000  0.4536450000000  0.5340170000000 1.0
C      1  0.5124030000000  0.4563540000000  0.5511600000000 1.0
C      1  0.4842980000000  0.4548670000000  0.5463080000000 1.0
C      1  0.4620680000000  0.4504150000000  0.5293220000000 1.0
C      1  0.4515330000000  0.4587030000000  0.5038210000000 1.0
C      1  0.4539300000000  0.4542240000000  0.4761500000000 1.0
C      1  0.4784620000000  0.4482710000000  0.4619060000000 1.0
C      1  0.5042430000000  0.4545190000000  0.4511980000000 1.0
C      1  0.5303670000000  0.4582250000000  0.4558840000000 1.0
C      1  0.5421960000000  0.4552650000000  0.4808490000000 1.0
C      1  0.5347690000000  0.6104340000000  0.5313810000000 1.0
C      1  0.5145980000000  0.6045850000000  0.5493380000000 1.0
C      1  0.4856640000000  0.6025810000000  0.5451300000000 1.0
C      1  0.4615980000000  0.6052940000000  0.5324900000000 1.0
C      1  0.4484450000000  0.6065680000000  0.5058610000000 1.0
C      1  0.4612780000000  0.6092670000000  0.4816320000000 1.0
C      1  0.4729110000000  0.6026780000000  0.4579480000000 1.0
C      1  0.5017650000000  0.6048770000000  0.4526580000000 1.0
C      1  0.5284760000000  0.6054840000000  0.4589670000000 1.0
C      1  0.5465460000000  0.6009550000000  0.4825060000000 1.0
C      1  0.5425440000000  0.6105990000000  0.5077830000000 1.0
END
