TITL C-2441168-9922-1437 0.0013034981117486 125000 -4346.04845479754 0 0 31 (C1) n - 1
REM
REM in /home/bkarasulu/work/CARBON/AIRSS/Generating-Clusters/ReaxFF-fromJPCA2015/Units_Real/with-SteepDescent/Higher-Symm
REM
REM
REM
REM
REM
REM ./C.cell (1df0a924f5614ab8850e4351716899ee)
REM
REM compiler GCC version 9.2.1 20190827 (Red Hat 9.2.1-1)
REM options -cpp -mtune=generic -march=x86-64 -g -O0 -fpre-include=/usr/include/finclude/math-vector-fortran.h
REM seed 1585614108 -2076537588 -982551486 766876166 1939637808 536054345 -217424623 -1202326884 -1743237484 -987933903 -1703623469 -471734569 257465913 -2097568156 -1628848692 1655739067 1279842701 2139602982 138582489 1673691701 2030108514 -1978625776 -1217342243 1064936108 -1467794243 521596823 -1929060516 483918991 2008809520 1850377660 1831836506 -1001060278 -386042690
REM
CELL 1.54180   50.00000   50.00000   50.00000   90.00000   90.00000   90.00000
LATT -1
SFAC C  
C      1  0.4611590000000  0.5471490000000  0.5064170000000 1.0
C      1  0.5355890000000  0.4571260000000  0.4857500000000 1.0
C      1  0.5392020000000  0.5531750000000  0.5220560000000 1.0
C      1  0.4569040000000  0.4465000000000  0.4799770000000 1.0
C      1  0.4601490000000  0.5066330000000  0.4810590000000 1.0
C      1  0.5387970000000  0.4922420000000  0.5152100000000 1.0
C      1  0.4875260000000  0.4631420000000  0.4785200000000 1.0
C      1  0.5078710000000  0.5409840000000  0.5217790000000 1.0
C      1  0.4800710000000  0.5071150000000  0.5441670000000 1.0
C      1  0.5013940000000  0.5006540000000  0.4502340000000 1.0
C      1  0.4773450000000  0.5500620000000  0.5286620000000 1.0
C      1  0.5163270000000  0.4579930000000  0.4657810000000 1.0
C      1  0.5137260000000  0.4514980000000  0.5245150000000 1.0
C      1  0.4884610000000  0.5447720000000  0.4687530000000 1.0
C      1  0.4799590000000  0.4908580000000  0.4671930000000 1.0
C      1  0.5053110000000  0.5114970000000  0.5318670000000 1.0
C      1  0.4479270000000  0.4941440000000  0.5052120000000 1.0
C      1  0.5542420000000  0.5084120000000  0.4955380000000 1.0
C      1  0.5017500000000  0.5293500000000  0.4453260000000 1.0
C      1  0.5224630000000  0.4587280000000  0.5491330000000 1.0
C      1  0.4625440000000  0.5286950000000  0.5429260000000 1.0
C      1  0.5273480000000  0.4828190000000  0.4544810000000 1.0
C      1  0.5436410000000  0.4968320000000  0.4730120000000 1.0
C      1  0.4554940000000  0.5023400000000  0.5323780000000 1.0
C      1  0.4610310000000  0.5366450000000  0.4800760000000 1.0
C      1  0.5415020000000  0.4623980000000  0.5130540000000 1.0
C      1  0.5557350000000  0.5387380000000  0.5051570000000 1.0
C      1  0.4487790000000  0.4680880000000  0.4942020000000 1.0
C      1  0.5011900000000  0.5446020000000  0.4933310000000 1.0
C      1  0.4951540000000  0.4681420000000  0.5071260000000 1.0
C      1  0.5091770000000  0.4932930000000  0.5102660000000 1.0
END
