TITL C-2441157-2117-1448 0.005185946864888 125000 -4907.44970566907 0 0 36 (C1) n - 1
REM
REM in /home/bkarasulu/work/CARBON/AIRSS/Generating-Clusters/ReaxFF-fromJPCA2015/Units_Real/with-SteepDescent/Higher-Symm
REM
REM
REM
REM
REM
REM ./C.cell (1df0a924f5614ab8850e4351716899ee)
REM
REM compiler GCC version 9.2.1 20190827 (Red Hat 9.2.1-1)
REM options -cpp -mtune=generic -march=x86-64 -g -O0 -fpre-include=/usr/include/finclude/math-vector-fortran.h
REM seed 166527535 774938215 568077671 82608339 77345150 -1371619030 -1620044017 1877120491 -1107272481 1376006074 -2105154932 1100798386 -614217696 1992955096 -1450724807 936671241 930447562 -567360635 -1625084418 1657546642 -905039565 -1072217630 -1151759839 -1506044587 -809200868 1657419024 -177411015 2865662 601077084 -1494228115 -2069332337 -729527201 906921156
REM
CELL 1.54180   50.00000   50.00000   50.00000   90.00000   90.00000   90.00000
LATT -1
SFAC C  
C      1  0.5308350000000  0.4911770000000  0.4441470000000 1.0
C      1  0.5331830000000  0.4906260000000  0.5556410000000 1.0
C      1  0.4364180000000  0.4900620000000  0.5012960000000 1.0
C      1  0.4963770000000  0.4557940000000  0.5540510000000 1.0
C      1  0.4556530000000  0.4555750000000  0.4708070000000 1.0
C      1  0.5481500000000  0.4562160000000  0.4765320000000 1.0
C      1  0.4786160000000  0.4819490000000  0.5130270000000 1.0
C      1  0.5002550000000  0.4815340000000  0.4717500000000 1.0
C      1  0.5205900000000  0.4828960000000  0.5140300000000 1.0
C      1  0.4403990000000  0.5007390000000  0.5297280000000 1.0
C      1  0.5030920000000  0.5019640000000  0.4344860000000 1.0
C      1  0.5556920000000  0.5005160000000  0.5371900000000 1.0
C      1  0.5532570000000  0.5248740000000  0.5235180000000 1.0
C      1  0.4537370000000  0.5250840000000  0.5340700000000 1.0
C      1  0.4959110000000  0.5274310000000  0.4435670000000 1.0
C      1  0.5344350000000  0.5363580000000  0.5068830000000 1.0
C      1  0.4767480000000  0.5344190000000  0.5222530000000 1.0
C      1  0.4917720000000  0.5368370000000  0.4680550000000 1.0
C      1  0.4546700000000  0.4820040000000  0.4562440000000 1.0
C      1  0.5600170000000  0.4827270000000  0.4835730000000 1.0
C      1  0.4845120000000  0.4825060000000  0.5611140000000 1.0
C      1  0.4561020000000  0.4679400000000  0.4984770000000 1.0
C      1  0.5241170000000  0.4677630000000  0.4615300000000 1.0
C      1  0.5204830000000  0.4684370000000  0.5404680000000 1.0
C      1  0.5080420000000  0.5019050000000  0.5661800000000 1.0
C      1  0.4387450000000  0.5013470000000  0.4740530000000 1.0
C      1  0.5531440000000  0.5017720000000  0.4604630000000 1.0
C      1  0.5501660000000  0.4850630000000  0.5122990000000 1.0
C      1  0.4643960000000  0.4852680000000  0.5386700000000 1.0
C      1  0.4836450000000  0.4835690000000  0.4482120000000 1.0
C      1  0.4894990000000  0.5603050000000  0.5124690000000 1.0
C      1  0.4953470000000  0.5616190000000  0.4839210000000 1.0
C      1  0.5167460000000  0.5611830000000  0.5036470000000 1.0
C      1  0.4777450000000  0.5103070000000  0.5047790000000 1.0
C      1  0.4988040000000  0.5107460000000  0.4859830000000 1.0
C      1  0.5187010000000  0.5114890000000  0.5068860000000 1.0
END
