TITL C-2441162-9305-515 0.00408841795492336 125000 -7807.97501190948 0 0 54 (C1) n - 1
REM
REM in /home/bkarasulu/work/CARBON/AIRSS/Generating-Clusters/ReaxFF-fromJPCA2015/Units_Real/with-SteepDescent/Higher-Symm
REM
REM
REM
REM
REM
REM ./C.cell (1df0a924f5614ab8850e4351716899ee)
REM
REM compiler GCC version 9.2.1 20190827 (Red Hat 9.2.1-1)
REM options -cpp -mtune=generic -march=x86-64 -g -O0 -fpre-include=/usr/include/finclude/math-vector-fortran.h
REM seed 273831130 1435389109 -805712800 -1638564510 1082718406 -1527893926 1017644133 1985731905 1211789897 1305927435 -882123049 660116308 -1511317408 210596537 1899991597 815947253 -1245252268 519493806 1506539869 1126309559 -1884787456 981039384 -183119488 -471953505 -1702644672 -2075082226 -1311779238 -772744632 1985210003 -864271847 167521820 691094619 692291524
REM
CELL 1.54180   50.00000   50.00000   50.00000   90.00000   90.00000   90.00000
LATT -1
SFAC C  
C      1  0.4850520000000  0.5609290000000  0.5121290000000 1.0
C      1  0.4595750000000  0.5500250000000  0.5137660000000 1.0
C      1  0.4335530000000  0.4994340000000  0.5143790000000 1.0
C      1  0.4413730000000  0.4728140000000  0.5118680000000 1.0
C      1  0.4945200000000  0.4403970000000  0.5126800000000 1.0
C      1  0.5251110000000  0.4370160000000  0.5158310000000 1.0
C      1  0.5469820000000  0.4628970000000  0.5119070000000 1.0
C      1  0.5635830000000  0.5274580000000  0.5115150000000 1.0
C      1  0.5484490000000  0.5526400000000  0.5134870000000 1.0
C      1  0.5561410000000  0.4942900000000  0.5505720000000 1.0
C      1  0.5475400000000  0.5329310000000  0.5549550000000 1.0
C      1  0.5158850000000  0.5568260000000  0.5525240000000 1.0
C      1  0.4763950000000  0.5520470000000  0.5558080000000 1.0
C      1  0.4481110000000  0.5242940000000  0.5545610000000 1.0
C      1  0.4439950000000  0.4849100000000  0.5560520000000 1.0
C      1  0.4659280000000  0.4521400000000  0.5519950000000 1.0
C      1  0.5042000000000  0.4410980000000  0.5573840000000 1.0
C      1  0.5396380000000  0.4577690000000  0.5566810000000 1.0
C      1  0.4461900000000  0.4638980000000  0.5415920000000 1.0
C      1  0.4838970000000  0.4376570000000  0.5414040000000 1.0
C      1  0.5270980000000  0.4381260000000  0.5472910000000 1.0
C      1  0.5553250000000  0.4709180000000  0.5408150000000 1.0
C      1  0.5617930000000  0.5168120000000  0.5418790000000 1.0
C      1  0.5396330000000  0.5544270000000  0.5430080000000 1.0
C      1  0.4942220000000  0.5639230000000  0.5420000000000 1.0
C      1  0.4544110000000  0.5465920000000  0.5430120000000 1.0
C      1  0.4339190000000  0.5054740000000  0.5437310000000 1.0
C      1  0.4953450000000  0.5646550000000  0.4592960000000 1.0
C      1  0.4594870000000  0.5452090000000  0.4639850000000 1.0
C      1  0.4406890000000  0.5076020000000  0.4653230000000 1.0
C      1  0.4504380000000  0.4633270000000  0.4597690000000 1.0
C      1  0.4836500000000  0.4400650000000  0.4610460000000 1.0
C      1  0.5249980000000  0.4423100000000  0.4632050000000 1.0
C      1  0.5598840000000  0.4768660000000  0.4608390000000 1.0
C      1  0.5652420000000  0.5067340000000  0.4601880000000 1.0
C      1  0.5336690000000  0.5508670000000  0.4620900000000 1.0
C      1  0.4995120000000  0.5451230000000  0.4382950000000 1.0
C      1  0.4719850000000  0.5332180000000  0.4421290000000 1.0
C      1  0.4572110000000  0.5051770000000  0.4432310000000 1.0
C      1  0.4631130000000  0.4763460000000  0.4378650000000 1.0
C      1  0.4863900000000  0.4582430000000  0.4388530000000 1.0
C      1  0.5163940000000  0.4594810000000  0.4422710000000 1.0
C      1  0.5376720000000  0.4805660000000  0.4409260000000 1.0
C      1  0.5419480000000  0.5090560000000  0.4402440000000 1.0
C      1  0.5272180000000  0.5345710000000  0.4399430000000 1.0
C      1  0.4865410000000  0.4398210000000  0.4874570000000 1.0
C      1  0.5328690000000  0.4334100000000  0.4877550000000 1.0
C      1  0.5534980000000  0.4698530000000  0.4876510000000 1.0
C      1  0.5645800000000  0.5169550000000  0.4861180000000 1.0
C      1  0.5398020000000  0.5539240000000  0.4879210000000 1.0
C      1  0.4926950000000  0.5645960000000  0.4858820000000 1.0
C      1  0.4454810000000  0.5427370000000  0.4889560000000 1.0
C      1  0.4310220000000  0.5159040000000  0.4903830000000 1.0
C      1  0.4461480000000  0.4656410000000  0.4855510000000 1.0
END
