TITL C-2441156-4686-1004 0.0725267782110495 125000 -23096.786990995 0 0 168 (C1) n - 1
REM
REM in /home/bkarasulu/work/CARBON/AIRSS/Generating-Clusters/ReaxFF-fromJPCA2015/Units_Real/with-SteepDescent/Higher-Symm
REM
REM
REM
REM
REM
REM ./C.cell (1df0a924f5614ab8850e4351716899ee)
REM
REM compiler GCC version 9.2.1 20190827 (Red Hat 9.2.1-1)
REM options -cpp -mtune=generic -march=x86-64 -g -O0 -fpre-include=/usr/include/finclude/math-vector-fortran.h
REM seed 1027323629 482801153 1786596913 954375679 108025988 -1119016727 1634089149 -1190851367 -245405555 -294440392 -1042910774 485173440 -784022568 -897808129 2136817050 -4774159 447069455 -568885557 -2128121252 -1689865814 2079628261 -1677880446 899833187 -289982505 1113372540 -1645337916 -195999581 -688132247 -302880807 950359726 334573693 -1135851115 -1517428759
REM
CELL 1.54180   50.00000   50.00000   50.00000   90.00000   90.00000   90.00000
LATT -1
SFAC C  
C      1  0.4933700000000  0.4658700000000  0.5498720000000 1.0
C      1  0.4726690000000  0.4856810000000  0.5432360000000 1.0
C      1  0.4791040000000  0.5189530000000  0.5447550000000 1.0
C      1  0.5044550000000  0.5292390000000  0.5592210000000 1.0
C      1  0.5317070000000  0.5120480000000  0.5442040000000 1.0
C      1  0.5283780000000  0.4834510000000  0.5387310000000 1.0
C      1  0.5348580000000  0.5589020000000  0.5789250000000 1.0
C      1  0.5698630000000  0.5027880000000  0.5768450000000 1.0
C      1  0.5307570000000  0.4458390000000  0.5770120000000 1.0
C      1  0.4628570000000  0.4406760000000  0.5743040000000 1.0
C      1  0.4355190000000  0.4953980000000  0.5781500000000 1.0
C      1  0.4617470000000  0.5546100000000  0.5780400000000 1.0
C      1  0.4565990000000  0.5413100000000  0.5523510000000 1.0
C      1  0.5138540000000  0.5581140000000  0.5532500000000 1.0
C      1  0.5597860000000  0.5164870000000  0.5522850000000 1.0
C      1  0.5429280000000  0.4606040000000  0.5513070000000 1.0
C      1  0.4832210000000  0.4388830000000  0.5529530000000 1.0
C      1  0.4430520000000  0.4839360000000  0.5474560000000 1.0
C      1  0.5668280000000  0.4330720000000  0.5011490000000 1.0
C      1  0.4820320000000  0.3974900000000  0.5215850000000 1.0
C      1  0.3973420000000  0.4647320000000  0.5108930000000 1.0
C      1  0.4323710000000  0.5721240000000  0.4994800000000 1.0
C      1  0.5161850000000  0.5986050000000  0.5224570000000 1.0
C      1  0.5948100000000  0.5203000000000  0.4975280000000 1.0
C      1  0.4175540000000  0.5469630000000  0.5054140000000 1.0
C      1  0.4938800000000  0.5943970000000  0.5044270000000 1.0
C      1  0.5829040000000  0.5458160000000  0.5065740000000 1.0
C      1  0.5801910000000  0.4573420000000  0.5114970000000 1.0
C      1  0.5058020000000  0.4016960000000  0.5031310000000 1.0
C      1  0.4203030000000  0.4464830000000  0.5068300000000 1.0
C      1  0.5340760000000  0.4631480000000  0.6007970000000 1.0
C      1  0.4947500000000  0.4581760000000  0.5932710000000 1.0
C      1  0.4530500000000  0.4824890000000  0.5994540000000 1.0
C      1  0.4704060000000  0.5330040000000  0.5958130000000 1.0
C      1  0.5157080000000  0.5451200000000  0.6017650000000 1.0
C      1  0.5498910000000  0.5110550000000  0.5962810000000 1.0
C      1  0.4911430000000  0.5740210000000  0.4258540000000 1.0
C      1  0.5546940000000  0.5428660000000  0.4086070000000 1.0
C      1  0.5707840000000  0.4734950000000  0.4266840000000 1.0
C      1  0.5093420000000  0.4309820000000  0.4278380000000 1.0
C      1  0.4392330000000  0.4646950000000  0.4207720000000 1.0
C      1  0.4368980000000  0.5289020000000  0.4172100000000 1.0
C      1  0.5175980000000  0.5168430000000  0.4762270000000 1.0
C      1  0.5221440000000  0.4872840000000  0.4753850000000 1.0
C      1  0.5023920000000  0.4686110000000  0.4758550000000 1.0
C      1  0.4778390000000  0.4790430000000  0.4655740000000 1.0
C      1  0.4712600000000  0.5089660000000  0.4735590000000 1.0
C      1  0.4909400000000  0.5284680000000  0.4649600000000 1.0
C      1  0.5465740000000  0.4728310000000  0.4736320000000 1.0
C      1  0.5094140000000  0.4410150000000  0.4745450000000 1.0
C      1  0.4511600000000  0.4688410000000  0.4696700000000 1.0
C      1  0.4477550000000  0.5266770000000  0.4686590000000 1.0
C      1  0.4889660000000  0.5571190000000  0.4717090000000 1.0
C      1  0.5421760000000  0.5312320000000  0.4676760000000 1.0
C      1  0.4600050000000  0.4350180000000  0.5004440000000 1.0
C      1  0.4274980000000  0.5036640000000  0.5010390000000 1.0
C      1  0.4586310000000  0.5634070000000  0.5087880000000 1.0
C      1  0.5445000000000  0.5645490000000  0.5022480000000 1.0
C      1  0.5732320000000  0.5021500000000  0.5055290000000 1.0
C      1  0.5401380000000  0.4374550000000  0.5095670000000 1.0
C      1  0.4595250000000  0.4433040000000  0.4217850000000 1.0
C      1  0.4258640000000  0.5053080000000  0.4252970000000 1.0
C      1  0.4653370000000  0.5623770000000  0.4228020000000 1.0
C      1  0.5397300000000  0.5630640000000  0.4193550000000 1.0
C      1  0.5706370000000  0.5024460000000  0.4264090000000 1.0
C      1  0.5359130000000  0.4414730000000  0.4297810000000 1.0
C      1  0.6041480000000  0.4697210000000  0.4949700000000 1.0
C      1  0.5266600000000  0.3869950000000  0.4917470000000 1.0
C      1  0.4210470000000  0.4190600000000  0.5212570000000 1.0
C      1  0.3929820000000  0.5318170000000  0.4969020000000 1.0
C      1  0.4719580000000  0.6128370000000  0.4927770000000 1.0
C      1  0.5889470000000  0.5731850000000  0.5048450000000 1.0
C      1  0.5079580000000  0.4189030000000  0.4548170000000 1.0
C      1  0.4306710000000  0.4332680000000  0.4632730000000 1.0
C      1  0.4210060000000  0.5276090000000  0.4549030000000 1.0
C      1  0.4919940000000  0.5812800000000  0.4555780000000 1.0
C      1  0.5702670000000  0.5623750000000  0.4605620000000 1.0
C      1  0.5850000000000  0.4638910000000  0.4510250000000 1.0
C      1  0.4389950000000  0.5292870000000  0.4961790000000 1.0
C      1  0.4852460000000  0.5668890000000  0.4977020000000 1.0
C      1  0.5513550000000  0.5369760000000  0.4992150000000 1.0
C      1  0.5633820000000  0.4766970000000  0.4966840000000 1.0
C      1  0.5144230000000  0.4302240000000  0.4997250000000 1.0
C      1  0.4452880000000  0.4587170000000  0.4959460000000 1.0
C      1  0.4241880000000  0.4605480000000  0.5514120000000 1.0
C      1  0.4246570000000  0.5395720000000  0.5559870000000 1.0
C      1  0.4988930000000  0.5820110000000  0.5609590000000 1.0
C      1  0.5748990000000  0.5460220000000  0.5554420000000 1.0
C      1  0.5768030000000  0.4594410000000  0.5475080000000 1.0
C      1  0.4995460000000  0.4144180000000  0.5620590000000 1.0
C      1  0.5329830000000  0.5244420000000  0.5184010000000 1.0
C      1  0.5061160000000  0.4721410000000  0.5245680000000 1.0
C      1  0.4799580000000  0.4811290000000  0.5145640000000 1.0
C      1  0.4713380000000  0.5044100000000  0.5012620000000 1.0
C      1  0.4850150000000  0.5240740000000  0.5164280000000 1.0
C      1  0.5102560000000  0.5247330000000  0.5040800000000 1.0
C      1  0.5630200000000  0.5788900000000  0.4846480000000 1.0
C      1  0.5986440000000  0.4837110000000  0.4701940000000 1.0
C      1  0.5353350000000  0.4058090000000  0.4731350000000 1.0
C      1  0.4437780000000  0.4168260000000  0.4841800000000 1.0
C      1  0.4049380000000  0.5093910000000  0.4804590000000 1.0
C      1  0.4645830000000  0.5934130000000  0.4718920000000 1.0
C      1  0.4687120000000  0.4588540000000  0.5947540000000 1.0
C      1  0.4572490000000  0.5078990000000  0.5915070000000 1.0
C      1  0.4975500000000  0.5313000000000  0.5877610000000 1.0
C      1  0.5410550000000  0.5376880000000  0.5970210000000 1.0
C      1  0.5316460000000  0.4896890000000  0.5923360000000 1.0
C      1  0.5097720000000  0.4774870000000  0.6020510000000 1.0
C      1  0.5238020000000  0.5850500000000  0.4614000000000 1.0
C      1  0.5839710000000  0.5364260000000  0.4565090000000 1.0
C      1  0.5733580000000  0.4375970000000  0.4579690000000 1.0
C      1  0.4767340000000  0.4112000000000  0.4564660000000 1.0
C      1  0.4122810000000  0.4572350000000  0.4648440000000 1.0
C      1  0.4258980000000  0.5576580000000  0.4544040000000 1.0
C      1  0.5283940000000  0.5054930000000  0.4281810000000 1.0
C      1  0.5166640000000  0.4792960000000  0.4320080000000 1.0
C      1  0.4886520000000  0.4790580000000  0.4392690000000 1.0
C      1  0.4757670000000  0.5006790000000  0.4279400000000 1.0
C      1  0.4868190000000  0.5240280000000  0.4383210000000 1.0
C      1  0.5119630000000  0.5277230000000  0.4284560000000 1.0
C      1  0.4845030000000  0.3909270000000  0.5505110000000 1.0
C      1  0.3997440000000  0.4713760000000  0.5399340000000 1.0
C      1  0.4219270000000  0.5685640000000  0.5581470000000 1.0
C      1  0.5193670000000  0.6015780000000  0.5519050000000 1.0
C      1  0.6001690000000  0.5322290000000  0.5561880000000 1.0
C      1  0.5764680000000  0.4314060000000  0.5572040000000 1.0
C      1  0.5324510000000  0.5071150000000  0.3995620000000 1.0
C      1  0.5239740000000  0.4760400000000  0.4000540000000 1.0
C      1  0.4944290000000  0.4696540000000  0.3980730000000 1.0
C      1  0.4728100000000  0.4949190000000  0.3983160000000 1.0
C      1  0.4800150000000  0.5237320000000  0.3926260000000 1.0
C      1  0.5074000000000  0.5330280000000  0.3987990000000 1.0
C      1  0.5874390000000  0.4821080000000  0.5665870000000 1.0
C      1  0.5268280000000  0.4171060000000  0.5727880000000 1.0
C      1  0.4363690000000  0.4364910000000  0.5623590000000 1.0
C      1  0.4136880000000  0.5149110000000  0.5673550000000 1.0
C      1  0.4710630000000  0.5813450000000  0.5720700000000 1.0
C      1  0.5600870000000  0.5690690000000  0.5658250000000 1.0
C      1  0.4679750000000  0.4236920000000  0.5264850000000 1.0
C      1  0.4266560000000  0.5024340000000  0.5299260000000 1.0
C      1  0.4605460000000  0.5644420000000  0.5367050000000 1.0
C      1  0.5324430000000  0.5734030000000  0.5257110000000 1.0
C      1  0.5760290000000  0.5026180000000  0.5334630000000 1.0
C      1  0.5360840000000  0.4353760000000  0.5374550000000 1.0
C      1  0.4878760000000  0.4456300000000  0.4124970000000 1.0
C      1  0.4413090000000  0.4891770000000  0.4063980000000 1.0
C      1  0.4586120000000  0.5405480000000  0.4029460000000 1.0
C      1  0.5119830000000  0.5626370000000  0.4089420000000 1.0
C      1  0.5611830000000  0.5165580000000  0.4020460000000 1.0
C      1  0.5482540000000  0.4605040000000  0.4121380000000 1.0
C      1  0.5393160000000  0.6023720000000  0.4758520000000 1.0
C      1  0.6004070000000  0.5152440000000  0.4697060000000 1.0
C      1  0.5625030000000  0.4182500000000  0.4773010000000 1.0
C      1  0.4633350000000  0.3972580000000  0.4756990000000 1.0
C      1  0.4005690000000  0.4766320000000  0.4844790000000 1.0
C      1  0.4363930000000  0.5818480000000  0.4725210000000 1.0
C      1  0.5629950000000  0.5165020000000  0.4519290000000 1.0
C      1  0.5469370000000  0.4499960000000  0.4561630000000 1.0
C      1  0.4543040000000  0.4291790000000  0.4462620000000 1.0
C      1  0.4311360000000  0.4733850000000  0.4490870000000 1.0
C      1  0.4536320000000  0.5556850000000  0.4485810000000 1.0
C      1  0.5422360000000  0.5617660000000  0.4513960000000 1.0
C      1  0.4478190000000  0.5845750000000  0.5535510000000 1.0
C      1  0.5459010000000  0.5878430000000  0.5490650000000 1.0
C      1  0.6007390000000  0.5019410000000  0.5492420000000 1.0
C      1  0.5505410000000  0.4162150000000  0.5543410000000 1.0
C      1  0.4411770000000  0.4162140000000  0.5417260000000 1.0
C      1  0.4016800000000  0.5005030000000  0.5448960000000 1.0
END
