TITL C-2441163-1170-602 0.0263203638959852 125000 -12859.8324265014 0 0 93 (C1) n - 1
REM
REM in /home/bkarasulu/work/CARBON/AIRSS/Generating-Clusters/ReaxFF-fromJPCA2015/Units_Real/with-SteepDescent/Higher-Symm
REM
REM
REM
REM
REM
REM ./C.cell (1df0a924f5614ab8850e4351716899ee)
REM
REM compiler GCC version 9.2.1 20190827 (Red Hat 9.2.1-1)
REM options -cpp -mtune=generic -march=x86-64 -g -O0 -fpre-include=/usr/include/finclude/math-vector-fortran.h
REM seed -860369793 1971812438 52927933 -526822567 -1041948094 1617032209 783628483 1952987732 -318934817 1648616289 503491526 -1627178818 1341675451 -1118043190 1633827508 1363049327 982676887 955872407 -1327702860 1351078740 -1087837154 1722226629 2091698677 -1587391269 360932856 -1205158783 405426770 866438244 -823467994 -2006744058 -1874563489 345057354 -637139006
REM
CELL 1.54180   50.00000   50.00000   50.00000   90.00000   90.00000   90.00000
LATT -1
SFAC C  
C      1  0.4603910000000  0.4737430000000  0.5057590000000 1.0
C      1  0.4585070000000  0.5280880000000  0.5125450000000 1.0
C      1  0.5200300000000  0.4197450000000  0.5207600000000 1.0
C      1  0.5215840000000  0.5745560000000  0.5186420000000 1.0
C      1  0.4185640000000  0.5510710000000  0.5022670000000 1.0
C      1  0.4199490000000  0.4435030000000  0.5010060000000 1.0
C      1  0.4169460000000  0.5308580000000  0.4585170000000 1.0
C      1  0.4191300000000  0.4759220000000  0.4594670000000 1.0
C      1  0.4777600000000  0.5663800000000  0.5372550000000 1.0
C      1  0.4754240000000  0.4354260000000  0.5367480000000 1.0
C      1  0.5289160000000  0.4711880000000  0.5086840000000 1.0
C      1  0.5252380000000  0.5362760000000  0.4962240000000 1.0
C      1  0.5136920000000  0.4552610000000  0.4511940000000 1.0
C      1  0.5119840000000  0.5419910000000  0.4475910000000 1.0
C      1  0.4273810000000  0.5537300000000  0.4744140000000 1.0
C      1  0.4249830000000  0.4498120000000  0.4733330000000 1.0
C      1  0.5529870000000  0.4748290000000  0.4410700000000 1.0
C      1  0.5534450000000  0.5255120000000  0.4373780000000 1.0
C      1  0.4943890000000  0.4378270000000  0.4920830000000 1.0
C      1  0.4748030000000  0.5779890000000  0.4887290000000 1.0
C      1  0.5049890000000  0.5507130000000  0.5083560000000 1.0
C      1  0.5042640000000  0.4583890000000  0.5104260000000 1.0
C      1  0.4525140000000  0.4499710000000  0.4637600000000 1.0
C      1  0.4561060000000  0.5609290000000  0.4739870000000 1.0
C      1  0.5295590000000  0.5504670000000  0.4698910000000 1.0
C      1  0.5301940000000  0.4386620000000  0.4701310000000 1.0
C      1  0.5353170000000  0.4364500000000  0.5399880000000 1.0
C      1  0.5356220000000  0.5603930000000  0.5414470000000 1.0
C      1  0.4829040000000  0.5825810000000  0.5151340000000 1.0
C      1  0.4904960000000  0.4211190000000  0.5158310000000 1.0
C      1  0.4867270000000  0.5268190000000  0.4498420000000 1.0
C      1  0.5012500000000  0.4762560000000  0.4675180000000 1.0
C      1  0.4960730000000  0.4562280000000  0.5369210000000 1.0
C      1  0.4968150000000  0.5445460000000  0.5349610000000 1.0
C      1  0.4538070000000  0.4732410000000  0.5617360000000 1.0
C      1  0.4525520000000  0.5255330000000  0.5633210000000 1.0
C      1  0.5072380000000  0.5259410000000  0.5777370000000 1.0
C      1  0.5085550000000  0.4730840000000  0.5769510000000 1.0
C      1  0.5364700000000  0.4287370000000  0.4980900000000 1.0
C      1  0.5458550000000  0.5700920000000  0.5034510000000 1.0
C      1  0.4794000000000  0.5208720000000  0.5713520000000 1.0
C      1  0.4813990000000  0.4786210000000  0.5682140000000 1.0
C      1  0.5778120000000  0.5388830000000  0.4756150000000 1.0
C      1  0.5710460000000  0.4650600000000  0.4817920000000 1.0
C      1  0.4466650000000  0.4714950000000  0.4448820000000 1.0
C      1  0.4439870000000  0.5224140000000  0.4519330000000 1.0
C      1  0.4629460000000  0.4763960000000  0.4221710000000 1.0
C      1  0.4642440000000  0.5254620000000  0.4315570000000 1.0
C      1  0.5560650000000  0.5467050000000  0.4583180000000 1.0
C      1  0.5549890000000  0.4523380000000  0.4608600000000 1.0
C      1  0.5523180000000  0.4463430000000  0.5168740000000 1.0
C      1  0.5520710000000  0.5455680000000  0.5177530000000 1.0
C      1  0.4334970000000  0.5209170000000  0.5017200000000 1.0
C      1  0.4312620000000  0.4705520000000  0.5087060000000 1.0
C      1  0.5798540000000  0.5445920000000  0.5040950000000 1.0
C      1  0.5806980000000  0.4557670000000  0.5071230000000 1.0
C      1  0.4276460000000  0.4491430000000  0.5269280000000 1.0
C      1  0.4284200000000  0.5579510000000  0.5266500000000 1.0
C      1  0.5168630000000  0.5449510000000  0.5568680000000 1.0
C      1  0.5183490000000  0.4546320000000  0.5562380000000 1.0
C      1  0.5260740000000  0.5256130000000  0.4281820000000 1.0
C      1  0.5264390000000  0.4720690000000  0.4295900000000 1.0
C      1  0.5959430000000  0.4795490000000  0.5132550000000 1.0
C      1  0.5961170000000  0.5221630000000  0.5136730000000 1.0
C      1  0.4523310000000  0.5468410000000  0.5397810000000 1.0
C      1  0.4514240000000  0.4512520000000  0.5429050000000 1.0
C      1  0.4736490000000  0.4592110000000  0.4837110000000 1.0
C      1  0.4744020000000  0.5464400000000  0.4919240000000 1.0
C      1  0.4879980000000  0.5057640000000  0.4934850000000 1.0
C      1  0.4925530000000  0.4886440000000  0.4091810000000 1.0
C      1  0.4196510000000  0.5004740000000  0.5401130000000 1.0
C      1  0.5814280000000  0.5092630000000  0.4700340000000 1.0
C      1  0.4381060000000  0.4997210000000  0.5613470000000 1.0
C      1  0.4151810000000  0.4993580000000  0.5133060000000 1.0
C      1  0.5274250000000  0.4891700000000  0.4852360000000 1.0
C      1  0.5207320000000  0.4998140000000  0.5838130000000 1.0
C      1  0.5576580000000  0.4995300000000  0.5173880000000 1.0
C      1  0.4854760000000  0.5013060000000  0.4652850000000 1.0
C      1  0.5471440000000  0.5011170000000  0.5752700000000 1.0
C      1  0.4424200000000  0.5056350000000  0.4768450000000 1.0
C      1  0.5111910000000  0.5068330000000  0.5330780000000 1.0
C      1  0.5136750000000  0.5100450000000  0.5008090000000 1.0
C      1  0.5674220000000  0.5020060000000  0.5608240000000 1.0
C      1  0.5569870000000  0.4924350000000  0.4888080000000 1.0
C      1  0.5823890000000  0.5020830000000  0.5339020000000 1.0
C      1  0.5996790000000  0.5011740000000  0.4942150000000 1.0
C      1  0.5172430000000  0.4982940000000  0.4186180000000 1.0
C      1  0.4702960000000  0.4998900000000  0.5155580000000 1.0
C      1  0.4138730000000  0.5019570000000  0.4721410000000 1.0
C      1  0.5344950000000  0.4906270000000  0.5312430000000 1.0
C      1  0.4860590000000  0.5003740000000  0.5471960000000 1.0
C      1  0.4673070000000  0.5025050000000  0.4116700000000 1.0
C      1  0.5660770000000  0.5006090000000  0.4453070000000 1.0
END
