TITL C-2441156-4686-393 0.125767874941717 125000 -21879.2776728968 0 0 173 (C1) n - 1
REM
REM in /home/bkarasulu/work/CARBON/AIRSS/Generating-Clusters/ReaxFF-fromJPCA2015/Units_Real/with-SteepDescent/Higher-Symm
REM
REM
REM
REM
REM
REM ./C.cell (1df0a924f5614ab8850e4351716899ee)
REM
REM compiler GCC version 9.2.1 20190827 (Red Hat 9.2.1-1)
REM options -cpp -mtune=generic -march=x86-64 -g -O0 -fpre-include=/usr/include/finclude/math-vector-fortran.h
REM seed 1634420804 1172585573 -329065840 178508691 -884433144 -1097521857 -1828799805 -1314870851 -1287614692 -1489709289 -992687729 29054474 747620562 -536825349 -418662264 -208032058 736906583 721530653 1031351851 1187329189 480344478 -1748638721 832111548 -1837915497 1586937342 1617911290 2079457692 424620285 1311759152 -1166254867 643547753 -90020489 1606576838
REM
CELL 1.54180   50.00000   50.00000   50.00000   90.00000   90.00000   90.00000
LATT -1
SFAC C  
C      1  0.4813280000000  0.4981240000000  0.4228020000000 1.0
C      1  0.4393980000000  0.5073110000000  0.4556070000000 1.0
C      1  0.4237190000000  0.4974100000000  0.5051970000000 1.0
C      1  0.4451330000000  0.5015770000000  0.5519830000000 1.0
C      1  0.4910820000000  0.5072950000000  0.5772800000000 1.0
C      1  0.5438580000000  0.4976240000000  0.5630360000000 1.0
C      1  0.5725630000000  0.4990820000000  0.5209110000000 1.0
C      1  0.5726410000000  0.5006380000000  0.4674270000000 1.0
C      1  0.5358850000000  0.5066260000000  0.4295140000000 1.0
C      1  0.4835050000000  0.5359880000000  0.5857070000000 1.0
C      1  0.5576370000000  0.5404110000000  0.5703720000000 1.0
C      1  0.5854650000000  0.5402670000000  0.5219310000000 1.0
C      1  0.5826990000000  0.5396980000000  0.4650800000000 1.0
C      1  0.5467060000000  0.5365160000000  0.4257800000000 1.0
C      1  0.4743620000000  0.5411100000000  0.4104230000000 1.0
C      1  0.4317700000000  0.5351780000000  0.4419750000000 1.0
C      1  0.4088990000000  0.5409190000000  0.5149540000000 1.0
C      1  0.4350780000000  0.5401830000000  0.5627360000000 1.0
C      1  0.4161590000000  0.4536510000000  0.5224020000000 1.0
C      1  0.4534320000000  0.4577440000000  0.5720890000000 1.0
C      1  0.5108880000000  0.4584720000000  0.5833650000000 1.0
C      1  0.5620110000000  0.4566350000000  0.5592300000000 1.0
C      1  0.5881250000000  0.4581290000000  0.5045010000000 1.0
C      1  0.5682230000000  0.4589440000000  0.4492870000000 1.0
C      1  0.5184620000000  0.4609640000000  0.4141590000000 1.0
C      1  0.4615980000000  0.4553900000000  0.4205800000000 1.0
C      1  0.4217270000000  0.4596150000000  0.4668150000000 1.0
C      1  0.5242580000000  0.5724160000000  0.4755810000000 1.0
C      1  0.5011110000000  0.5832160000000  0.4661400000000 1.0
C      1  0.4797180000000  0.5685240000000  0.4666990000000 1.0
C      1  0.4649350000000  0.5684300000000  0.4895220000000 1.0
C      1  0.4740750000000  0.5797740000000  0.5104860000000 1.0
C      1  0.4854740000000  0.5700510000000  0.5321570000000 1.0
C      1  0.5100150000000  0.5685160000000  0.5357700000000 1.0
C      1  0.5286550000000  0.5700630000000  0.5184360000000 1.0
C      1  0.5278210000000  0.5831260000000  0.4979110000000 1.0
C      1  0.5097500000000  0.4244580000000  0.4424100000000 1.0
C      1  0.4650990000000  0.4312510000000  0.4606840000000 1.0
C      1  0.4451070000000  0.4242490000000  0.4805060000000 1.0
C      1  0.4571970000000  0.4346730000000  0.5268310000000 1.0
C      1  0.4762410000000  0.4248450000000  0.5530780000000 1.0
C      1  0.5048880000000  0.4332040000000  0.5510070000000 1.0
C      1  0.5528540000000  0.4234320000000  0.5288890000000 1.0
C      1  0.5560010000000  0.4270140000000  0.5006440000000 1.0
C      1  0.5328080000000  0.4289700000000  0.4571270000000 1.0
C      1  0.4668360000000  0.5081100000000  0.5148550000000 1.0
C      1  0.4862670000000  0.4995500000000  0.5321130000000 1.0
C      1  0.5115730000000  0.5102790000000  0.5355410000000 1.0
C      1  0.5305690000000  0.4957790000000  0.5208270000000 1.0
C      1  0.5368210000000  0.5063850000000  0.4966560000000 1.0
C      1  0.5267480000000  0.4942640000000  0.4747410000000 1.0
C      1  0.5031870000000  0.5017410000000  0.4611790000000 1.0
C      1  0.4782730000000  0.5132200000000  0.4690640000000 1.0
C      1  0.4669670000000  0.4986470000000  0.4890090000000 1.0
C      1  0.4317960000000  0.4894580000000  0.5312720000000 1.0
C      1  0.4666680000000  0.4917740000000  0.5681450000000 1.0
C      1  0.5184610000000  0.4884120000000  0.5712670000000 1.0
C      1  0.5622750000000  0.4887580000000  0.5439930000000 1.0
C      1  0.5771310000000  0.4897730000000  0.4939450000000 1.0
C      1  0.5555590000000  0.4915460000000  0.4452160000000 1.0
C      1  0.5086770000000  0.4912070000000  0.4199470000000 1.0
C      1  0.4573250000000  0.4926530000000  0.4375280000000 1.0
C      1  0.4273420000000  0.4895660000000  0.4792240000000 1.0
C      1  0.4592740000000  0.5945690000000  0.4583350000000 1.0
C      1  0.4458390000000  0.5938810000000  0.4840880000000 1.0
C      1  0.4559270000000  0.5972430000000  0.5242490000000 1.0
C      1  0.4767700000000  0.5953910000000  0.5471620000000 1.0
C      1  0.5176660000000  0.5940690000000  0.5491190000000 1.0
C      1  0.5437780000000  0.5983730000000  0.5322680000000 1.0
C      1  0.5513670000000  0.5981160000000  0.4990890000000 1.0
C      1  0.5398730000000  0.5960060000000  0.4595450000000 1.0
C      1  0.5140020000000  0.5970690000000  0.4446400000000 1.0
C      1  0.4784270000000  0.4567910000000  0.4697080000000 1.0
C      1  0.4660260000000  0.4708250000000  0.4909840000000 1.0
C      1  0.4648420000000  0.4609210000000  0.5176910000000 1.0
C      1  0.4825030000000  0.4727760000000  0.5366830000000 1.0
C      1  0.5062460000000  0.4569930000000  0.5310310000000 1.0
C      1  0.5305700000000  0.4682210000000  0.5218740000000 1.0
C      1  0.5330260000000  0.4530750000000  0.4961510000000 1.0
C      1  0.5266520000000  0.4665250000000  0.4693880000000 1.0
C      1  0.5001070000000  0.4700550000000  0.4578330000000 1.0
C      1  0.4266280000000  0.4934080000000  0.5740650000000 1.0
C      1  0.4969710000000  0.4962870000000  0.6052900000000 1.0
C      1  0.5632620000000  0.4927380000000  0.5842790000000 1.0
C      1  0.6012660000000  0.4952840000000  0.5262020000000 1.0
C      1  0.5952230000000  0.4924370000000  0.4495530000000 1.0
C      1  0.5449470000000  0.4955060000000  0.4029790000000 1.0
C      1  0.4667750000000  0.4914240000000  0.3979150000000 1.0
C      1  0.4131260000000  0.4975180000000  0.4426180000000 1.0
C      1  0.3952060000000  0.4930540000000  0.5118520000000 1.0
C      1  0.5401720000000  0.4012150000000  0.4974200000000 1.0
C      1  0.5292160000000  0.4037180000000  0.4712560000000 1.0
C      1  0.5040050000000  0.4010260000000  0.4576800000000 1.0
C      1  0.4778740000000  0.4036220000000  0.4681160000000 1.0
C      1  0.4599480000000  0.4018050000000  0.4901450000000 1.0
C      1  0.4609650000000  0.4067970000000  0.5187500000000 1.0
C      1  0.4816310000000  0.4000040000000  0.5381000000000 1.0
C      1  0.5099080000000  0.4057840000000  0.5436900000000 1.0
C      1  0.5327850000000  0.4029240000000  0.5255380000000 1.0
C      1  0.4811490000000  0.5408010000000  0.5329190000000 1.0
C      1  0.5197550000000  0.5371680000000  0.5421530000000 1.0
C      1  0.5380570000000  0.5442500000000  0.5210840000000 1.0
C      1  0.5409860000000  0.5333850000000  0.4953540000000 1.0
C      1  0.5300440000000  0.5438990000000  0.4716240000000 1.0
C      1  0.5113250000000  0.5305680000000  0.4548160000000 1.0
C      1  0.4845500000000  0.5395850000000  0.4594490000000 1.0
C      1  0.4500910000000  0.5401040000000  0.4921030000000 1.0
C      1  0.4538850000000  0.5343100000000  0.5202370000000 1.0
C      1  0.5477970000000  0.5670140000000  0.5657810000000 1.0
C      1  0.5776170000000  0.5671770000000  0.5205840000000 1.0
C      1  0.5730030000000  0.5662320000000  0.4670420000000 1.0
C      1  0.5351270000000  0.5626120000000  0.4272390000000 1.0
C      1  0.4800390000000  0.5666980000000  0.4221780000000 1.0
C      1  0.4338970000000  0.5618730000000  0.4534170000000 1.0
C      1  0.4195770000000  0.5669240000000  0.5087060000000 1.0
C      1  0.4432600000000  0.5661290000000  0.5562690000000 1.0
C      1  0.4931000000000  0.5623980000000  0.5784900000000 1.0
C      1  0.4734090000000  0.4627310000000  0.3963670000000 1.0
C      1  0.4154730000000  0.4690130000000  0.4379740000000 1.0
C      1  0.3941740000000  0.4637540000000  0.5072310000000 1.0
C      1  0.4246900000000  0.4640970000000  0.5707940000000 1.0
C      1  0.4907250000000  0.4679980000000  0.6041850000000 1.0
C      1  0.5587650000000  0.4637360000000  0.5877580000000 1.0
C      1  0.6019670000000  0.4660340000000  0.5298930000000 1.0
C      1  0.5966850000000  0.4640340000000  0.4557280000000 1.0
C      1  0.5476610000000  0.4667160000000  0.4042280000000 1.0
C      1  0.4421970000000  0.5009020000000  0.4127160000000 1.0
C      1  0.4014510000000  0.5034640000000  0.4718110000000 1.0
C      1  0.4052460000000  0.5019510000000  0.5401340000000 1.0
C      1  0.4487990000000  0.5029550000000  0.5914950000000 1.0
C      1  0.5260520000000  0.5030040000000  0.5987780000000 1.0
C      1  0.5829130000000  0.5033870000000  0.5619560000000 1.0
C      1  0.6043820000000  0.5050660000000  0.4978320000000 1.0
C      1  0.5778520000000  0.5026810000000  0.4271400000000 1.0
C      1  0.5165030000000  0.5054590000000  0.3944860000000 1.0
C      1  0.4536490000000  0.4336450000000  0.4333640000000 1.0
C      1  0.4189680000000  0.4321650000000  0.4775540000000 1.0
C      1  0.4296270000000  0.4301380000000  0.5306700000000 1.0
C      1  0.4640420000000  0.4324010000000  0.5770610000000 1.0
C      1  0.5196960000000  0.4311110000000  0.5740620000000 1.0
C      1  0.5682930000000  0.4320070000000  0.5490670000000 1.0
C      1  0.5832750000000  0.4322860000000  0.4938440000000 1.0
C      1  0.5570220000000  0.4337320000000  0.4435460000000 1.0
C      1  0.5067990000000  0.4326340000000  0.4157480000000 1.0
C      1  0.4254260000000  0.5741860000000  0.4803720000000 1.0
C      1  0.4334720000000  0.5791530000000  0.5315400000000 1.0
C      1  0.4697090000000  0.5770000000000  0.5676920000000 1.0
C      1  0.5196720000000  0.5760330000000  0.5717120000000 1.0
C      1  0.5625620000000  0.5796180000000  0.5435800000000 1.0
C      1  0.5727530000000  0.5797260000000  0.4938110000000 1.0
C      1  0.5550950000000  0.5769540000000  0.4450470000000 1.0
C      1  0.5082370000000  0.5755840000000  0.4246230000000 1.0
C      1  0.4550060000000  0.5763140000000  0.4372010000000 1.0
C      1  0.5785300000000  0.5296710000000  0.5506310000000 1.0
C      1  0.5924830000000  0.5309770000000  0.4939060000000 1.0
C      1  0.5727090000000  0.5301470000000  0.4368510000000 1.0
C      1  0.4977460000000  0.5270800000000  0.3988070000000 1.0
C      1  0.4466430000000  0.5298790000000  0.4176960000000 1.0
C      1  0.4008180000000  0.5271040000000  0.4891740000000 1.0
C      1  0.4148560000000  0.5296120000000  0.5425330000000 1.0
C      1  0.4546080000000  0.5306030000000  0.5846790000000 1.0
C      1  0.5395150000000  0.5272670000000  0.5901220000000 1.0
C      1  0.3992770000000  0.4512000000000  0.4823980000000 1.0
C      1  0.4151910000000  0.4473880000000  0.5496610000000 1.0
C      1  0.4678770000000  0.4525770000000  0.5968760000000 1.0
C      1  0.5356140000000  0.4474690000000  0.5916780000000 1.0
C      1  0.5893630000000  0.4506880000000  0.5501630000000 1.0
C      1  0.6008840000000  0.4495830000000  0.4800120000000 1.0
C      1  0.5637980000000  0.4498660000000  0.4206390000000 1.0
C      1  0.4986720000000  0.4511650000000  0.3969940000000 1.0
C      1  0.4337110000000  0.4518350000000  0.4234810000000 1.0
C      1  0.4933920000000  0.5362150000000  0.5079720000000 1.0
C      1  0.5041700000000  0.4446340000000  0.5016330000000 1.0
END
