TITL C-2441166-8118-124 0.2019264594871 125000 -9075.63332739394 0 0 104 (C1) n - 1
REM
REM in /home/bkarasulu/work/CARBON/AIRSS/Generating-Clusters/ReaxFF-fromJPCA2015/Units_Real/with-SteepDescent/Higher-Symm
REM
REM
REM
REM
REM
REM ./C.cell (1df0a924f5614ab8850e4351716899ee)
REM
REM compiler GCC version 9.2.1 20190827 (Red Hat 9.2.1-1)
REM options -cpp -mtune=generic -march=x86-64 -g -O0 -fpre-include=/usr/include/finclude/math-vector-fortran.h
REM seed 1036443722 1108217514 -260423994 1643316070 -1119936253 -1464934610 904619315 -2065951806 -826024667 -1899750087 -246069138 -782516868 -778567959 -1190141357 2109938170 1716342177 484944394 834867490 319273092 705252875 -835660375 87334183 1119551086 -1428065795 1696192068 1856325730 1994931166 1375741957 -1793708831 812878750 -226966760 555563123 -1403038917
REM
CELL 1.54180   50.00000   50.00000   50.00000   90.00000   90.00000   90.00000
LATT -1
SFAC C  
C      1  0.5045670000000  0.4366180000000  0.5351200000000 1.0
C      1  0.4976130000000  0.4683720000000  0.5616930000000 1.0
C      1  0.5014860000000  0.5136110000000  0.5678700000000 1.0
C      1  0.4983250000000  0.5526420000000  0.5430770000000 1.0
C      1  0.4998370000000  0.5665490000000  0.5055830000000 1.0
C      1  0.4981730000000  0.5561850000000  0.4645120000000 1.0
C      1  0.5039050000000  0.5310900000000  0.4328730000000 1.0
C      1  0.5028720000000  0.4859780000000  0.4361570000000 1.0
C      1  0.5001900000000  0.4481110000000  0.4561220000000 1.0
C      1  0.4991500000000  0.4363690000000  0.4971460000000 1.0
C      1  0.5629590000000  0.4856530000000  0.5532980000000 1.0
C      1  0.4379770000000  0.5195730000000  0.5514390000000 1.0
C      1  0.5638050000000  0.5473260000000  0.5306040000000 1.0
C      1  0.4360610000000  0.5564450000000  0.4973140000000 1.0
C      1  0.5624320000000  0.5425350000000  0.4642210000000 1.0
C      1  0.4369340000000  0.5149550000000  0.4448280000000 1.0
C      1  0.5635690000000  0.4800010000000  0.4458860000000 1.0
C      1  0.4359850000000  0.4526980000000  0.4698490000000 1.0
C      1  0.5635070000000  0.4434880000000  0.5024270000000 1.0
C      1  0.4366270000000  0.4556850000000  0.5337980000000 1.0
C      1  0.5330470000000  0.5277110000000  0.4333650000000 1.0
C      1  0.4721790000000  0.4868100000000  0.4264350000000 1.0
C      1  0.5306490000000  0.4445000000000  0.4504540000000 1.0
C      1  0.4707540000000  0.4278860000000  0.4892470000000 1.0
C      1  0.5322680000000  0.4398910000000  0.5378180000000 1.0
C      1  0.4680790000000  0.4729930000000  0.5649740000000 1.0
C      1  0.5316370000000  0.5169940000000  0.5689100000000 1.0
C      1  0.4695980000000  0.5539470000000  0.5495330000000 1.0
C      1  0.5298980000000  0.5719200000000  0.5075670000000 1.0
C      1  0.4700950000000  0.5644030000000  0.4639740000000 1.0
C      1  0.4616220000000  0.4560770000000  0.4823030000000 1.0
C      1  0.5383270000000  0.4538340000000  0.5126040000000 1.0
C      1  0.4612480000000  0.4703860000000  0.5361330000000 1.0
C      1  0.5378140000000  0.4978400000000  0.5458900000000 1.0
C      1  0.4633500000000  0.5252180000000  0.5384460000000 1.0
C      1  0.5388370000000  0.5443610000000  0.5160680000000 1.0
C      1  0.4590650000000  0.5459200000000  0.4839030000000 1.0
C      1  0.5366090000000  0.5279140000000  0.4636940000000 1.0
C      1  0.4625290000000  0.5018940000000  0.4521760000000 1.0
C      1  0.5386480000000  0.4724450000000  0.4587440000000 1.0
C      1  0.5392850000000  0.5658810000000  0.4551640000000 1.0
C      1  0.4588270000000  0.5290720000000  0.4240070000000 1.0
C      1  0.5430560000000  0.4771440000000  0.4205490000000 1.0
C      1  0.4583900000000  0.4375480000000  0.4487720000000 1.0
C      1  0.5403500000000  0.4188160000000  0.4967170000000 1.0
C      1  0.4604190000000  0.4328870000000  0.5442770000000 1.0
C      1  0.5396400000000  0.4726980000000  0.5759720000000 1.0
C      1  0.4593430000000  0.5219000000000  0.5784300000000 1.0
C      1  0.5410230000000  0.5633740000000  0.5509800000000 1.0
C      1  0.4590390000000  0.5809800000000  0.5037110000000 1.0
C      1  0.4826470000000  0.4259350000000  0.4603340000000 1.0
C      1  0.5141460000000  0.4162430000000  0.5110210000000 1.0
C      1  0.4867750000000  0.4377170000000  0.5571880000000 1.0
C      1  0.5131980000000  0.4836650000000  0.5817090000000 1.0
C      1  0.4845440000000  0.5361910000000  0.5758680000000 1.0
C      1  0.5156090000000  0.5747090000000  0.5409410000000 1.0
C      1  0.4839960000000  0.5835320000000  0.4883840000000 1.0
C      1  0.5133640000000  0.5593030000000  0.4406310000000 1.0
C      1  0.4843450000000  0.5163930000000  0.4181400000000 1.0
C      1  0.5171690000000  0.4637740000000  0.4235320000000 1.0
C      1  0.5057990000000  0.4642490000000  0.4957500000000 1.0
C      1  0.4868590000000  0.4770280000000  0.5127790000000 1.0
C      1  0.5067630000000  0.4829140000000  0.5356820000000 1.0
C      1  0.4923720000000  0.5089380000000  0.5389070000000 1.0
C      1  0.5137510000000  0.5195040000000  0.5185060000000 1.0
C      1  0.4955400000000  0.5380440000000  0.5058070000000 1.0
C      1  0.5069970000000  0.5336920000000  0.4782380000000 1.0
C      1  0.4875420000000  0.5112410000000  0.4728340000000 1.0
C      1  0.5065350000000  0.4918450000000  0.4645930000000 1.0
C      1  0.4934490000000  0.4703960000000  0.4730560000000 1.0
C      1  0.5709060000000  0.5074570000000  0.4520580000000 1.0
C      1  0.4279870000000  0.4780740000000  0.4582290000000 1.0
C      1  0.5714290000000  0.4573690000000  0.4781870000000 1.0
C      1  0.4293000000000  0.4525090000000  0.5061630000000 1.0
C      1  0.5699040000000  0.4662550000000  0.5331540000000 1.0
C      1  0.4281210000000  0.4922670000000  0.5482160000000 1.0
C      1  0.5714340000000  0.5223910000000  0.5435120000000 1.0
C      1  0.4293480000000  0.5434200000000  0.5221370000000 1.0
C      1  0.5725430000000  0.5484060000000  0.4913680000000 1.0
C      1  0.4277250000000  0.5329450000000  0.4656910000000 1.0
C      1  0.5498840000000  0.5110650000000  0.5293030000000 1.0
C      1  0.4516560000000  0.5260510000000  0.5164630000000 1.0
C      1  0.5503850000000  0.5325830000000  0.4986630000000 1.0
C      1  0.4494460000000  0.5221660000000  0.4815440000000 1.0
C      1  0.5497660000000  0.5069190000000  0.4709170000000 1.0
C      1  0.4519970000000  0.4870420000000  0.4674480000000 1.0
C      1  0.5474350000000  0.4717590000000  0.4805730000000 1.0
C      1  0.4511840000000  0.4710400000000  0.4995260000000 1.0
C      1  0.5489840000000  0.4757780000000  0.5167580000000 1.0
C      1  0.4500380000000  0.4908400000000  0.5300500000000 1.0
C      1  0.4656030000000  0.4301930000000  0.5188450000000 1.0
C      1  0.5356900000000  0.4557000000000  0.5568330000000 1.0
C      1  0.4641070000000  0.4969760000000  0.5725980000000 1.0
C      1  0.5355960000000  0.5406670000000  0.5603760000000 1.0
C      1  0.4647490000000  0.5669590000000  0.5248550000000 1.0
C      1  0.5347950000000  0.5691400000000  0.4804270000000 1.0
C      1  0.4657410000000  0.5435850000000  0.4460410000000 1.0
C      1  0.5312550000000  0.5013370000000  0.4281470000000 1.0
C      1  0.4653430000000  0.4607010000000  0.4374200000000 1.0
C      1  0.5355870000000  0.4309540000000  0.4745080000000 1.0
C      1  0.5224200000000  0.4990940000000  0.4990270000000 1.0
C      1  0.4777620000000  0.5001210000000  0.4978220000000 1.0
C      1  0.5623020000000  0.5034510000000  0.5018820000000 1.0
C      1  0.4365840000000  0.5010160000000  0.5028870000000 1.0
END
