TITL C-2441169-1362-78 -6.92331532815718e-08 125000 -1347.43846037383 0 0 10 (D(inf)h) n - 1
REM
REM in /home/bkarasulu/work/CARBON/AIRSS/Generating-Clusters/ReaxFF-fromJPCA2015/Units_Real/with-SteepDescent/Higher-Symm
REM
REM
REM
REM
REM
REM ./C.cell (1df0a924f5614ab8850e4351716899ee)
REM
REM compiler GCC version 9.2.1 20190827 (Red Hat 9.2.1-1)
REM options -cpp -mtune=generic -march=x86-64 -g -O0 -fpre-include=/usr/include/finclude/math-vector-fortran.h
REM seed 1716083005 -1083631633 -1134064219 602378189 1722366550 -1909748791 1649238471 -1055715201 -34823264 977708378 454770904 1665622230 -2057304967 -1962358761 -637565935 1566880900 1795774679 1172249103 654183062 -267616989 208537952 -498908577 -1999081723 -1494728490 -238540002 -1141825855 1868892555 1884283593 -1714859109 -998620181 -1067066736 -302287029 -2045411627
REM
CELL 1.54180   50.00000   50.00000   50.00000   90.00000   90.00000   90.00000
LATT -1
SFAC C  
C      1  0.4993420000000  0.4110050000000  0.5001700000000 1.0
C      1  0.4993420000000  0.5379790000000  0.5001700000000 1.0
C      1  0.4993420000000  0.4367530000000  0.5001700000000 1.0
C      1  0.4993420000000  0.4620210000000  0.5001700000000 1.0
C      1  0.4993420000000  0.3865900000000  0.5001700000000 1.0
C      1  0.4993420000000  0.5632470000000  0.5001700000000 1.0
C      1  0.4993420000000  0.5126560000000  0.5001700000000 1.0
C      1  0.4993420000000  0.5889950000000  0.5001700000000 1.0
C      1  0.4993420000000  0.6134100000000  0.5001700000000 1.0
C      1  0.4993420000000  0.4873440000000  0.5001700000000 1.0
END
