TITL C-2441159-1093-1124 0.00818939823525408 125000 -12221.8318447563 0 0 86 (C1) n - 1
REM
REM in /home/bkarasulu/work/CARBON/AIRSS/Generating-Clusters/ReaxFF-fromJPCA2015/Units_Real/with-SteepDescent/Higher-Symm
REM
REM
REM
REM
REM
REM ./C.cell (1df0a924f5614ab8850e4351716899ee)
REM
REM compiler GCC version 9.2.1 20190827 (Red Hat 9.2.1-1)
REM options -cpp -mtune=generic -march=x86-64 -g -O0 -fpre-include=/usr/include/finclude/math-vector-fortran.h
REM seed 2024339455 -1709929336 1584108788 -2040442572 -884907825 1010520133 456659688 -90067357 102812641 2030986539 1954784679 -1723462498 -838110259 1089784577 -2060975247 -1133005130 78180831 -614273366 -1159341494 129037186 883080230 -1488989893 419213347 687096659 -1102798486 -1530432419 -1181069595 -1317404615 1814824201 -1639303282 -1677158414 77941098 -902719437
REM
CELL 1.54180   50.00000   50.00000   50.00000   90.00000   90.00000   90.00000
LATT -1
SFAC C  
C      1  0.5265730000000  0.4998690000000  0.4932910000000 1.0
C      1  0.5751710000000  0.5041450000000  0.5269440000000 1.0
C      1  0.5687260000000  0.4951290000000  0.4598760000000 1.0
C      1  0.4643930000000  0.5759230000000  0.4836560000000 1.0
C      1  0.4881540000000  0.4319080000000  0.4565560000000 1.0
C      1  0.5614710000000  0.5397600000000  0.4879140000000 1.0
C      1  0.4849700000000  0.4817090000000  0.5822720000000 1.0
C      1  0.5270270000000  0.4651520000000  0.4302030000000 1.0
C      1  0.4474970000000  0.5606460000000  0.4646100000000 1.0
C      1  0.4517980000000  0.5164280000000  0.5701940000000 1.0
C      1  0.5385110000000  0.4487460000000  0.4516250000000 1.0
C      1  0.4983960000000  0.4639750000000  0.4836630000000 1.0
C      1  0.4984190000000  0.5605920000000  0.5364180000000 1.0
C      1  0.4710160000000  0.5319930000000  0.4324940000000 1.0
C      1  0.5417620000000  0.5014000000000  0.5600790000000 1.0
C      1  0.5198210000000  0.4272160000000  0.5495660000000 1.0
C      1  0.4689500000000  0.5596150000000  0.4447990000000 1.0
C      1  0.5012230000000  0.5183260000000  0.5755980000000 1.0
C      1  0.4705960000000  0.4966800000000  0.5059260000000 1.0
C      1  0.4527270000000  0.5453690000000  0.5258860000000 1.0
C      1  0.4752990000000  0.5075050000000  0.5864820000000 1.0
C      1  0.4306770000000  0.4579600000000  0.5339570000000 1.0
C      1  0.5233890000000  0.4772580000000  0.4768410000000 1.0
C      1  0.4410570000000  0.5305930000000  0.4678590000000 1.0
C      1  0.5197620000000  0.5435260000000  0.5795000000000 1.0
C      1  0.5232750000000  0.5493110000000  0.4421940000000 1.0
C      1  0.5384790000000  0.4906800000000  0.4192270000000 1.0
C      1  0.4540910000000  0.4822090000000  0.4505930000000 1.0
C      1  0.5006680000000  0.4796960000000  0.4321260000000 1.0
C      1  0.5378620000000  0.5330050000000  0.5594400000000 1.0
C      1  0.4960110000000  0.5100960000000  0.5476760000000 1.0
C      1  0.5089000000000  0.4127910000000  0.5286090000000 1.0
C      1  0.5548710000000  0.5076520000000  0.4378090000000 1.0
C      1  0.4759790000000  0.4823150000000  0.4794900000000 1.0
C      1  0.4893080000000  0.5336540000000  0.4843390000000 1.0
C      1  0.5479570000000  0.5653380000000  0.4849020000000 1.0
C      1  0.4669660000000  0.4500290000000  0.4501510000000 1.0
C      1  0.4951810000000  0.4425090000000  0.5538590000000 1.0
C      1  0.4248690000000  0.5193570000000  0.4913660000000 1.0
C      1  0.4703630000000  0.5686590000000  0.5363600000000 1.0
C      1  0.4443920000000  0.4287410000000  0.5069170000000 1.0
C      1  0.5234580000000  0.4848240000000  0.5177410000000 1.0
C      1  0.5502970000000  0.5541010000000  0.5381570000000 1.0
C      1  0.4616470000000  0.4304550000000  0.4696520000000 1.0
C      1  0.4853160000000  0.4571530000000  0.5305260000000 1.0
C      1  0.5017290000000  0.5286800000000  0.4321660000000 1.0
C      1  0.4548880000000  0.5110640000000  0.4436280000000 1.0
C      1  0.4276610000000  0.4853280000000  0.5353050000000 1.0
C      1  0.4890180000000  0.4453150000000  0.5042820000000 1.0
C      1  0.5604740000000  0.4519950000000  0.5190740000000 1.0
C      1  0.4952600000000  0.5317330000000  0.5309620000000 1.0
C      1  0.5537970000000  0.4688600000000  0.4707110000000 1.0
C      1  0.5107650000000  0.5512510000000  0.4892490000000 1.0
C      1  0.4164620000000  0.5120230000000  0.4653190000000 1.0
C      1  0.4867590000000  0.5731810000000  0.4642880000000 1.0
C      1  0.5416060000000  0.4497350000000  0.5432220000000 1.0
C      1  0.4440090000000  0.4486590000000  0.4898130000000 1.0
C      1  0.4904070000000  0.4864840000000  0.5279880000000 1.0
C      1  0.5048370000000  0.4649470000000  0.5723700000000 1.0
C      1  0.5008440000000  0.4166580000000  0.5017790000000 1.0
C      1  0.5313440000000  0.4745640000000  0.5618120000000 1.0
C      1  0.5413540000000  0.5296610000000  0.4514190000000 1.0
C      1  0.5188450000000  0.4324960000000  0.4662140000000 1.0
C      1  0.4558720000000  0.5726870000000  0.5125090000000 1.0
C      1  0.4282670000000  0.4737640000000  0.4880260000000 1.0
C      1  0.5117100000000  0.5022370000000  0.4178030000000 1.0
C      1  0.4969230000000  0.5190850000000  0.4618050000000 1.0
C      1  0.5423530000000  0.5705820000000  0.5134820000000 1.0
C      1  0.5196760000000  0.5672340000000  0.4651530000000 1.0
C      1  0.4348740000000  0.4343250000000  0.5282370000000 1.0
C      1  0.5765910000000  0.5546310000000  0.5314180000000 1.0
C      1  0.5345580000000  0.5264070000000  0.4835660000000 1.0
C      1  0.5263350000000  0.4284240000000  0.4937820000000 1.0
C      1  0.5765550000000  0.5141640000000  0.4799090000000 1.0
C      1  0.4919070000000  0.4934200000000  0.4576870000000 1.0
C      1  0.5135140000000  0.5688370000000  0.5132750000000 1.0
C      1  0.5456980000000  0.4996510000000  0.5315860000000 1.0
C      1  0.4361700000000  0.4960190000000  0.5070840000000 1.0
C      1  0.5336890000000  0.4530460000000  0.5151640000000 1.0
C      1  0.5695200000000  0.4669700000000  0.4966630000000 1.0
C      1  0.5829770000000  0.5307570000000  0.5309160000000 1.0
C      1  0.4410230000000  0.5324150000000  0.5503130000000 1.0
C      1  0.5817510000000  0.4933450000000  0.5001850000000 1.0
C      1  0.4261620000000  0.4840360000000  0.4609240000000 1.0
C      1  0.4307800000000  0.5063220000000  0.5554830000000 1.0
C      1  0.4757640000000  0.5250090000000  0.5080850000000 1.0
END
