TITL C-2441160-1326-611 0.0138707354000698 125000 -8565.03331037596 0 0 62 (C1) n - 1
REM
REM in /home/bkarasulu/work/CARBON/AIRSS/Generating-Clusters/ReaxFF-fromJPCA2015/Units_Real/with-SteepDescent/Higher-Symm
REM
REM
REM
REM
REM
REM ./C.cell (1df0a924f5614ab8850e4351716899ee)
REM
REM compiler GCC version 9.2.1 20190827 (Red Hat 9.2.1-1)
REM options -cpp -mtune=generic -march=x86-64 -g -O0 -fpre-include=/usr/include/finclude/math-vector-fortran.h
REM seed -917656360 1498656456 -1029883405 -1963252108 1066305884 969816016 -1426478550 -1199597786 993220895 1926851869 -807349614 -1844148643 511686761 -1885549876 -1298976866 1888819932 -1347831547 468605537 -318393988 806186383 1842929368 946400384 -1016037719 -2001710772 138279065 -1868257432 1034744777 1395131519 -473275219 -114362601 -543757415 -198879458 -1860279039
REM
CELL 1.54180   50.00000   50.00000   50.00000   90.00000   90.00000   90.00000
LATT -1
SFAC C  
C      1  0.5591990000000  0.4506190000000  0.5015970000000 1.0
C      1  0.5693290000000  0.4896080000000  0.4677730000000 1.0
C      1  0.4628750000000  0.5369850000000  0.4304130000000 1.0
C      1  0.5490570000000  0.5370450000000  0.4695200000000 1.0
C      1  0.4867100000000  0.4523870000000  0.4456080000000 1.0
C      1  0.4493090000000  0.5500790000000  0.5221270000000 1.0
C      1  0.5531110000000  0.5127380000000  0.4542820000000 1.0
C      1  0.4932580000000  0.4985750000000  0.5275600000000 1.0
C      1  0.4255750000000  0.4854360000000  0.4895220000000 1.0
C      1  0.4784820000000  0.5100940000000  0.5058600000000 1.0
C      1  0.5066740000000  0.5134970000000  0.5751610000000 1.0
C      1  0.5278130000000  0.5554890000000  0.4629910000000 1.0
C      1  0.5223500000000  0.4563330000000  0.5384740000000 1.0
C      1  0.4746350000000  0.4500560000000  0.5221270000000 1.0
C      1  0.4646340000000  0.4508300000000  0.4950960000000 1.0
C      1  0.5088480000000  0.4987740000000  0.4668660000000 1.0
C      1  0.4907310000000  0.5571310000000  0.4888580000000 1.0
C      1  0.5057630000000  0.5484920000000  0.4448730000000 1.0
C      1  0.4960990000000  0.5325480000000  0.5040660000000 1.0
C      1  0.4674040000000  0.5662240000000  0.5038110000000 1.0
C      1  0.4498210000000  0.5083780000000  0.5508200000000 1.0
C      1  0.5086270000000  0.5229490000000  0.4310220000000 1.0
C      1  0.4772090000000  0.5560120000000  0.4471830000000 1.0
C      1  0.4647370000000  0.5008070000000  0.4799190000000 1.0
C      1  0.5401520000000  0.4403060000000  0.5193510000000 1.0
C      1  0.5402570000000  0.4918760000000  0.5128570000000 1.0
C      1  0.5458000000000  0.5008230000000  0.5594820000000 1.0
C      1  0.4994920000000  0.5192650000000  0.5469450000000 1.0
C      1  0.5265760000000  0.4255380000000  0.4952060000000 1.0
C      1  0.5061970000000  0.4833260000000  0.5751790000000 1.0
C      1  0.4420110000000  0.5220180000000  0.4720770000000 1.0
C      1  0.4584000000000  0.4826020000000  0.5596100000000 1.0
C      1  0.4285900000000  0.4979300000000  0.5164980000000 1.0
C      1  0.5703980000000  0.5224550000000  0.5136030000000 1.0
C      1  0.5800320000000  0.5056730000000  0.4922160000000 1.0
C      1  0.5115310000000  0.4569530000000  0.4636770000000 1.0
C      1  0.4517570000000  0.4714700000000  0.4786170000000 1.0
C      1  0.4809430000000  0.5138000000000  0.4313850000000 1.0
C      1  0.4528060000000  0.4358710000000  0.5144660000000 1.0
C      1  0.5364340000000  0.4430380000000  0.4686370000000 1.0
C      1  0.5596360000000  0.4586010000000  0.4750900000000 1.0
C      1  0.5558020000000  0.5047980000000  0.5319190000000 1.0
C      1  0.5039710000000  0.4126150000000  0.4968960000000 1.0
C      1  0.4830540000000  0.5037830000000  0.4582810000000 1.0
C      1  0.4385380000000  0.5233470000000  0.5285710000000 1.0
C      1  0.5536980000000  0.4959670000000  0.4898750000000 1.0
C      1  0.4836560000000  0.4690340000000  0.5632140000000 1.0
C      1  0.5189740000000  0.5670340000000  0.4891830000000 1.0
C      1  0.5075700000000  0.4760810000000  0.4849570000000 1.0
C      1  0.5512000000000  0.5406760000000  0.5002790000000 1.0
C      1  0.5144800000000  0.4797850000000  0.5142590000000 1.0
C      1  0.5273550000000  0.5046730000000  0.4444280000000 1.0
C      1  0.4938000000000  0.4517340000000  0.5433180000000 1.0
C      1  0.5299110000000  0.4762150000000  0.5611650000000 1.0
C      1  0.4752150000000  0.5595840000000  0.5305340000000 1.0
C      1  0.5347430000000  0.5235170000000  0.5769740000000 1.0
C      1  0.4430690000000  0.4832610000000  0.5369410000000 1.0
C      1  0.5033500000000  0.5451440000000  0.5318250000000 1.0
C      1  0.4182750000000  0.5097430000000  0.4780470000000 1.0
C      1  0.5295770000000  0.5548370000000  0.5133290000000 1.0
C      1  0.4507760000000  0.5450460000000  0.4555160000000 1.0
C      1  0.4597260000000  0.4604950000000  0.4500660000000 1.0
END
