TITL C-2441158-471-1096 0.0129686327809616 125000 -11448.5840930152 0 0 81 (C1) n - 1
REM
REM in /home/bkarasulu/work/CARBON/AIRSS/Generating-Clusters/ReaxFF-fromJPCA2015/Units_Real/with-SteepDescent/Higher-Symm
REM
REM
REM
REM
REM
REM ./C.cell (1df0a924f5614ab8850e4351716899ee)
REM
REM compiler GCC version 9.2.1 20190827 (Red Hat 9.2.1-1)
REM options -cpp -mtune=generic -march=x86-64 -g -O0 -fpre-include=/usr/include/finclude/math-vector-fortran.h
REM seed -877952238 -978954547 1003843640 -258981208 1819209011 1880526452 1103053484 -560632329 96631501 -1901072684 -1185342655 697173686 -46185816 696258513 -571313006 804732907 -1414835881 241458406 2029142683 -1844609182 1930464320 -973114768 -511935642 698125711 178241474 1240935738 1759388264 -307321060 736871178 474569247 1459763073 1031169974 513269353
REM
CELL 1.54180   50.00000   50.00000   50.00000   90.00000   90.00000   90.00000
LATT -1
SFAC C  
C      1  0.5132390000000  0.4440560000000  0.4309280000000 1.0
C      1  0.4835380000000  0.4489470000000  0.5691570000000 1.0
C      1  0.5134370000000  0.5570790000000  0.4308400000000 1.0
C      1  0.4838900000000  0.5519190000000  0.5692440000000 1.0
C      1  0.5169500000000  0.4494700000000  0.5690610000000 1.0
C      1  0.4830470000000  0.4478430000000  0.4311990000000 1.0
C      1  0.5172450000000  0.5518320000000  0.5688990000000 1.0
C      1  0.4831280000000  0.5528930000000  0.4319770000000 1.0
C      1  0.5562650000000  0.5154150000000  0.5535240000000 1.0
C      1  0.4465960000000  0.5153840000000  0.4471120000000 1.0
C      1  0.5568850000000  0.4852380000000  0.5540940000000 1.0
C      1  0.4456320000000  0.4840910000000  0.4466220000000 1.0
C      1  0.5447930000000  0.5260610000000  0.4508390000000 1.0
C      1  0.4450080000000  0.5142710000000  0.5545870000000 1.0
C      1  0.5457340000000  0.4744050000000  0.4489950000000 1.0
C      1  0.4433110000000  0.4842830000000  0.5558390000000 1.0
C      1  0.5197790000000  0.4671250000000  0.4879240000000 1.0
C      1  0.4887110000000  0.4648650000000  0.5239590000000 1.0
C      1  0.5225500000000  0.5362560000000  0.4899820000000 1.0
C      1  0.4908370000000  0.5393550000000  0.5260180000000 1.0
C      1  0.5172320000000  0.4639740000000  0.5188170000000 1.0
C      1  0.4930130000000  0.4674530000000  0.4747640000000 1.0
C      1  0.5186880000000  0.5391860000000  0.5194580000000 1.0
C      1  0.4917930000000  0.5286840000000  0.4795150000000 1.0
C      1  0.5689570000000  0.4591460000000  0.5152010000000 1.0
C      1  0.4323320000000  0.4598550000000  0.4865530000000 1.0
C      1  0.5700810000000  0.5419180000000  0.5149500000000 1.0
C      1  0.4310560000000  0.5404340000000  0.4868250000000 1.0
C      1  0.5640650000000  0.4602290000000  0.4865990000000 1.0
C      1  0.4315140000000  0.4595440000000  0.5155420000000 1.0
C      1  0.5661650000000  0.5408810000000  0.4862480000000 1.0
C      1  0.4306740000000  0.5408840000000  0.5157040000000 1.0
C      1  0.4922780000000  0.5128280000000  0.4494060000000 1.0
C      1  0.5153680000000  0.5149790000000  0.5485370000000 1.0
C      1  0.4878070000000  0.4848120000000  0.4514530000000 1.0
C      1  0.5150520000000  0.4876720000000  0.5478400000000 1.0
C      1  0.4871150000000  0.5177010000000  0.5455240000000 1.0
C      1  0.5256530000000  0.5126790000000  0.4344560000000 1.0
C      1  0.4854690000000  0.4857300000000  0.5449550000000 1.0
C      1  0.5320220000000  0.4867300000000  0.4288400000000 1.0
C      1  0.4504980000000  0.4426730000000  0.5304560000000 1.0
C      1  0.5499530000000  0.4382740000000  0.4721720000000 1.0
C      1  0.4492070000000  0.5573930000000  0.5315050000000 1.0
C      1  0.5521140000000  0.5620640000000  0.4710440000000 1.0
C      1  0.4513460000000  0.4437180000000  0.4706790000000 1.0
C      1  0.5521070000000  0.4414620000000  0.5324160000000 1.0
C      1  0.4507320000000  0.5566360000000  0.4714210000000 1.0
C      1  0.5532940000000  0.5595540000000  0.5323250000000 1.0
C      1  0.4584480000000  0.5431550000000  0.4459540000000 1.0
C      1  0.5427550000000  0.5454380000000  0.5558570000000 1.0
C      1  0.4574310000000  0.4562590000000  0.4448710000000 1.0
C      1  0.5426410000000  0.4557020000000  0.5562120000000 1.0
C      1  0.4580070000000  0.5451330000000  0.5563510000000 1.0
C      1  0.5390110000000  0.5535020000000  0.4461120000000 1.0
C      1  0.4575430000000  0.4547710000000  0.5561360000000 1.0
C      1  0.5384520000000  0.4464630000000  0.4464880000000 1.0
C      1  0.5147930000000  0.4689510000000  0.4157560000000 1.0
C      1  0.4851330000000  0.4760930000000  0.5773530000000 1.0
C      1  0.5151600000000  0.5330230000000  0.4147260000000 1.0
C      1  0.4857440000000  0.5252180000000  0.5785270000000 1.0
C      1  0.5144830000000  0.4767220000000  0.5779590000000 1.0
C      1  0.4870790000000  0.4752750000000  0.4228850000000 1.0
C      1  0.5150950000000  0.5247720000000  0.5787450000000 1.0
C      1  0.4876390000000  0.5257400000000  0.4221140000000 1.0
C      1  0.5718810000000  0.4840500000000  0.5304150000000 1.0
C      1  0.4299660000000  0.4844660000000  0.4706260000000 1.0
C      1  0.5708240000000  0.5166360000000  0.5298310000000 1.0
C      1  0.4317650000000  0.5154020000000  0.4715350000000 1.0
C      1  0.5478230000000  0.4830720000000  0.4772800000000 1.0
C      1  0.4277120000000  0.4837240000000  0.5319290000000 1.0
C      1  0.5484240000000  0.5181620000000  0.4788510000000 1.0
C      1  0.4308860000000  0.5153560000000  0.5304910000000 1.0
C      1  0.5278500000000  0.4353500000000  0.5179270000000 1.0
C      1  0.4768670000000  0.4449850000000  0.4846380000000 1.0
C      1  0.5300460000000  0.5673010000000  0.5170300000000 1.0
C      1  0.4748150000000  0.5555440000000  0.4865120000000 1.0
C      1  0.5266540000000  0.4365580000000  0.4892920000000 1.0
C      1  0.4747430000000  0.4418750000000  0.5139750000000 1.0
C      1  0.5291160000000  0.5655460000000  0.4883360000000 1.0
C      1  0.4736720000000  0.5601320000000  0.5147890000000 1.0
C      1  0.4852470000000  0.5068490000000  0.4961320000000 1.0
END
