TITL C-2441157-2117-325 0.0105945817327264 125000 -8034.72932169809 0 0 58 (C1) n - 1
REM
REM in /home/bkarasulu/work/CARBON/AIRSS/Generating-Clusters/ReaxFF-fromJPCA2015/Units_Real/with-SteepDescent/Higher-Symm
REM
REM
REM
REM
REM
REM ./C.cell (1df0a924f5614ab8850e4351716899ee)
REM
REM compiler GCC version 9.2.1 20190827 (Red Hat 9.2.1-1)
REM options -cpp -mtune=generic -march=x86-64 -g -O0 -fpre-include=/usr/include/finclude/math-vector-fortran.h
REM seed 609473727 -1618617941 -891787096 -1085801113 1215032970 -860597958 375192760 1289949962 397461594 -1386817320 -1691955874 1215567366 -1436718530 2108293982 1934889433 -686497308 1931977036 -832286715 1704579973 -2068540605 874864713 -41668732 -1009575248 439774612 -361281563 327625643 -269247901 1072494637 -1439752198 -2052124700 500363445 870663718 -140729440
REM
CELL 1.54180   50.00000   50.00000   50.00000   90.00000   90.00000   90.00000
LATT -1
SFAC C  
C      1  0.4837570000000  0.5453660000000  0.5530230000000 1.0
C      1  0.5313630000000  0.5506890000000  0.5525190000000 1.0
C      1  0.5514700000000  0.5077070000000  0.5531040000000 1.0
C      1  0.5388050000000  0.4624040000000  0.5540550000000 1.0
C      1  0.4957150000000  0.4446970000000  0.5550540000000 1.0
C      1  0.4658310000000  0.4779310000000  0.5501180000000 1.0
C      1  0.4440280000000  0.5177750000000  0.5517640000000 1.0
C      1  0.4769410000000  0.4860470000000  0.5254760000000 1.0
C      1  0.4682400000000  0.5076940000000  0.5095270000000 1.0
C      1  0.4872450000000  0.5289000000000  0.5116000000000 1.0
C      1  0.5151980000000  0.5267340000000  0.5141000000000 1.0
C      1  0.5304830000000  0.5036870000000  0.5147130000000 1.0
C      1  0.5225230000000  0.4778920000000  0.5145780000000 1.0
C      1  0.4969570000000  0.4695640000000  0.5167960000000 1.0
C      1  0.5549580000000  0.5311010000000  0.4850360000000 1.0
C      1  0.5615310000000  0.4815550000000  0.4851250000000 1.0
C      1  0.5184830000000  0.4414300000000  0.4853610000000 1.0
C      1  0.4654360000000  0.4493720000000  0.4835650000000 1.0
C      1  0.4331670000000  0.4851630000000  0.4835880000000 1.0
C      1  0.4558500000000  0.5450530000000  0.4837930000000 1.0
C      1  0.5038590000000  0.5655760000000  0.4850460000000 1.0
C      1  0.5226220000000  0.4378870000000  0.5104080000000 1.0
C      1  0.4642060000000  0.4435960000000  0.5101150000000 1.0
C      1  0.4298890000000  0.4865890000000  0.5116180000000 1.0
C      1  0.4501900000000  0.5449190000000  0.5102150000000 1.0
C      1  0.5051510000000  0.5671200000000  0.5120660000000 1.0
C      1  0.5551740000000  0.5375940000000  0.5103860000000 1.0
C      1  0.5638030000000  0.4796000000000  0.5108870000000 1.0
C      1  0.4425850000000  0.4612430000000  0.5154860000000 1.0
C      1  0.4418390000000  0.5168320000000  0.5222000000000 1.0
C      1  0.4789070000000  0.5537730000000  0.5240590000000 1.0
C      1  0.5310700000000  0.5535200000000  0.5236820000000 1.0
C      1  0.5589860000000  0.5076860000000  0.5234210000000 1.0
C      1  0.5438010000000  0.4581170000000  0.5234930000000 1.0
C      1  0.4946330000000  0.4405720000000  0.5243460000000 1.0
C      1  0.5394750000000  0.4865390000000  0.5619120000000 1.0
C      1  0.5179010000000  0.4530760000000  0.5652550000000 1.0
C      1  0.4801610000000  0.4627540000000  0.5641880000000 1.0
C      1  0.4584180000000  0.4976710000000  0.5674610000000 1.0
C      1  0.4663720000000  0.5272660000000  0.5666260000000 1.0
C      1  0.5091630000000  0.5420290000000  0.5657630000000 1.0
C      1  0.5357400000000  0.5271960000000  0.5668050000000 1.0
C      1  0.4796580000000  0.4496570000000  0.4630950000000 1.0
C      1  0.4534050000000  0.5011320000000  0.4800130000000 1.0
C      1  0.4668370000000  0.5439680000000  0.4583500000000 1.0
C      1  0.4932800000000  0.5613390000000  0.4596210000000 1.0
C      1  0.5544840000000  0.5199520000000  0.4594790000000 1.0
C      1  0.5581620000000  0.4905980000000  0.4610020000000 1.0
C      1  0.5063530000000  0.4439390000000  0.4630750000000 1.0
C      1  0.5374720000000  0.4788560000000  0.4526860000000 1.0
C      1  0.5173250000000  0.4640390000000  0.4514200000000 1.0
C      1  0.4765140000000  0.4711490000000  0.4513680000000 1.0
C      1  0.4587770000000  0.4934610000000  0.4518110000000 1.0
C      1  0.4727430000000  0.5187740000000  0.4449900000000 1.0
C      1  0.5168750000000  0.5491220000000  0.4504290000000 1.0
C      1  0.5295530000000  0.5255700000000  0.4445500000000 1.0
C      1  0.5011350000000  0.4991660000000  0.4744590000000 1.0
C      1  0.5016110000000  0.5093390000000  0.4497260000000 1.0
END
