TITL C-2441154-10-1334 0.0496224368221928 125000 -16467.4248151093 0 0 116 (C1) n - 1
REM
REM in /home/bkarasulu/work/CARBON/AIRSS/Generating-Clusters/ReaxFF-fromJPCA2015/Units_Real/with-SteepDescent/Higher-Symm
REM
REM
REM
REM
REM
REM ./C.cell (1df0a924f5614ab8850e4351716899ee)
REM
REM compiler GCC version 9.2.1 20190827 (Red Hat 9.2.1-1)
REM options -cpp -mtune=generic -march=x86-64 -g -O0 -fpre-include=/usr/include/finclude/math-vector-fortran.h
REM seed -1161171570 986145998 -1991708340 -202244171 1650734769 -1320479934 1124686464 -1293401653 -1326674951 895686594 -466088801 -1172268899 -1059483967 -862062105 1531267553 950253399 1568771503 -1301344666 -1734131097 -1045247038 1292845138 1163622502 1538705779 1765162216 2086291996 1429302198 1354217108 1948367229 2121490435 1078898612 -399391974 266576324 446007976
REM
CELL 1.54180   50.00000   50.00000   50.00000   90.00000   90.00000   90.00000
LATT -1
SFAC C  
C      1  0.5287930000000  0.4577010000000  0.4354120000000 1.0
C      1  0.5295210000000  0.5431520000000  0.5628740000000 1.0
C      1  0.4708880000000  0.4592050000000  0.5619300000000 1.0
C      1  0.4694850000000  0.5409030000000  0.4389660000000 1.0
C      1  0.4296500000000  0.5237390000000  0.4461490000000 1.0
C      1  0.4302410000000  0.4773570000000  0.5544670000000 1.0
C      1  0.5689420000000  0.5242620000000  0.5548900000000 1.0
C      1  0.5697350000000  0.4757590000000  0.4452250000000 1.0
C      1  0.4394840000000  0.4595190000000  0.4847490000000 1.0
C      1  0.4394860000000  0.5413020000000  0.5196760000000 1.0
C      1  0.5586110000000  0.4614380000000  0.5177030000000 1.0
C      1  0.5597710000000  0.5396840000000  0.4819960000000 1.0
C      1  0.5006210000000  0.5146440000000  0.5807660000000 1.0
C      1  0.5013530000000  0.4867880000000  0.4167000000000 1.0
C      1  0.4989980000000  0.5151790000000  0.4170780000000 1.0
C      1  0.4990030000000  0.4860840000000  0.5804980000000 1.0
C      1  0.4343910000000  0.5249660000000  0.5439670000000 1.0
C      1  0.4440760000000  0.4848810000000  0.4613300000000 1.0
C      1  0.5637860000000  0.5238460000000  0.4574160000000 1.0
C      1  0.5642430000000  0.4750380000000  0.5439710000000 1.0
C      1  0.4605840000000  0.4907560000000  0.5226920000000 1.0
C      1  0.4630030000000  0.5057320000000  0.4746170000000 1.0
C      1  0.5421890000000  0.4893160000000  0.4729030000000 1.0
C      1  0.5398870000000  0.5114800000000  0.5253880000000 1.0
C      1  0.4823270000000  0.5583360000000  0.5630530000000 1.0
C      1  0.4824680000000  0.4426410000000  0.4340150000000 1.0
C      1  0.5169890000000  0.5579350000000  0.4354180000000 1.0
C      1  0.5178760000000  0.4425640000000  0.5635020000000 1.0
C      1  0.5665210000000  0.5453880000000  0.5343600000000 1.0
C      1  0.5669820000000  0.4545920000000  0.4664810000000 1.0
C      1  0.4345140000000  0.5449950000000  0.4667710000000 1.0
C      1  0.4330300000000  0.4544590000000  0.5351710000000 1.0
C      1  0.4191490000000  0.5021510000000  0.4616510000000 1.0
C      1  0.4204050000000  0.4999550000000  0.5392000000000 1.0
C      1  0.5717520000000  0.5018300000000  0.5362330000000 1.0
C      1  0.5748330000000  0.4983880000000  0.4635530000000 1.0
C      1  0.4487060000000  0.5688980000000  0.5249670000000 1.0
C      1  0.4456010000000  0.4316990000000  0.4766920000000 1.0
C      1  0.5508110000000  0.5682290000000  0.4748330000000 1.0
C      1  0.5506630000000  0.4323290000000  0.5242440000000 1.0
C      1  0.4887420000000  0.4359180000000  0.5653290000000 1.0
C      1  0.4877650000000  0.5634530000000  0.4340260000000 1.0
C      1  0.5108970000000  0.4345370000000  0.4333760000000 1.0
C      1  0.5109880000000  0.5651060000000  0.5651130000000 1.0
C      1  0.4993530000000  0.4072980000000  0.4628610000000 1.0
C      1  0.4955070000000  0.5889830000000  0.5361630000000 1.0
C      1  0.5042510000000  0.4112090000000  0.5360140000000 1.0
C      1  0.5046700000000  0.5890730000000  0.4637460000000 1.0
C      1  0.4784820000000  0.5251610000000  0.4618450000000 1.0
C      1  0.4786320000000  0.4769440000000  0.5407520000000 1.0
C      1  0.5209360000000  0.5250030000000  0.5416650000000 1.0
C      1  0.5231320000000  0.4731480000000  0.4595560000000 1.0
C      1  0.4800410000000  0.5760790000000  0.5017720000000 1.0
C      1  0.4780750000000  0.4215050000000  0.4977520000000 1.0
C      1  0.5216880000000  0.5783430000000  0.4993170000000 1.0
C      1  0.5199670000000  0.4231930000000  0.5001490000000 1.0
C      1  0.4525540000000  0.5681640000000  0.4702130000000 1.0
C      1  0.4515730000000  0.4316200000000  0.5309000000000 1.0
C      1  0.5478860000000  0.5678620000000  0.5295290000000 1.0
C      1  0.5492410000000  0.4315990000000  0.4700390000000 1.0
C      1  0.5375750000000  0.5229040000000  0.4991650000000 1.0
C      1  0.5374580000000  0.4802660000000  0.4991910000000 1.0
C      1  0.4629120000000  0.5130350000000  0.5024750000000 1.0
C      1  0.4635960000000  0.4718340000000  0.5013140000000 1.0
C      1  0.4776100000000  0.5309050000000  0.5709820000000 1.0
C      1  0.4780910000000  0.4699620000000  0.4259460000000 1.0
C      1  0.5223560000000  0.5309630000000  0.4271890000000 1.0
C      1  0.5221710000000  0.4702070000000  0.5707430000000 1.0
C      1  0.5224220000000  0.5776190000000  0.5423550000000 1.0
C      1  0.5237330000000  0.4205450000000  0.4560860000000 1.0
C      1  0.4780590000000  0.5776840000000  0.4565450000000 1.0
C      1  0.4770000000000  0.4219880000000  0.5433120000000 1.0
C      1  0.5093870000000  0.3968680000000  0.5114810000000 1.0
C      1  0.5086730000000  0.6031590000000  0.4885810000000 1.0
C      1  0.4918100000000  0.3962480000000  0.4885410000000 1.0
C      1  0.4912020000000  0.6024530000000  0.5111610000000 1.0
C      1  0.4710920000000  0.4778620000000  0.5834630000000 1.0
C      1  0.4707450000000  0.5237990000000  0.4155450000000 1.0
C      1  0.5294930000000  0.4779570000000  0.4149210000000 1.0
C      1  0.5286030000000  0.5228280000000  0.5829670000000 1.0
C      1  0.4489900000000  0.4208170000000  0.5033980000000 1.0
C      1  0.4503300000000  0.5785100000000  0.4972530000000 1.0
C      1  0.5503410000000  0.4216240000000  0.4971840000000 1.0
C      1  0.5514850000000  0.5782530000000  0.5022850000000 1.0
C      1  0.4464940000000  0.5101600000000  0.4249540000000 1.0
C      1  0.4471300000000  0.4909150000000  0.5741560000000 1.0
C      1  0.5527990000000  0.5099350000000  0.5741700000000 1.0
C      1  0.5530750000000  0.4908330000000  0.4264000000000 1.0
C      1  0.5487900000000  0.4815720000000  0.5671530000000 1.0
C      1  0.5481560000000  0.5187050000000  0.4342220000000 1.0
C      1  0.4528750000000  0.4827770000000  0.4325320000000 1.0
C      1  0.4512620000000  0.5190800000000  0.5670330000000 1.0
C      1  0.5763330000000  0.4642120000000  0.4921910000000 1.0
C      1  0.5764580000000  0.5356360000000  0.5086840000000 1.0
C      1  0.4219980000000  0.4637760000000  0.5099600000000 1.0
C      1  0.4257650000000  0.5357820000000  0.4931010000000 1.0
C      1  0.5301990000000  0.5757980000000  0.4547970000000 1.0
C      1  0.5301670000000  0.4247970000000  0.5441690000000 1.0
C      1  0.4691860000000  0.5774520000000  0.5455890000000 1.0
C      1  0.4708960000000  0.4266350000000  0.4564210000000 1.0
C      1  0.4134040000000  0.4909990000000  0.5119830000000 1.0
C      1  0.4133880000000  0.5100430000000  0.4892170000000 1.0
C      1  0.5858680000000  0.4905560000000  0.4899300000000 1.0
C      1  0.5854150000000  0.5088170000000  0.5111670000000 1.0
C      1  0.5011220000000  0.4621950000000  0.4751680000000 1.0
C      1  0.4945120000000  0.5331320000000  0.5309020000000 1.0
C      1  0.5035170000000  0.4653970000000  0.5297780000000 1.0
C      1  0.5034750000000  0.5381770000000  0.4704960000000 1.0
C      1  0.4841370000000  0.4405080000000  0.4780280000000 1.0
C      1  0.4869220000000  0.5541480000000  0.5163570000000 1.0
C      1  0.5107470000000  0.4456200000000  0.5128040000000 1.0
C      1  0.5137640000000  0.5569590000000  0.4864030000000 1.0
C      1  0.5107480000000  0.4848790000000  0.5096220000000 1.0
C      1  0.5117540000000  0.5173330000000  0.4877530000000 1.0
C      1  0.4895390000000  0.4777380000000  0.4935620000000 1.0
C      1  0.4912240000000  0.5158200000000  0.5075890000000 1.0
END
