TITL C-2441158-471-488 0.138149527709427 125000 -16821.6150919863 0 0 132 (C1) n - 1
REM
REM in /home/bkarasulu/work/CARBON/AIRSS/Generating-Clusters/ReaxFF-fromJPCA2015/Units_Real/with-SteepDescent/Higher-Symm
REM
REM
REM
REM
REM
REM ./C.cell (1df0a924f5614ab8850e4351716899ee)
REM
REM compiler GCC version 9.2.1 20190827 (Red Hat 9.2.1-1)
REM options -cpp -mtune=generic -march=x86-64 -g -O0 -fpre-include=/usr/include/finclude/math-vector-fortran.h
REM seed 218057921 -1544401998 -189743923 -42135500 -1759844740 -1357892771 1221019855 1008019611 1628013837 -1747228199 2104889427 -721333378 -494885900 1747308682 -1969893359 234200502 -1579397647 -461108936 -383034033 980436723 399010726 2085127575 -248257360 -1772597961 1456001840 -283332642 406199012 880904864 -450721497 -2097492996 -823143673 -236101271 -110243579
REM
CELL 1.54180   50.00000   50.00000   50.00000   90.00000   90.00000   90.00000
LATT -1
SFAC C  
C      1  0.4082060000000  0.4751630000000  0.4753190000000 1.0
C      1  0.4090080000000  0.4636900000000  0.5028430000000 1.0
C      1  0.4087090000000  0.4787500000000  0.5288980000000 1.0
C      1  0.4054800000000  0.5085850000000  0.5284270000000 1.0
C      1  0.4067020000000  0.5302440000000  0.5086020000000 1.0
C      1  0.4088500000000  0.5296220000000  0.4789530000000 1.0
C      1  0.4101270000000  0.5027200000000  0.4634060000000 1.0
C      1  0.4976590000000  0.6000740000000  0.5162550000000 1.0
C      1  0.4982500000000  0.5752580000000  0.4320320000000 1.0
C      1  0.4980860000000  0.4935830000000  0.3984540000000 1.0
C      1  0.4978830000000  0.4165330000000  0.4407060000000 1.0
C      1  0.4993290000000  0.4013950000000  0.5282100000000 1.0
C      1  0.4978690000000  0.4609910000000  0.5937790000000 1.0
C      1  0.4990240000000  0.5493250000000  0.5889310000000 1.0
C      1  0.5266690000000  0.4951960000000  0.4018220000000 1.0
C      1  0.5269290000000  0.4205370000000  0.4429320000000 1.0
C      1  0.5285920000000  0.4064420000000  0.5269030000000 1.0
C      1  0.5264120000000  0.4613940000000  0.5899750000000 1.0
C      1  0.5274750000000  0.5456050000000  0.5858620000000 1.0
C      1  0.5262510000000  0.5963780000000  0.5173730000000 1.0
C      1  0.5265900000000  0.5731770000000  0.4363920000000 1.0
C      1  0.4548330000000  0.4700230000000  0.5729900000000 1.0
C      1  0.4564540000000  0.5390810000000  0.5684080000000 1.0
C      1  0.4558380000000  0.5764690000000  0.5124060000000 1.0
C      1  0.4543880000000  0.5578780000000  0.4465740000000 1.0
C      1  0.4548200000000  0.4948960000000  0.4221480000000 1.0
C      1  0.4550690000000  0.4358470000000  0.4555610000000 1.0
C      1  0.4542320000000  0.4250420000000  0.5221370000000 1.0
C      1  0.4326840000000  0.5377340000000  0.5186340000000 1.0
C      1  0.4371610000000  0.5321630000000  0.4752670000000 1.0
C      1  0.4385880000000  0.5088320000000  0.4600810000000 1.0
C      1  0.4379270000000  0.4720360000000  0.4767370000000 1.0
C      1  0.4380550000000  0.4609490000000  0.5032080000000 1.0
C      1  0.4377520000000  0.4770620000000  0.5326610000000 1.0
C      1  0.4337330000000  0.5141900000000  0.5363350000000 1.0
C      1  0.4801210000000  0.4571870000000  0.5735150000000 1.0
C      1  0.4807630000000  0.5316030000000  0.5793770000000 1.0
C      1  0.4804720000000  0.5808210000000  0.5244480000000 1.0
C      1  0.4796440000000  0.5699530000000  0.4511980000000 1.0
C      1  0.4797790000000  0.5058290000000  0.4145810000000 1.0
C      1  0.4798500000000  0.4370400000000  0.4419010000000 1.0
C      1  0.4795340000000  0.4161690000000  0.5125740000000 1.0
C      1  0.5679600000000  0.4668310000000  0.5570100000000 1.0
C      1  0.5685700000000  0.5243520000000  0.5614360000000 1.0
C      1  0.5677280000000  0.5635860000000  0.5185820000000 1.0
C      1  0.5677900000000  0.5542160000000  0.4630740000000 1.0
C      1  0.5681730000000  0.5044940000000  0.4331030000000 1.0
C      1  0.5677790000000  0.4509300000000  0.4554380000000 1.0
C      1  0.5670440000000  0.4332020000000  0.5100030000000 1.0
C      1  0.4520290000000  0.5779770000000  0.4853070000000 1.0
C      1  0.4515350000000  0.5378490000000  0.4270990000000 1.0
C      1  0.4524980000000  0.4678690000000  0.4275080000000 1.0
C      1  0.4511900000000  0.4216990000000  0.4794330000000 1.0
C      1  0.4519680000000  0.4341270000000  0.5484140000000 1.0
C      1  0.4526040000000  0.4968790000000  0.5806260000000 1.0
C      1  0.4531610000000  0.5624540000000  0.5549830000000 1.0
C      1  0.5731980000000  0.5544430000000  0.4914040000000 1.0
C      1  0.5721120000000  0.5271540000000  0.4515300000000 1.0
C      1  0.5717140000000  0.4793860000000  0.4487990000000 1.0
C      1  0.5710140000000  0.4472820000000  0.4845540000000 1.0
C      1  0.5697850000000  0.4542360000000  0.5305660000000 1.0
C      1  0.5725960000000  0.4959760000000  0.5537880000000 1.0
C      1  0.5711790000000  0.5405530000000  0.5370550000000 1.0
C      1  0.4354680000000  0.5597930000000  0.4689490000000 1.0
C      1  0.4350430000000  0.5137810000000  0.4321330000000 1.0
C      1  0.4370610000000  0.4579740000000  0.4503910000000 1.0
C      1  0.4355000000000  0.4328300000000  0.5016080000000 1.0
C      1  0.4353320000000  0.4582060000000  0.5543310000000 1.0
C      1  0.4392270000000  0.5172480000000  0.5653240000000 1.0
C      1  0.4379130000000  0.5637700000000  0.5305440000000 1.0
C      1  0.5095520000000  0.5016070000000  0.5411440000000 1.0
C      1  0.5072520000000  0.5302410000000  0.5275390000000 1.0
C      1  0.5112950000000  0.5387080000000  0.4973020000000 1.0
C      1  0.5075730000000  0.5143130000000  0.4564830000000 1.0
C      1  0.5071510000000  0.4861280000000  0.4562460000000 1.0
C      1  0.5091090000000  0.4549350000000  0.4947150000000 1.0
C      1  0.5099670000000  0.4658240000000  0.5220990000000 1.0
C      1  0.4787880000000  0.5739270000000  0.5513650000000 1.0
C      1  0.4772430000000  0.5850290000000  0.4742690000000 1.0
C      1  0.4779160000000  0.5332960000000  0.4166820000000 1.0
C      1  0.4776450000000  0.4556230000000  0.4219530000000 1.0
C      1  0.4772160000000  0.4113760000000  0.4854180000000 1.0
C      1  0.4781360000000  0.4334100000000  0.5597700000000 1.0
C      1  0.4779680000000  0.5059360000000  0.5894470000000 1.0
C      1  0.4819790000000  0.4655060000000  0.4906780000000 1.0
C      1  0.4815950000000  0.4729310000000  0.5204730000000 1.0
C      1  0.4807410000000  0.4979460000000  0.5371160000000 1.0
C      1  0.4763500000000  0.5250080000000  0.5220320000000 1.0
C      1  0.4822980000000  0.5346010000000  0.4924660000000 1.0
C      1  0.4822520000000  0.5156770000000  0.4692840000000 1.0
C      1  0.4810320000000  0.4856680000000  0.4688170000000 1.0
C      1  0.5401610000000  0.5715890000000  0.5238010000000 1.0
C      1  0.5401250000000  0.5638810000000  0.4609520000000 1.0
C      1  0.5416950000000  0.5082760000000  0.4229460000000 1.0
C      1  0.5411350000000  0.4463140000000  0.4453290000000 1.0
C      1  0.5420550000000  0.4217620000000  0.5079380000000 1.0
C      1  0.5401880000000  0.4616190000000  0.5640620000000 1.0
C      1  0.5423510000000  0.5235890000000  0.5738280000000 1.0
C      1  0.5256830000000  0.4906150000000  0.5925300000000 1.0
C      1  0.5272020000000  0.5655020000000  0.5644490000000 1.0
C      1  0.5256170000000  0.5904870000000  0.4884130000000 1.0
C      1  0.5267080000000  0.5486760000000  0.4205340000000 1.0
C      1  0.5263240000000  0.4676430000000  0.4119420000000 1.0
C      1  0.5252320000000  0.4111940000000  0.4700170000000 1.0
C      1  0.5256940000000  0.4234120000000  0.5500080000000 1.0
C      1  0.4995530000000  0.5727850000000  0.5718900000000 1.0
C      1  0.4978580000000  0.6011250000000  0.4875970000000 1.0
C      1  0.4986370000000  0.5536340000000  0.4130640000000 1.0
C      1  0.4980870000000  0.4652560000000  0.4031760000000 1.0
C      1  0.4979540000000  0.4023380000000  0.4662480000000 1.0
C      1  0.4990630000000  0.4140830000000  0.5543540000000 1.0
C      1  0.4977460000000  0.4886110000000  0.6021780000000 1.0
C      1  0.5258680000000  0.4702020000000  0.4403940000000 1.0
C      1  0.5259870000000  0.4319920000000  0.4884570000000 1.0
C      1  0.5253500000000  0.4508530000000  0.5419370000000 1.0
C      1  0.5259510000000  0.5010140000000  0.5654930000000 1.0
C      1  0.5266410000000  0.5507660000000  0.5390590000000 1.0
C      1  0.5255200000000  0.5621140000000  0.4856740000000 1.0
C      1  0.5283530000000  0.5274000000000  0.4406170000000 1.0
C      1  0.5504950000000  0.5251960000000  0.5231340000000 1.0
C      1  0.5588600000000  0.5277010000000  0.4954020000000 1.0
C      1  0.5521030000000  0.5166080000000  0.4697410000000 1.0
C      1  0.5538840000000  0.4887010000000  0.4691590000000 1.0
C      1  0.5547350000000  0.4702800000000  0.4902030000000 1.0
C      1  0.5535150000000  0.4743600000000  0.5179300000000 1.0
C      1  0.5548210000000  0.4986870000000  0.5315260000000 1.0
C      1  0.5252070000000  0.5058530000000  0.4969490000000 1.0
C      1  0.6026060000000  0.4955030000000  0.5004960000000 1.0
C      1  0.5828750000000  0.5086950000000  0.4995870000000 1.0
C      1  0.4604820000000  0.5034560000000  0.5022800000000 1.0
C      1  0.4329300000000  0.4996270000000  0.4982770000000 1.0
C      1  0.5003020000000  0.4994680000000  0.5017100000000 1.0
END
