TITL C-2441159-1093-794 0.0600681426091334 125000 -23631.8441300267 0 0 163 (C1) n - 1
REM
REM in /home/bkarasulu/work/CARBON/AIRSS/Generating-Clusters/ReaxFF-fromJPCA2015/Units_Real/with-SteepDescent/Higher-Symm
REM
REM
REM
REM
REM
REM ./C.cell (1df0a924f5614ab8850e4351716899ee)
REM
REM compiler GCC version 9.2.1 20190827 (Red Hat 9.2.1-1)
REM options -cpp -mtune=generic -march=x86-64 -g -O0 -fpre-include=/usr/include/finclude/math-vector-fortran.h
REM seed -335800134 640755498 -266548726 118707893 129124779 2034829331 1278437579 -1045231077 -1497499437 -1752704450 -1099169762 1600934025 238888264 -855278276 -487181548 1972639005 -1845329740 -129596758 677743184 800016381 1921168280 -657614457 -1190669244 -1148385030 1120685944 -1766420052 942624755 -1584888019 1420807527 -1256064655 -1560335742 41286576 2105760319
REM
CELL 1.54180   50.00000   50.00000   50.00000   90.00000   90.00000   90.00000
LATT -1
SFAC C  
C      1  0.4783140000000  0.4754700000000  0.6036410000000 1.0
C      1  0.5218280000000  0.4777000000000  0.3991970000000 1.0
C      1  0.4797360000000  0.5224050000000  0.4018070000000 1.0
C      1  0.5215700000000  0.5206940000000  0.6006540000000 1.0
C      1  0.6030850000000  0.4756110000000  0.4774910000000 1.0
C      1  0.3984630000000  0.4746960000000  0.5190980000000 1.0
C      1  0.3928960000000  0.5208700000000  0.4811330000000 1.0
C      1  0.6067150000000  0.5213360000000  0.5175660000000 1.0
C      1  0.4443550000000  0.4932230000000  0.5741380000000 1.0
C      1  0.5657380000000  0.4948620000000  0.4172520000000 1.0
C      1  0.4332040000000  0.5061320000000  0.4163050000000 1.0
C      1  0.5676200000000  0.5044240000000  0.5817350000000 1.0
C      1  0.5758420000000  0.4941050000000  0.4434650000000 1.0
C      1  0.4185480000000  0.4930360000000  0.5622040000000 1.0
C      1  0.4154270000000  0.5067160000000  0.4372880000000 1.0
C      1  0.5755930000000  0.5051260000000  0.5543560000000 1.0
C      1  0.5814100000000  0.5675080000000  0.4997040000000 1.0
C      1  0.4159060000000  0.5675620000000  0.4997760000000 1.0
C      1  0.5789540000000  0.4311770000000  0.5027080000000 1.0
C      1  0.4177860000000  0.4311580000000  0.4980020000000 1.0
C      1  0.4950190000000  0.5645490000000  0.5750320000000 1.0
C      1  0.5046010000000  0.5641820000000  0.4218890000000 1.0
C      1  0.5030670000000  0.4330200000000  0.5790830000000 1.0
C      1  0.4941470000000  0.4348670000000  0.4235320000000 1.0
C      1  0.5521460000000  0.4834470000000  0.5910490000000 1.0
C      1  0.4478940000000  0.4833660000000  0.4086980000000 1.0
C      1  0.5526280000000  0.5162040000000  0.4069620000000 1.0
C      1  0.4489860000000  0.5165240000000  0.5924350000000 1.0
C      1  0.5930440000000  0.4830780000000  0.5492910000000 1.0
C      1  0.4074000000000  0.4837210000000  0.4508270000000 1.0
C      1  0.4092180000000  0.5144660000000  0.5484760000000 1.0
C      1  0.5920130000000  0.5162000000000  0.4501410000000 1.0
C      1  0.4862870000000  0.4639160000000  0.4278810000000 1.0
C      1  0.5089570000000  0.4622830000000  0.5776530000000 1.0
C      1  0.4876200000000  0.5365600000000  0.5719130000000 1.0
C      1  0.5125630000000  0.5357750000000  0.4246850000000 1.0
C      1  0.4097320000000  0.4588370000000  0.4963710000000 1.0
C      1  0.5790400000000  0.4592790000000  0.5122970000000 1.0
C      1  0.5918580000000  0.5396250000000  0.5006080000000 1.0
C      1  0.4074660000000  0.5396470000000  0.4983430000000 1.0
C      1  0.5587150000000  0.5393530000000  0.4231040000000 1.0
C      1  0.4426890000000  0.5398350000000  0.5767830000000 1.0
C      1  0.5517780000000  0.4621400000000  0.5705270000000 1.0
C      1  0.4417090000000  0.4590780000000  0.4231360000000 1.0
C      1  0.4298870000000  0.5360430000000  0.5491170000000 1.0
C      1  0.5704630000000  0.5363790000000  0.4504420000000 1.0
C      1  0.5778420000000  0.4596650000000  0.5563080000000 1.0
C      1  0.4263860000000  0.4606000000000  0.4480350000000 1.0
C      1  0.4719130000000  0.5043570000000  0.6047500000000 1.0
C      1  0.5294550000000  0.5048470000000  0.3941620000000 1.0
C      1  0.4718690000000  0.4949650000000  0.3972110000000 1.0
C      1  0.5292020000000  0.4934750000000  0.6057110000000 1.0
C      1  0.6067500000000  0.5037130000000  0.4710420000000 1.0
C      1  0.3951720000000  0.5039630000000  0.5265080000000 1.0
C      1  0.3924850000000  0.4929680000000  0.4731770000000 1.0
C      1  0.6067050000000  0.4934430000000  0.5263490000000 1.0
C      1  0.5885750000000  0.4528370000000  0.4635110000000 1.0
C      1  0.4268080000000  0.4545250000000  0.5344510000000 1.0
C      1  0.5711600000000  0.5502510000000  0.5371280000000 1.0
C      1  0.4309260000000  0.5484380000000  0.4645270000000 1.0
C      1  0.4637320000000  0.4532940000000  0.5887090000000 1.0
C      1  0.5359380000000  0.4591740000000  0.4192380000000 1.0
C      1  0.5365350000000  0.5388490000000  0.5807130000000 1.0
C      1  0.4670740000000  0.5415550000000  0.4240220000000 1.0
C      1  0.5081750000000  0.5247890000000  0.3982030000000 1.0
C      1  0.4932350000000  0.5237340000000  0.5977620000000 1.0
C      1  0.5073170000000  0.4737400000000  0.6044420000000 1.0
C      1  0.4933830000000  0.4755100000000  0.4015840000000 1.0
C      1  0.3877740000000  0.5238890000000  0.5084430000000 1.0
C      1  0.6116800000000  0.5237930000000  0.4903840000000 1.0
C      1  0.6042390000000  0.4728530000000  0.5059680000000 1.0
C      1  0.3884850000000  0.4735220000000  0.4917900000000 1.0
C      1  0.4988540000000  0.4053010000000  0.4869840000000 1.0
C      1  0.4947800000000  0.4035580000000  0.5359460000000 1.0
C      1  0.4961370000000  0.5983310000000  0.5146760000000 1.0
C      1  0.4950020000000  0.5988670000000  0.4741620000000 1.0
C      1  0.4813530000000  0.4020580000000  0.5107650000000 1.0
C      1  0.5281930000000  0.4073340000000  0.4915920000000 1.0
C      1  0.5231410000000  0.5934830000000  0.5048880000000 1.0
C      1  0.4756500000000  0.6050420000000  0.4930420000000 1.0
C      1  0.5022240000000  0.5435760000000  0.4695440000000 1.0
C      1  0.4991900000000  0.5203550000000  0.5189860000000 1.0
C      1  0.5039040000000  0.4573060000000  0.5320560000000 1.0
C      1  0.5011100000000  0.4812340000000  0.4829480000000 1.0
C      1  0.4633180000000  0.5435010000000  0.5046060000000 1.0
C      1  0.5354380000000  0.5417710000000  0.4976570000000 1.0
C      1  0.5361270000000  0.4561050000000  0.4998690000000 1.0
C      1  0.4610150000000  0.4537490000000  0.4949290000000 1.0
C      1  0.5454330000000  0.5236740000000  0.4706430000000 1.0
C      1  0.4539570000000  0.5246000000000  0.5262650000000 1.0
C      1  0.5541050000000  0.4729790000000  0.5175630000000 1.0
C      1  0.4514270000000  0.4686780000000  0.4711550000000 1.0
C      1  0.4802010000000  0.5194500000000  0.5475090000000 1.0
C      1  0.5190170000000  0.5209910000000  0.4519960000000 1.0
C      1  0.5220030000000  0.4723840000000  0.5530730000000 1.0
C      1  0.4727070000000  0.4775730000000  0.4494280000000 1.0
C      1  0.4547940000000  0.5905810000000  0.4744980000000 1.0
C      1  0.5427810000000  0.5906930000000  0.5269000000000 1.0
C      1  0.4554470000000  0.4117920000000  0.5256410000000 1.0
C      1  0.5460830000000  0.4163610000000  0.4700700000000 1.0
C      1  0.4764580000000  0.5866510000000  0.4546060000000 1.0
C      1  0.5333420000000  0.5795340000000  0.5503360000000 1.0
C      1  0.5249690000000  0.4193960000000  0.4528340000000 1.0
C      1  0.4705630000000  0.4121860000000  0.5505080000000 1.0
C      1  0.4535860000000  0.4682780000000  0.5204480000000 1.0
C      1  0.5448700000000  0.4698690000000  0.4735790000000 1.0
C      1  0.4553660000000  0.5394000000000  0.4765530000000 1.0
C      1  0.5457930000000  0.5377070000000  0.5268010000000 1.0
C      1  0.5294150000000  0.4709200000000  0.4487360000000 1.0
C      1  0.4772230000000  0.4689960000000  0.5401460000000 1.0
C      1  0.4749790000000  0.5320620000000  0.4561520000000 1.0
C      1  0.5305770000000  0.5294570000000  0.5505670000000 1.0
C      1  0.4329340000000  0.4198760000000  0.4757460000000 1.0
C      1  0.5637510000000  0.4199240000000  0.5247670000000 1.0
C      1  0.4317940000000  0.5769350000000  0.5224490000000 1.0
C      1  0.5646050000000  0.5765440000000  0.4778300000000 1.0
C      1  0.4742070000000  0.4190080000000  0.4374060000000 1.0
C      1  0.5244570000000  0.4204430000000  0.5643700000000 1.0
C      1  0.5264360000000  0.5763900000000  0.4374180000000 1.0
C      1  0.4737590000000  0.5803370000000  0.5626270000000 1.0
C      1  0.4484710000000  0.4312530000000  0.4299560000000 1.0
C      1  0.5497780000000  0.4324940000000  0.5704290000000 1.0
C      1  0.4478140000000  0.5681030000000  0.5697510000000 1.0
C      1  0.5530790000000  0.5671110000000  0.4293690000000 1.0
C      1  0.4269200000000  0.4303870000000  0.4493230000000 1.0
C      1  0.5704630000000  0.4319810000000  0.5502720000000 1.0
C      1  0.5715960000000  0.5668280000000  0.4518100000000 1.0
C      1  0.4269590000000  0.5668770000000  0.5492680000000 1.0
C      1  0.4831930000000  0.4188830000000  0.4659310000000 1.0
C      1  0.5162780000000  0.4229690000000  0.5368960000000 1.0
C      1  0.4804450000000  0.5818970000000  0.5341100000000 1.0
C      1  0.5188920000000  0.5667920000000  0.4631920000000 1.0
C      1  0.4603750000000  0.4273390000000  0.4832670000000 1.0
C      1  0.5365090000000  0.4206220000000  0.5159800000000 1.0
C      1  0.5354810000000  0.5735490000000  0.4849610000000 1.0
C      1  0.4600570000000  0.5700300000000  0.5169020000000 1.0
C      1  0.5555450000000  0.4966870000000  0.4710870000000 1.0
C      1  0.4509470000000  0.4991820000000  0.5117310000000 1.0
C      1  0.5520450000000  0.4986490000000  0.5304090000000 1.0
C      1  0.4520190000000  0.4968700000000  0.4834760000000 1.0
C      1  0.4718120000000  0.4924690000000  0.5553470000000 1.0
C      1  0.5122440000000  0.4923300000000  0.4567460000000 1.0
C      1  0.5256460000000  0.5017310000000  0.5430390000000 1.0
C      1  0.4711390000000  0.5034520000000  0.4617520000000 1.0
C      1  0.5729300000000  0.4304300000000  0.4746970000000 1.0
C      1  0.4304120000000  0.4270680000000  0.5239840000000 1.0
C      1  0.5698980000000  0.5768720000000  0.5248310000000 1.0
C      1  0.4295790000000  0.5758600000000  0.4754180000000 1.0
C      1  0.4747910000000  0.4301590000000  0.5742230000000 1.0
C      1  0.5226700000000  0.4306460000000  0.4278870000000 1.0
C      1  0.5244280000000  0.5683740000000  0.5728840000000 1.0
C      1  0.4777750000000  0.5693380000000  0.4300960000000 1.0
C      1  0.4196220000000  0.4641740000000  0.5609380000000 1.0
C      1  0.5844090000000  0.4645770000000  0.4378800000000 1.0
C      1  0.4197250000000  0.5356310000000  0.4407840000000 1.0
C      1  0.5816830000000  0.5354030000000  0.5598940000000 1.0
C      1  0.5653440000000  0.4663620000000  0.4168220000000 1.0
C      1  0.4381620000000  0.4644790000000  0.5831820000000 1.0
C      1  0.4385480000000  0.5346300000000  0.4188690000000 1.0
C      1  0.5654580000000  0.5323280000000  0.5831780000000 1.0
C      1  0.5073200000000  0.4583160000000  0.5023350000000 1.0
C      1  0.5063550000000  0.5417230000000  0.4998130000000 1.0
C      1  0.4997140000000  0.4991060000000  0.5024350000000 1.0
END
