TITL C-2441156-4686-1086 0.0326281631516952 125000 -20792.006079147 0 0 146 (C1) n - 1
REM
REM in /home/bkarasulu/work/CARBON/AIRSS/Generating-Clusters/ReaxFF-fromJPCA2015/Units_Real/with-SteepDescent/Higher-Symm
REM
REM
REM
REM
REM
REM ./C.cell (1df0a924f5614ab8850e4351716899ee)
REM
REM compiler GCC version 9.2.1 20190827 (Red Hat 9.2.1-1)
REM options -cpp -mtune=generic -march=x86-64 -g -O0 -fpre-include=/usr/include/finclude/math-vector-fortran.h
REM seed 2065555861 696697998 727580470 221300648 2036413721 218600584 -400292197 1439548824 969152871 1599714450 -861682966 426262211 1357776813 -89346704 -1388803692 -1468055186 -1503123224 -772480739 -1548460723 -1554158928 692731715 1407312361 -633024054 -1716775332 1030748228 -2069798782 -1871597881 2122434632 2031714389 -14515595 -1272518145 -1286867990 1062251500
REM
CELL 1.54180   50.00000   50.00000   50.00000   90.00000   90.00000   90.00000
LATT -1
SFAC C  
C      1  0.5588410000000  0.4441310000000  0.5668880000000 1.0
C      1  0.5168990000000  0.4250950000000  0.5633840000000 1.0
C      1  0.4772030000000  0.4290130000000  0.5613390000000 1.0
C      1  0.4431400000000  0.4545190000000  0.5596250000000 1.0
C      1  0.4301630000000  0.4963010000000  0.5559030000000 1.0
C      1  0.4310770000000  0.5392400000000  0.5699090000000 1.0
C      1  0.4640830000000  0.5662730000000  0.5681600000000 1.0
C      1  0.5044270000000  0.5750330000000  0.5650940000000 1.0
C      1  0.5466940000000  0.5631030000000  0.5617330000000 1.0
C      1  0.5678780000000  0.5274970000000  0.5637500000000 1.0
C      1  0.5733510000000  0.4839970000000  0.5655260000000 1.0
C      1  0.5906160000000  0.4784000000000  0.5445380000000 1.0
C      1  0.5648240000000  0.4340500000000  0.5411320000000 1.0
C      1  0.5166040000000  0.4120040000000  0.5384630000000 1.0
C      1  0.4647160000000  0.4160580000000  0.5391560000000 1.0
C      1  0.4212110000000  0.4489390000000  0.5415580000000 1.0
C      1  0.4068770000000  0.4995670000000  0.5383190000000 1.0
C      1  0.4210350000000  0.5472790000000  0.5432000000000 1.0
C      1  0.4595440000000  0.5821510000000  0.5447610000000 1.0
C      1  0.5080370000000  0.5931230000000  0.5415340000000 1.0
C      1  0.5614520000000  0.5693750000000  0.5364230000000 1.0
C      1  0.5889480000000  0.5284930000000  0.5429530000000 1.0
C      1  0.4353240000000  0.4248420000000  0.5313710000000 1.0
C      1  0.4060720000000  0.4721820000000  0.5278110000000 1.0
C      1  0.4074830000000  0.5271340000000  0.5260840000000 1.0
C      1  0.4366880000000  0.5703730000000  0.5315450000000 1.0
C      1  0.4824520000000  0.5959160000000  0.5296110000000 1.0
C      1  0.5292950000000  0.5966380000000  0.5209490000000 1.0
C      1  0.5837150000000  0.5527340000000  0.5275870000000 1.0
C      1  0.5988430000000  0.5030730000000  0.5318420000000 1.0
C      1  0.5864320000000  0.4530790000000  0.5249440000000 1.0
C      1  0.5443880000000  0.4129670000000  0.5270560000000 1.0
C      1  0.4877360000000  0.4044660000000  0.5259560000000 1.0
C      1  0.5353770000000  0.5454060000000  0.5814140000000 1.0
C      1  0.5539890000000  0.5203870000000  0.5883990000000 1.0
C      1  0.5558040000000  0.4913550000000  0.5848980000000 1.0
C      1  0.5363990000000  0.4643490000000  0.5777040000000 1.0
C      1  0.5126320000000  0.4456050000000  0.5821690000000 1.0
C      1  0.4827900000000  0.4523370000000  0.5788760000000 1.0
C      1  0.4537470000000  0.4683580000000  0.5825850000000 1.0
C      1  0.4431240000000  0.4947170000000  0.5825470000000 1.0
C      1  0.4545140000000  0.5237740000000  0.5808590000000 1.0
C      1  0.4781250000000  0.5496300000000  0.5854230000000 1.0
C      1  0.5071940000000  0.5553830000000  0.5872820000000 1.0
C      1  0.5119510000000  0.5961700000000  0.4472640000000 1.0
C      1  0.5513170000000  0.5621740000000  0.4355890000000 1.0
C      1  0.5705990000000  0.5179970000000  0.4449980000000 1.0
C      1  0.5719310000000  0.4726230000000  0.4516370000000 1.0
C      1  0.5461020000000  0.4286490000000  0.4565730000000 1.0
C      1  0.5018200000000  0.4055310000000  0.4473220000000 1.0
C      1  0.4575100000000  0.4325120000000  0.4361970000000 1.0
C      1  0.4157600000000  0.4556650000000  0.4524240000000 1.0
C      1  0.4298800000000  0.5095710000000  0.4504880000000 1.0
C      1  0.4153780000000  0.5544780000000  0.4406900000000 1.0
C      1  0.4665980000000  0.5676390000000  0.4406280000000 1.0
C      1  0.5886880000000  0.4968520000000  0.4537240000000 1.0
C      1  0.5744010000000  0.4451970000000  0.4571480000000 1.0
C      1  0.5255140000000  0.4200570000000  0.4367320000000 1.0
C      1  0.4791530000000  0.4193140000000  0.4416310000000 1.0
C      1  0.4343210000000  0.4315280000000  0.4528020000000 1.0
C      1  0.4227180000000  0.4824660000000  0.4504190000000 1.0
C      1  0.4082730000000  0.5285520000000  0.4491760000000 1.0
C      1  0.4371090000000  0.5722460000000  0.4420600000000 1.0
C      1  0.4839560000000  0.5902750000000  0.4515620000000 1.0
C      1  0.5402870000000  0.5866710000000  0.4465830000000 1.0
C      1  0.5727330000000  0.5478440000000  0.4479750000000 1.0
C      1  0.5164290000000  0.4033760000000  0.4942100000000 1.0
C      1  0.4678840000000  0.4199540000000  0.4881010000000 1.0
C      1  0.4288880000000  0.4519750000000  0.5007590000000 1.0
C      1  0.3924840000000  0.4992060000000  0.4871470000000 1.0
C      1  0.4148040000000  0.5621070000000  0.4888970000000 1.0
C      1  0.4600070000000  0.5710990000000  0.4853320000000 1.0
C      1  0.5162330000000  0.6019700000000  0.4957820000000 1.0
C      1  0.5494290000000  0.5664300000000  0.4842560000000 1.0
C      1  0.5798820000000  0.5249570000000  0.4933320000000 1.0
C      1  0.5891430000000  0.4710400000000  0.4999030000000 1.0
C      1  0.5609800000000  0.4288960000000  0.5004840000000 1.0
C      1  0.4631970000000  0.4971810000000  0.4151060000000 1.0
C      1  0.4657900000000  0.5193010000000  0.4148790000000 1.0
C      1  0.4782330000000  0.5470110000000  0.4191950000000 1.0
C      1  0.5046700000000  0.5457830000000  0.4181930000000 1.0
C      1  0.5324720000000  0.5453150000000  0.4175340000000 1.0
C      1  0.5354720000000  0.5175730000000  0.4135100000000 1.0
C      1  0.5361610000000  0.4921030000000  0.4120080000000 1.0
C      1  0.5335180000000  0.4668570000000  0.4118220000000 1.0
C      1  0.5191280000000  0.4422660000000  0.4157670000000 1.0
C      1  0.4949290000000  0.4560570000000  0.4146640000000 1.0
C      1  0.4693190000000  0.4662450000000  0.4213390000000 1.0
C      1  0.5501740000000  0.5793920000000  0.5109810000000 1.0
C      1  0.5896150000000  0.5516320000000  0.4986320000000 1.0
C      1  0.6063950000000  0.4943180000000  0.5040560000000 1.0
C      1  0.5899380000000  0.4310790000000  0.5035150000000 1.0
C      1  0.5418810000000  0.3938820000000  0.5031690000000 1.0
C      1  0.4778760000000  0.3949920000000  0.4991900000000 1.0
C      1  0.4265580000000  0.4228700000000  0.5037600000000 1.0
C      1  0.3930180000000  0.4749370000000  0.5001480000000 1.0
C      1  0.4024190000000  0.5382220000000  0.4995070000000 1.0
C      1  0.4367360000000  0.5728750000000  0.5029300000000 1.0
C      1  0.4879180000000  0.6037890000000  0.5019900000000 1.0
C      1  0.5277160000000  0.5518930000000  0.4695870000000 1.0
C      1  0.5333650000000  0.5237130000000  0.4713660000000 1.0
C      1  0.5452140000000  0.5059910000000  0.4531800000000 1.0
C      1  0.5417160000000  0.4772320000000  0.4637790000000 1.0
C      1  0.5234300000000  0.4543760000000  0.4587580000000 1.0
C      1  0.4950500000000  0.4551950000000  0.4661300000000 1.0
C      1  0.4723790000000  0.4672060000000  0.4517220000000 1.0
C      1  0.4685930000000  0.4939610000000  0.4671140000000 1.0
C      1  0.4527410000000  0.5202020000000  0.4701160000000 1.0
C      1  0.4695630000000  0.5490490000000  0.4674320000000 1.0
C      1  0.4992600000000  0.5471000000000  0.4738210000000 1.0
C      1  0.5247700000000  0.5383260000000  0.5368680000000 1.0
C      1  0.5438780000000  0.5202200000000  0.5489300000000 1.0
C      1  0.5428390000000  0.4936280000000  0.5375950000000 1.0
C      1  0.5296440000000  0.4720940000000  0.5500870000000 1.0
C      1  0.5104780000000  0.4582950000000  0.5345240000000 1.0
C      1  0.4845690000000  0.4566060000000  0.5481760000000 1.0
C      1  0.4599960000000  0.4688470000000  0.5355740000000 1.0
C      1  0.4510630000000  0.4972980000000  0.5360880000000 1.0
C      1  0.4680050000000  0.5155100000000  0.5516040000000 1.0
C      1  0.4756880000000  0.5401300000000  0.5377640000000 1.0
C      1  0.5006010000000  0.5516030000000  0.5465460000000 1.0
C      1  0.5295860000000  0.6021670000000  0.4694350000000 1.0
C      1  0.5763790000000  0.5622740000000  0.4739360000000 1.0
C      1  0.5989870000000  0.5082740000000  0.4790430000000 1.0
C      1  0.5928270000000  0.4488680000000  0.4795690000000 1.0
C      1  0.5539980000000  0.4101700000000  0.4799220000000 1.0
C      1  0.4983280000000  0.3929460000000  0.4756300000000 1.0
C      1  0.4406360000000  0.4176860000000  0.4779840000000 1.0
C      1  0.4076960000000  0.4568030000000  0.4812050000000 1.0
C      1  0.3931970000000  0.5236480000000  0.4745290000000 1.0
C      1  0.4171770000000  0.5711980000000  0.4621730000000 1.0
C      1  0.4731280000000  0.5958210000000  0.4777780000000 1.0
C      1  0.4576250000000  0.4627680000000  0.5060210000000 1.0
C      1  0.4617350000000  0.4885640000000  0.4947550000000 1.0
C      1  0.4530880000000  0.5149760000000  0.4999170000000 1.0
C      1  0.4734610000000  0.5325970000000  0.5112610000000 1.0
C      1  0.4994190000000  0.5383730000000  0.4993730000000 1.0
C      1  0.5254330000000  0.5349780000000  0.5105660000000 1.0
C      1  0.5465950000000  0.5191380000000  0.4976210000000 1.0
C      1  0.5432210000000  0.4925560000000  0.5100710000000 1.0
C      1  0.5323020000000  0.4714920000000  0.4954130000000 1.0
C      1  0.5112440000000  0.4555080000000  0.5066710000000 1.0
C      1  0.4847750000000  0.4465080000000  0.4928220000000 1.0
C      1  0.4997170000000  0.4969570000000  0.5175510000000 1.0
C      1  0.4970890000000  0.5003870000000  0.5441500000000 1.0
C      1  0.4967490000000  0.4999720000000  0.4542900000000 1.0
END
