TITL C-2441161-5029-911 0.0154762530813006 125000 -23489.4634907322 0 0 153 (C1) n - 1
REM
REM in /home/bkarasulu/work/CARBON/AIRSS/Generating-Clusters/ReaxFF-fromJPCA2015/Units_Real/with-SteepDescent/Higher-Symm
REM
REM
REM
REM
REM
REM ./C.cell (1df0a924f5614ab8850e4351716899ee)
REM
REM compiler GCC version 9.2.1 20190827 (Red Hat 9.2.1-1)
REM options -cpp -mtune=generic -march=x86-64 -g -O0 -fpre-include=/usr/include/finclude/math-vector-fortran.h
REM seed 1983582899 1618316224 708440326 -823876178 665672714 -472905773 730514548 1235305627 -24696227 -1776907944 -1368864178 685079067 1469221207 1960464438 880570762 1044447371 533908850 -654512668 1827616240 399967900 -1639554015 -1206799924 1630140241 -2068623576 -1769488400 44077595 798964866 -1889191481 -1444701538 -1359577185 1384438808 -1859789822 2006026694
REM
CELL 1.54180   50.00000   50.00000   50.00000   90.00000   90.00000   90.00000
LATT -1
SFAC C  
C      1  0.5516990000000  0.4238970000000  0.5199980000000 1.0
C      1  0.5299280000000  0.4126350000000  0.5579510000000 1.0
C      1  0.4885810000000  0.4234970000000  0.5543550000000 1.0
C      1  0.4472010000000  0.4125190000000  0.5402240000000 1.0
C      1  0.4454350000000  0.4239080000000  0.4983170000000 1.0
C      1  0.4510190000000  0.4112300000000  0.4556730000000 1.0
C      1  0.4907720000000  0.4211630000000  0.4425740000000 1.0
C      1  0.5328340000000  0.4250050000000  0.4495920000000 1.0
C      1  0.5646280000000  0.4155930000000  0.4791660000000 1.0
C      1  0.5601590000000  0.5832930000000  0.4637970000000 1.0
C      1  0.5676470000000  0.5837060000000  0.5104910000000 1.0
C      1  0.5453990000000  0.5844440000000  0.5517270000000 1.0
C      1  0.5015950000000  0.5853380000000  0.5681340000000 1.0
C      1  0.4564200000000  0.5842830000000  0.5545140000000 1.0
C      1  0.4332460000000  0.5843720000000  0.5136640000000 1.0
C      1  0.4397360000000  0.5843690000000  0.4674810000000 1.0
C      1  0.4754800000000  0.5849870000000  0.4365000000000 1.0
C      1  0.5234270000000  0.5846280000000  0.4351400000000 1.0
C      1  0.4221600000000  0.5491580000000  0.5470090000000 1.0
C      1  0.4093310000000  0.5504010000000  0.4840560000000 1.0
C      1  0.4384930000000  0.5518430000000  0.4304620000000 1.0
C      1  0.4996480000000  0.5503310000000  0.4093930000000 1.0
C      1  0.5604330000000  0.5478670000000  0.4300100000000 1.0
C      1  0.5881050000000  0.5473030000000  0.4828020000000 1.0
C      1  0.5773140000000  0.5503620000000  0.5466730000000 1.0
C      1  0.5318110000000  0.5503290000000  0.5847450000000 1.0
C      1  0.4698370000000  0.5505350000000  0.5862220000000 1.0
C      1  0.5533610000000  0.5372050000000  0.5493270000000 1.0
C      1  0.5093670000000  0.5354070000000  0.5746280000000 1.0
C      1  0.4608700000000  0.5368920000000  0.5619010000000 1.0
C      1  0.4285800000000  0.5347110000000  0.5225790000000 1.0
C      1  0.4307330000000  0.5378840000000  0.4719780000000 1.0
C      1  0.4630330000000  0.5360440000000  0.4320470000000 1.0
C      1  0.5174860000000  0.5351480000000  0.4270660000000 1.0
C      1  0.5583500000000  0.5359410000000  0.4552090000000 1.0
C      1  0.5742610000000  0.5343900000000  0.5045190000000 1.0
C      1  0.5308780000000  0.5417310000000  0.5313160000000 1.0
C      1  0.5031130000000  0.5305580000000  0.5440740000000 1.0
C      1  0.4743860000000  0.5419960000000  0.5362530000000 1.0
C      1  0.4572620000000  0.5304780000000  0.5116120000000 1.0
C      1  0.4578010000000  0.5421780000000  0.4803270000000 1.0
C      1  0.4748480000000  0.5306490000000  0.4586930000000 1.0
C      1  0.5155350000000  0.5309510000000  0.4564410000000 1.0
C      1  0.5375740000000  0.5419710000000  0.4737700000000 1.0
C      1  0.5430530000000  0.5299380000000  0.5046100000000 1.0
C      1  0.4685330000000  0.5081560000000  0.3945300000000 1.0
C      1  0.5439560000000  0.5077190000000  0.4035670000000 1.0
C      1  0.5911560000000  0.5017500000000  0.4554350000000 1.0
C      1  0.6067950000000  0.5102880000000  0.5287620000000 1.0
C      1  0.5624900000000  0.5079840000000  0.5856560000000 1.0
C      1  0.4932510000000  0.5063920000000  0.6089660000000 1.0
C      1  0.4275790000000  0.5076610000000  0.5762780000000 1.0
C      1  0.3924320000000  0.5063760000000  0.5113470000000 1.0
C      1  0.4107290000000  0.5080290000000  0.4410500000000 1.0
C      1  0.4491600000000  0.4953830000000  0.5877590000000 1.0
C      1  0.4025590000000  0.4967140000000  0.5345850000000 1.0
C      1  0.4065460000000  0.4916630000000  0.4626370000000 1.0
C      1  0.4479180000000  0.4981140000000  0.4089000000000 1.0
C      1  0.5183970000000  0.4975730000000  0.3983450000000 1.0
C      1  0.5766820000000  0.4813940000000  0.4418040000000 1.0
C      1  0.6077260000000  0.5005680000000  0.5038060000000 1.0
C      1  0.5778340000000  0.4970300000000  0.5663920000000 1.0
C      1  0.5170600000000  0.4969390000000  0.6019910000000 1.0
C      1  0.5841870000000  0.4529120000000  0.5103520000000 1.0
C      1  0.5570150000000  0.4540630000000  0.5572620000000 1.0
C      1  0.5082820000000  0.4535820000000  0.5797360000000 1.0
C      1  0.4546570000000  0.4544660000000  0.5655260000000 1.0
C      1  0.4232250000000  0.4536840000000  0.5220900000000 1.0
C      1  0.4261680000000  0.4533520000000  0.4664230000000 1.0
C      1  0.4606590000000  0.4520500000000  0.4264820000000 1.0
C      1  0.5123670000000  0.4502040000000  0.4129770000000 1.0
C      1  0.5769920000000  0.4567430000000  0.4582130000000 1.0
C      1  0.4320750000000  0.4651630000000  0.5478180000000 1.0
C      1  0.4176470000000  0.4640810000000  0.4935240000000 1.0
C      1  0.4383070000000  0.4643260000000  0.4412530000000 1.0
C      1  0.4849500000000  0.4630440000000  0.4130560000000 1.0
C      1  0.5362890000000  0.4652310000000  0.4168160000000 1.0
C      1  0.5902500000000  0.4636760000000  0.4838610000000 1.0
C      1  0.5769860000000  0.4647250000000  0.5376880000000 1.0
C      1  0.5354230000000  0.4647210000000  0.5759200000000 1.0
C      1  0.4791820000000  0.4644060000000  0.5796650000000 1.0
C      1  0.5400590000000  0.5851950000000  0.5057050000000 1.0
C      1  0.5265410000000  0.5761010000000  0.5295510000000 1.0
C      1  0.5012540000000  0.5856350000000  0.5401180000000 1.0
C      1  0.4755090000000  0.5761220000000  0.5315470000000 1.0
C      1  0.4608710000000  0.5853630000000  0.5083010000000 1.0
C      1  0.4652330000000  0.5764330000000  0.4815930000000 1.0
C      1  0.4857300000000  0.5870700000000  0.4628150000000 1.0
C      1  0.5135230000000  0.5877450000000  0.4618330000000 1.0
C      1  0.5341250000000  0.5762880000000  0.4790970000000 1.0
C      1  0.4960970000000  0.4491090000000  0.5356880000000 1.0
C      1  0.4753440000000  0.4616070000000  0.5239500000000 1.0
C      1  0.4656330000000  0.4492380000000  0.5015100000000 1.0
C      1  0.4748080000000  0.4614520000000  0.4792930000000 1.0
C      1  0.4928820000000  0.4477680000000  0.4636140000000 1.0
C      1  0.5182770000000  0.4476820000000  0.4661650000000 1.0
C      1  0.5315380000000  0.4618620000000  0.4854740000000 1.0
C      1  0.5348170000000  0.4495000000000  0.5099230000000 1.0
C      1  0.5200010000000  0.4610280000000  0.5290720000000 1.0
C      1  0.4297880000000  0.4259910000000  0.5232610000000 1.0
C      1  0.4337840000000  0.4262110000000  0.4709870000000 1.0
C      1  0.4629250000000  0.4242770000000  0.4342720000000 1.0
C      1  0.5148080000000  0.4254760000000  0.4272890000000 1.0
C      1  0.5627730000000  0.4316870000000  0.4560580000000 1.0
C      1  0.5754560000000  0.4267670000000  0.5034730000000 1.0
C      1  0.5519710000000  0.4271480000000  0.5500860000000 1.0
C      1  0.5107670000000  0.4258140000000  0.5735060000000 1.0
C      1  0.4592820000000  0.4270840000000  0.5602590000000 1.0
C      1  0.4038320000000  0.5335390000000  0.5079220000000 1.0
C      1  0.4197000000000  0.5362050000000  0.4468580000000 1.0
C      1  0.4748840000000  0.5353000000000  0.4052620000000 1.0
C      1  0.5422510000000  0.5332550000000  0.4149080000000 1.0
C      1  0.5845450000000  0.5306160000000  0.4580730000000 1.0
C      1  0.5920760000000  0.5357690000000  0.5269800000000 1.0
C      1  0.5547290000000  0.5352140000000  0.5764590000000 1.0
C      1  0.4914380000000  0.5340570000000  0.5972560000000 1.0
C      1  0.4342070000000  0.5337630000000  0.5662370000000 1.0
C      1  0.5930670000000  0.4874780000000  0.5468420000000 1.0
C      1  0.5411010000000  0.4871060000000  0.5944000000000 1.0
C      1  0.4716970000000  0.4852870000000  0.5989750000000 1.0
C      1  0.4143440000000  0.4868440000000  0.5570460000000 1.0
C      1  0.3992050000000  0.4854300000000  0.4885350000000 1.0
C      1  0.4279260000000  0.4875610000000  0.4257200000000 1.0
C      1  0.4919860000000  0.4874850000000  0.3984110000000 1.0
C      1  0.5562150000000  0.4835150000000  0.4189730000000 1.0
C      1  0.6053610000000  0.4890260000000  0.4788260000000 1.0
C      1  0.4852440000000  0.5047900000000  0.4632120000000 1.0
C      1  0.5132130000000  0.5026190000000  0.4633740000000 1.0
C      1  0.5298240000000  0.4892180000000  0.4830420000000 1.0
C      1  0.5360080000000  0.5022280000000  0.5064730000000 1.0
C      1  0.5230080000000  0.4896750000000  0.5290310000000 1.0
C      1  0.4987670000000  0.5019730000000  0.5385080000000 1.0
C      1  0.4760890000000  0.4892490000000  0.5275370000000 1.0
C      1  0.4633650000000  0.5019940000000  0.5063180000000 1.0
C      1  0.4709650000000  0.4893660000000  0.4813120000000 1.0
C      1  0.5221150000000  0.4007650000000  0.4652650000000 1.0
C      1  0.5411820000000  0.3983080000000  0.4859510000000 1.0
C      1  0.5368840000000  0.3991980000000  0.5139700000000 1.0
C      1  0.5198690000000  0.3965390000000  0.5366020000000 1.0
C      1  0.4915520000000  0.3983920000000  0.5387300000000 1.0
C      1  0.4658910000000  0.3957570000000  0.5266110000000 1.0
C      1  0.4601420000000  0.3980840000000  0.4988390000000 1.0
C      1  0.4684920000000  0.3951740000000  0.4717720000000 1.0
C      1  0.4947190000000  0.3979510000000  0.4609300000000 1.0
C      1  0.4313990000000  0.5767820000000  0.5424200000000 1.0
C      1  0.4206890000000  0.5775500000000  0.4878840000000 1.0
C      1  0.4467120000000  0.5781630000000  0.4400280000000 1.0
C      1  0.4989050000000  0.5773490000000  0.4204060000000 1.0
C      1  0.5516260000000  0.5761130000000  0.4373880000000 1.0
C      1  0.5793070000000  0.5753160000000  0.4842500000000 1.0
C      1  0.5701470000000  0.5774290000000  0.5390970000000 1.0
C      1  0.5293350000000  0.5776780000000  0.5747600000000 1.0
C      1  0.4738940000000  0.5780090000000  0.5766740000000 1.0
END
