TITL C-2441157-2117-621 0.126922971611598 125000 -21199.7237055886 0 0 166 (C1) n - 1
REM
REM in /home/bkarasulu/work/CARBON/AIRSS/Generating-Clusters/ReaxFF-fromJPCA2015/Units_Real/with-SteepDescent/Higher-Symm
REM
REM
REM
REM
REM
REM ./C.cell (1df0a924f5614ab8850e4351716899ee)
REM
REM compiler GCC version 9.2.1 20190827 (Red Hat 9.2.1-1)
REM options -cpp -mtune=generic -march=x86-64 -g -O0 -fpre-include=/usr/include/finclude/math-vector-fortran.h
REM seed -1425583457 -1070905752 -1208093776 -918161431 2068263037 2117643872 1832026593 -938908302 1848476772 125157558 254143533 1324338947 -54752761 -8205039 -1670600252 497642784 -1635468845 -2002072453 418362757 -122567186 -292609859 834850883 -577541571 55152099 552395685 380024605 -966645300 796945669 177673390 -1981240044 789115061 432390928 -647426619
REM
CELL 1.54180   50.00000   50.00000   50.00000   90.00000   90.00000   90.00000
LATT -1
SFAC C  
C      1  0.4893770000000  0.4807630000000  0.4119980000000 1.0
C      1  0.4224940000000  0.4855960000000  0.4495890000000 1.0
C      1  0.4128330000000  0.4844310000000  0.5343710000000 1.0
C      1  0.4746810000000  0.4817600000000  0.5798170000000 1.0
C      1  0.5412930000000  0.4723080000000  0.5744360000000 1.0
C      1  0.5888970000000  0.4835300000000  0.5119830000000 1.0
C      1  0.5636380000000  0.4891550000000  0.4265670000000 1.0
C      1  0.4507100000000  0.5476370000000  0.4517150000000 1.0
C      1  0.4311660000000  0.5468840000000  0.5102670000000 1.0
C      1  0.4649210000000  0.5480210000000  0.5604800000000 1.0
C      1  0.5251890000000  0.5458580000000  0.5639710000000 1.0
C      1  0.5674090000000  0.5466450000000  0.5220780000000 1.0
C      1  0.5542250000000  0.5463800000000  0.4630320000000 1.0
C      1  0.5043560000000  0.5465180000000  0.4304990000000 1.0
C      1  0.4589480000000  0.4416190000000  0.4277930000000 1.0
C      1  0.4159240000000  0.4453380000000  0.4855190000000 1.0
C      1  0.4383990000000  0.4419540000000  0.5557330000000 1.0
C      1  0.5020370000000  0.4389320000000  0.5852450000000 1.0
C      1  0.5749240000000  0.4472150000000  0.5405880000000 1.0
C      1  0.5789010000000  0.4398390000000  0.4734640000000 1.0
C      1  0.5330100000000  0.4452270000000  0.4218690000000 1.0
C      1  0.4645000000000  0.4958130000000  0.4954860000000 1.0
C      1  0.4742060000000  0.4889890000000  0.5225280000000 1.0
C      1  0.5062250000000  0.4829910000000  0.5354690000000 1.0
C      1  0.5332980000000  0.4845190000000  0.5184940000000 1.0
C      1  0.5336280000000  0.4846320000000  0.4891720000000 1.0
C      1  0.4996150000000  0.4844510000000  0.4626780000000 1.0
C      1  0.4708890000000  0.4828940000000  0.4709450000000 1.0
C      1  0.4768770000000  0.5209990000000  0.5547430000000 1.0
C      1  0.5296010000000  0.5181720000000  0.5517890000000 1.0
C      1  0.5561710000000  0.5207250000000  0.5105000000000 1.0
C      1  0.5377550000000  0.5202020000000  0.4620690000000 1.0
C      1  0.4979450000000  0.5184730000000  0.4336640000000 1.0
C      1  0.4625420000000  0.5238400000000  0.4574070000000 1.0
C      1  0.4331840000000  0.5191540000000  0.5196150000000 1.0
C      1  0.4349300000000  0.5022190000000  0.4954250000000 1.0
C      1  0.4554120000000  0.5025960000000  0.5415140000000 1.0
C      1  0.5058240000000  0.5007160000000  0.5582570000000 1.0
C      1  0.5521000000000  0.5013000000000  0.5333710000000 1.0
C      1  0.5563650000000  0.5028990000000  0.4803950000000 1.0
C      1  0.5178880000000  0.4998490000000  0.4415060000000 1.0
C      1  0.4697380000000  0.5088950000000  0.4350580000000 1.0
C      1  0.4449770000000  0.5745020000000  0.5391550000000 1.0
C      1  0.4961060000000  0.5730730000000  0.5668570000000 1.0
C      1  0.5498330000000  0.5748310000000  0.5457070000000 1.0
C      1  0.5644450000000  0.5751870000000  0.4891960000000 1.0
C      1  0.5309030000000  0.5743080000000  0.4419030000000 1.0
C      1  0.4740500000000  0.5759130000000  0.4366940000000 1.0
C      1  0.4365580000000  0.5740210000000  0.4801990000000 1.0
C      1  0.4303020000000  0.4439870000000  0.5137520000000 1.0
C      1  0.4637990000000  0.4390620000000  0.5700700000000 1.0
C      1  0.5241350000000  0.4473350000000  0.5671700000000 1.0
C      1  0.5658010000000  0.4438270000000  0.5135700000000 1.0
C      1  0.5554940000000  0.4457870000000  0.4560900000000 1.0
C      1  0.5000970000000  0.4423610000000  0.4324580000000 1.0
C      1  0.4424440000000  0.4435300000000  0.4550510000000 1.0
C      1  0.4233530000000  0.5567870000000  0.5486990000000 1.0
C      1  0.4899040000000  0.5546540000000  0.5906020000000 1.0
C      1  0.5641310000000  0.5561570000000  0.5655280000000 1.0
C      1  0.5887780000000  0.5570010000000  0.4880340000000 1.0
C      1  0.5469660000000  0.5557540000000  0.4241370000000 1.0
C      1  0.4686500000000  0.5566450000000  0.4140910000000 1.0
C      1  0.4159370000000  0.5548080000000  0.4698490000000 1.0
C      1  0.4904100000000  0.5348300000000  0.5330650000000 1.0
C      1  0.5158900000000  0.5283800000000  0.5284710000000 1.0
C      1  0.5300620000000  0.5336030000000  0.5086690000000 1.0
C      1  0.5132370000000  0.5332030000000  0.4714150000000 1.0
C      1  0.4852440000000  0.5270420000000  0.4732170000000 1.0
C      1  0.4724780000000  0.5366420000000  0.4936820000000 1.0
C      1  0.4703340000000  0.5449370000000  0.5158350000000 1.0
C      1  0.5527400000000  0.4450960000000  0.5748610000000 1.0
C      1  0.5865440000000  0.4594390000000  0.4950190000000 1.0
C      1  0.5557180000000  0.4616230000000  0.4301310000000 1.0
C      1  0.4808590000000  0.4562580000000  0.4155010000000 1.0
C      1  0.4188180000000  0.4597420000000  0.4600580000000 1.0
C      1  0.4220500000000  0.4593860000000  0.5384530000000 1.0
C      1  0.4778030000000  0.4551050000000  0.5899730000000 1.0
C      1  0.5379790000000  0.3957090000000  0.5187730000000 1.0
C      1  0.5303520000000  0.3930470000000  0.4780720000000 1.0
C      1  0.5059280000000  0.3929950000000  0.4579830000000 1.0
C      1  0.4695580000000  0.3924750000000  0.4758120000000 1.0
C      1  0.4553920000000  0.3925280000000  0.5032300000000 1.0
C      1  0.4819750000000  0.3959470000000  0.5321610000000 1.0
C      1  0.5206000000000  0.3972590000000  0.5436240000000 1.0
C      1  0.5987620000000  0.5082420000000  0.5011460000000 1.0
C      1  0.5505540000000  0.5058840000000  0.4062770000000 1.0
C      1  0.4767340000000  0.5015640000000  0.3963580000000 1.0
C      1  0.4033810000000  0.5031230000000  0.4650890000000 1.0
C      1  0.4148740000000  0.5037930000000  0.5580760000000 1.0
C      1  0.4792970000000  0.5044910000000  0.5987650000000 1.0
C      1  0.5670340000000  0.5048990000000  0.5789400000000 1.0
C      1  0.5171060000000  0.4919690000000  0.6072910000000 1.0
C      1  0.5891090000000  0.4915950000000  0.5627090000000 1.0
C      1  0.6023370000000  0.4840360000000  0.4564090000000 1.0
C      1  0.5276150000000  0.4925510000000  0.3950030000000 1.0
C      1  0.4432110000000  0.4897010000000  0.4078950000000 1.0
C      1  0.3918110000000  0.4892970000000  0.4887160000000 1.0
C      1  0.4307360000000  0.4920320000000  0.5798960000000 1.0
C      1  0.6021980000000  0.5086670000000  0.5443410000000 1.0
C      1  0.5888250000000  0.5017840000000  0.4357590000000 1.0
C      1  0.5035660000000  0.5073230000000  0.3858980000000 1.0
C      1  0.4194550000000  0.4994930000000  0.4216770000000 1.0
C      1  0.3794490000000  0.5068070000000  0.5099890000000 1.0
C      1  0.4492330000000  0.5074740000000  0.5986410000000 1.0
C      1  0.5431360000000  0.5034370000000  0.6018430000000 1.0
C      1  0.4570540000000  0.5292110000000  0.4117670000000 1.0
C      1  0.4157060000000  0.5266750000000  0.4757320000000 1.0
C      1  0.4237850000000  0.5313760000000  0.5644650000000 1.0
C      1  0.4995190000000  0.5280330000000  0.5980240000000 1.0
C      1  0.5727300000000  0.5291380000000  0.5666590000000 1.0
C      1  0.5926560000000  0.5295810000000  0.4786210000000 1.0
C      1  0.5388730000000  0.5330480000000  0.4078380000000 1.0
C      1  0.4639760000000  0.4551230000000  0.4747260000000 1.0
C      1  0.4574100000000  0.4506760000000  0.5016190000000 1.0
C      1  0.4780470000000  0.4588640000000  0.5192390000000 1.0
C      1  0.5147970000000  0.4543890000000  0.5360510000000 1.0
C      1  0.5352870000000  0.4544780000000  0.5152500000000 1.0
C      1  0.5306120000000  0.4560970000000  0.4753610000000 1.0
C      1  0.5067590000000  0.4545560000000  0.4605560000000 1.0
C      1  0.4303420000000  0.4228770000000  0.4732420000000 1.0
C      1  0.4379990000000  0.4223000000000  0.5342840000000 1.0
C      1  0.4864780000000  0.4221270000000  0.5684500000000 1.0
C      1  0.5614930000000  0.4286380000000  0.5554510000000 1.0
C      1  0.5688860000000  0.4225960000000  0.4941950000000 1.0
C      1  0.5415970000000  0.4248890000000  0.4411010000000 1.0
C      1  0.4788520000000  0.4217040000000  0.4354720000000 1.0
C      1  0.5436370000000  0.5727850000000  0.4684790000000 1.0
C      1  0.5014840000000  0.5714510000000  0.4463370000000 1.0
C      1  0.4601930000000  0.5733390000000  0.4631880000000 1.0
C      1  0.4459340000000  0.5730320000000  0.5087060000000 1.0
C      1  0.4730180000000  0.5731080000000  0.5478900000000 1.0
C      1  0.5205830000000  0.5711390000000  0.5502720000000 1.0
C      1  0.5531150000000  0.5715000000000  0.5166520000000 1.0
C      1  0.5712360000000  0.5497000000000  0.4393060000000 1.0
C      1  0.4952660000000  0.5542850000000  0.4029340000000 1.0
C      1  0.4231000000000  0.5490120000000  0.4411710000000 1.0
C      1  0.4065840000000  0.5516400000000  0.5254310000000 1.0
C      1  0.4606580000000  0.5537630000000  0.5890060000000 1.0
C      1  0.5434130000000  0.5520870000000  0.5862590000000 1.0
C      1  0.5957340000000  0.5506430000000  0.5155820000000 1.0
C      1  0.5249390000000  0.4121630000000  0.4577990000000 1.0
C      1  0.4839390000000  0.4078900000000  0.4586790000000 1.0
C      1  0.4512180000000  0.4113110000000  0.4855720000000 1.0
C      1  0.4603350000000  0.4081520000000  0.5248360000000 1.0
C      1  0.4968920000000  0.4099010000000  0.5465060000000 1.0
C      1  0.5432020000000  0.4127060000000  0.5420650000000 1.0
C      1  0.5447100000000  0.4091220000000  0.4953860000000 1.0
C      1  0.5758690000000  0.4776210000000  0.5379550000000 1.0
C      1  0.5768520000000  0.4812870000000  0.4716880000000 1.0
C      1  0.5182750000000  0.4785710000000  0.4188280000000 1.0
C      1  0.4537910000000  0.4805700000000  0.4328590000000 1.0
C      1  0.4151070000000  0.4811610000000  0.5045200000000 1.0
C      1  0.4510180000000  0.4806420000000  0.5620180000000 1.0
C      1  0.5149500000000  0.4844660000000  0.5800530000000 1.0
C      1  0.5879910000000  0.5277710000000  0.4497610000000 1.0
C      1  0.5134760000000  0.5336470000000  0.3931150000000 1.0
C      1  0.4285140000000  0.5275710000000  0.4212300000000 1.0
C      1  0.4008270000000  0.5230100000000  0.5229560000000 1.0
C      1  0.4397110000000  0.5331440000000  0.5894880000000 1.0
C      1  0.5300440000000  0.5297760000000  0.6010190000000 1.0
C      1  0.6102820000000  0.5245860000000  0.5224960000000 1.0
C      1  0.5171570000000  0.5519140000000  0.4915880000000 1.0
C      1  0.4948310000000  0.5981300000000  0.5025320000000 1.0
C      1  0.5048590000000  0.5769030000000  0.4977060000000 1.0
C      1  0.4985960000000  0.4654710000000  0.4996410000000 1.0
C      1  0.5044550000000  0.4925140000000  0.4910330000000 1.0
END
