TITL C-2441154-10-1486 0.000545653936263207 125000 -5348.6633702337 0 0 36 (C1) n - 1
REM
REM in /home/bkarasulu/work/CARBON/AIRSS/Generating-Clusters/ReaxFF-fromJPCA2015/Units_Real/with-SteepDescent/Higher-Symm
REM
REM
REM
REM
REM
REM ./C.cell (1df0a924f5614ab8850e4351716899ee)
REM
REM compiler GCC version 9.2.1 20190827 (Red Hat 9.2.1-1)
REM options -cpp -mtune=generic -march=x86-64 -g -O0 -fpre-include=/usr/include/finclude/math-vector-fortran.h
REM seed 115368478 -1340435635 -184084837 -1069190886 1431313497 -352094718 987568515 -436567463 -1194160545 -619718266 -1723675314 -1236664706 -242028398 339848332 -1626194901 -1788280788 -748431082 2080591964 1686968073 2087956871 -1298748868 430811505 -1569253379 358973755 -1770640407 1324526727 -393771773 382881322 -993776245 -531584172 -253668557 -588875439 250095178
REM
CELL 1.54180   50.00000   50.00000   50.00000   90.00000   90.00000   90.00000
LATT -1
SFAC C  
C      1  0.5490140000000  0.5008660000000  0.5201020000000 1.0
C      1  0.5223530000000  0.4589440000000  0.5184040000000 1.0
C      1  0.4552350000000  0.4579110000000  0.5157050000000 1.0
C      1  0.4422540000000  0.5322260000000  0.5164710000000 1.0
C      1  0.5135850000000  0.5662940000000  0.5169110000000 1.0
C      1  0.4902080000000  0.4793000000000  0.4550570000000 1.0
C      1  0.4758520000000  0.5045620000000  0.4572810000000 1.0
C      1  0.4957100000000  0.5261070000000  0.4582800000000 1.0
C      1  0.5222200000000  0.5138970000000  0.4575370000000 1.0
C      1  0.5188720000000  0.4851580000000  0.4546830000000 1.0
C      1  0.5504080000000  0.4535380000000  0.5365020000000 1.0
C      1  0.4709930000000  0.4429040000000  0.5383550000000 1.0
C      1  0.4393850000000  0.5069700000000  0.5315410000000 1.0
C      1  0.4886660000000  0.5600010000000  0.5318180000000 1.0
C      1  0.5499680000000  0.5296880000000  0.5333770000000 1.0
C      1  0.4573440000000  0.4581030000000  0.4863280000000 1.0
C      1  0.4453440000000  0.5311880000000  0.4867080000000 1.0
C      1  0.5135800000000  0.5627860000000  0.4874610000000 1.0
C      1  0.5591050000000  0.5043000000000  0.4891140000000 1.0
C      1  0.5249950000000  0.4491250000000  0.4873840000000 1.0
C      1  0.5020620000000  0.4348330000000  0.4757310000000 1.0
C      1  0.4404350000000  0.4822810000000  0.4852480000000 1.0
C      1  0.4650590000000  0.5529030000000  0.4871770000000 1.0
C      1  0.5397490000000  0.5498830000000  0.4878590000000 1.0
C      1  0.5646620000000  0.4794750000000  0.4746840000000 1.0
C      1  0.5439960000000  0.5243560000000  0.4741020000000 1.0
C      1  0.5374490000000  0.4667610000000  0.4677720000000 1.0
C      1  0.4805270000000  0.4551490000000  0.4682360000000 1.0
C      1  0.4508750000000  0.5062710000000  0.4721650000000 1.0
C      1  0.4908230000000  0.5503960000000  0.4733530000000 1.0
C      1  0.5650980000000  0.4763860000000  0.5371330000000 1.0
C      1  0.4989040000000  0.4467870000000  0.5326640000000 1.0
C      1  0.4373740000000  0.4814950000000  0.5153670000000 1.0
C      1  0.4632710000000  0.5550010000000  0.5167600000000 1.0
C      1  0.5417350000000  0.5520430000000  0.5179370000000 1.0
C      1  0.5212490000000  0.4895820000000  0.5198880000000 1.0
END
