TITL C-2441154-10-1139 0.127257436746857 125000 -19611.8304025084 0 0 154 (C1) n - 1
REM
REM in /home/bkarasulu/work/CARBON/AIRSS/Generating-Clusters/ReaxFF-fromJPCA2015/Units_Real/with-SteepDescent/Higher-Symm
REM
REM
REM
REM
REM
REM ./C.cell (1df0a924f5614ab8850e4351716899ee)
REM
REM compiler GCC version 9.2.1 20190827 (Red Hat 9.2.1-1)
REM options -cpp -mtune=generic -march=x86-64 -g -O0 -fpre-include=/usr/include/finclude/math-vector-fortran.h
REM seed -924042703 -46072528 10360056 -834140852 -303549947 -2041554829 235859603 213658246 757371850 -2049935795 -1763927750 2066013546 1677156397 -554444594 -906407355 -465545287 -37003468 450071706 540801721 -9059101 -553586111 -449661900 1225689501 -739951302 -475716057 -25636650 705285276 1003121680 -1684289005 1285661323 -302825314 117852424 -1045053074
REM
CELL 1.54180   50.00000   50.00000   50.00000   90.00000   90.00000   90.00000
LATT -1
SFAC C  
C      1  0.4081890000000  0.5095220000000  0.5406410000000 1.0
C      1  0.4002110000000  0.4881050000000  0.4694210000000 1.0
C      1  0.4030440000000  0.4851640000000  0.5264520000000 1.0
C      1  0.4033890000000  0.5163700000000  0.4648910000000 1.0
C      1  0.5014870000000  0.4730430000000  0.5181060000000 1.0
C      1  0.5040110000000  0.5122440000000  0.4736240000000 1.0
C      1  0.5041040000000  0.5210200000000  0.5241020000000 1.0
C      1  0.5057450000000  0.4686070000000  0.4747890000000 1.0
C      1  0.5090580000000  0.4126820000000  0.5638030000000 1.0
C      1  0.5082750000000  0.5890040000000  0.4352170000000 1.0
C      1  0.5173090000000  0.5863490000000  0.5603110000000 1.0
C      1  0.5099680000000  0.4123140000000  0.4375190000000 1.0
C      1  0.4942570000000  0.4448200000000  0.5123860000000 1.0
C      1  0.4831680000000  0.5554870000000  0.4752320000000 1.0
C      1  0.4973560000000  0.5491340000000  0.5205850000000 1.0
C      1  0.5060680000000  0.4427610000000  0.4872490000000 1.0
C      1  0.4624270000000  0.5705270000000  0.4278140000000 1.0
C      1  0.4616430000000  0.4318190000000  0.5736470000000 1.0
C      1  0.4617750000000  0.4399750000000  0.4199600000000 1.0
C      1  0.4642350000000  0.5605840000000  0.5755640000000 1.0
C      1  0.4404160000000  0.4398570000000  0.5293580000000 1.0
C      1  0.4408140000000  0.5610380000000  0.4707020000000 1.0
C      1  0.4481580000000  0.5570310000000  0.5224010000000 1.0
C      1  0.4480320000000  0.4459930000000  0.4733270000000 1.0
C      1  0.5213080000000  0.5243550000000  0.4148690000000 1.0
C      1  0.5236330000000  0.4765430000000  0.5847210000000 1.0
C      1  0.5209430000000  0.4760380000000  0.4136800000000 1.0
C      1  0.5215080000000  0.5223760000000  0.5852060000000 1.0
C      1  0.4842610000000  0.4811750000000  0.5402810000000 1.0
C      1  0.4838580000000  0.5052250000000  0.4546870000000 1.0
C      1  0.4854640000000  0.5085530000000  0.5441790000000 1.0
C      1  0.4799590000000  0.4764650000000  0.4617690000000 1.0
C      1  0.4393100000000  0.5232520000000  0.4353830000000 1.0
C      1  0.4387790000000  0.4775270000000  0.5698600000000 1.0
C      1  0.4421230000000  0.4756050000000  0.4290700000000 1.0
C      1  0.4379290000000  0.5282880000000  0.5702290000000 1.0
C      1  0.4860080000000  0.4630860000000  0.5639040000000 1.0
C      1  0.4928160000000  0.5450240000000  0.4515700000000 1.0
C      1  0.4920740000000  0.5538340000000  0.5492620000000 1.0
C      1  0.4860250000000  0.4488960000000  0.4398950000000 1.0
C      1  0.4831030000000  0.4845140000000  0.5839930000000 1.0
C      1  0.4812240000000  0.5135470000000  0.4269530000000 1.0
C      1  0.4844660000000  0.5124900000000  0.5726790000000 1.0
C      1  0.4873650000000  0.4900540000000  0.4115060000000 1.0
C      1  0.4247400000000  0.5232650000000  0.5223660000000 1.0
C      1  0.4266240000000  0.4815680000000  0.4681900000000 1.0
C      1  0.4310570000000  0.4791900000000  0.5211400000000 1.0
C      1  0.4215480000000  0.5203460000000  0.4813000000000 1.0
C      1  0.5252900000000  0.5691130000000  0.5804430000000 1.0
C      1  0.5303310000000  0.4288330000000  0.4280740000000 1.0
C      1  0.5297460000000  0.4287720000000  0.5711990000000 1.0
C      1  0.5276260000000  0.5717810000000  0.4271970000000 1.0
C      1  0.5327900000000  0.4134610000000  0.5228960000000 1.0
C      1  0.5333400000000  0.5857140000000  0.4761430000000 1.0
C      1  0.5248350000000  0.5758260000000  0.5187050000000 1.0
C      1  0.5280950000000  0.4191580000000  0.4783380000000 1.0
C      1  0.5328740000000  0.4749130000000  0.4697520000000 1.0
C      1  0.5343410000000  0.5249000000000  0.5192810000000 1.0
C      1  0.5271260000000  0.5282030000000  0.4701680000000 1.0
C      1  0.5357260000000  0.4764300000000  0.5216140000000 1.0
C      1  0.5068220000000  0.4006830000000  0.4873980000000 1.0
C      1  0.5069180000000  0.5971710000000  0.5122280000000 1.0
C      1  0.5079480000000  0.5968690000000  0.4837370000000 1.0
C      1  0.5061640000000  0.4033150000000  0.5158470000000 1.0
C      1  0.5670960000000  0.5452990000000  0.4813230000000 1.0
C      1  0.5804270000000  0.4464130000000  0.5156950000000 1.0
C      1  0.5702290000000  0.4574680000000  0.4884980000000 1.0
C      1  0.5761990000000  0.5446510000000  0.5214470000000 1.0
C      1  0.5080840000000  0.5480480000000  0.4274000000000 1.0
C      1  0.5109600000000  0.4523220000000  0.5762100000000 1.0
C      1  0.5114230000000  0.4516860000000  0.4250090000000 1.0
C      1  0.5094370000000  0.5472240000000  0.5745060000000 1.0
C      1  0.4830700000000  0.4186660000000  0.5271780000000 1.0
C      1  0.4831110000000  0.5856610000000  0.4732950000000 1.0
C      1  0.4822850000000  0.5967260000000  0.5261810000000 1.0
C      1  0.4820920000000  0.4029830000000  0.4738700000000 1.0
C      1  0.5644380000000  0.4452420000000  0.4600950000000 1.0
C      1  0.5602950000000  0.5560740000000  0.5426170000000 1.0
C      1  0.5634880000000  0.5549550000000  0.4546200000000 1.0
C      1  0.5667160000000  0.4440350000000  0.5409080000000 1.0
C      1  0.4551940000000  0.4905850000000  0.5906180000000 1.0
C      1  0.4545900000000  0.5152840000000  0.4123180000000 1.0
C      1  0.4595440000000  0.5201930000000  0.5877660000000 1.0
C      1  0.4589500000000  0.4862060000000  0.4066070000000 1.0
C      1  0.4817070000000  0.4143800000000  0.5579370000000 1.0
C      1  0.4807750000000  0.5895070000000  0.4420160000000 1.0
C      1  0.4877320000000  0.5828120000000  0.5513860000000 1.0
C      1  0.4862330000000  0.4196250000000  0.4498690000000 1.0
C      1  0.4432580000000  0.4223890000000  0.4876640000000 1.0
C      1  0.4421140000000  0.5844240000000  0.5139910000000 1.0
C      1  0.4433400000000  0.5847620000000  0.4860310000000 1.0
C      1  0.4519490000000  0.4134410000000  0.5161060000000 1.0
C      1  0.4224440000000  0.4561480000000  0.4801660000000 1.0
C      1  0.4219400000000  0.5491400000000  0.5123930000000 1.0
C      1  0.4192030000000  0.5481370000000  0.4834520000000 1.0
C      1  0.4241940000000  0.4538200000000  0.5103520000000 1.0
C      1  0.5450690000000  0.5770510000000  0.4505280000000 1.0
C      1  0.5456180000000  0.4231920000000  0.5469500000000 1.0
C      1  0.5451620000000  0.4251980000000  0.4536750000000 1.0
C      1  0.5391530000000  0.5774940000000  0.5429280000000 1.0
C      1  0.5520880000000  0.4744950000000  0.5764990000000 1.0
C      1  0.5498740000000  0.5261980000000  0.4143010000000 1.0
C      1  0.5506380000000  0.5253220000000  0.5851160000000 1.0
C      1  0.5503370000000  0.4741240000000  0.4192310000000 1.0
C      1  0.5491580000000  0.4656130000000  0.4469690000000 1.0
C      1  0.5488560000000  0.5329430000000  0.5559440000000 1.0
C      1  0.5479350000000  0.5334000000000  0.4446040000000 1.0
C      1  0.5497700000000  0.4660400000000  0.5481910000000 1.0
C      1  0.4438010000000  0.4486620000000  0.4407610000000 1.0
C      1  0.4474470000000  0.5522330000000  0.5546630000000 1.0
C      1  0.4459350000000  0.5513780000000  0.4437050000000 1.0
C      1  0.4447450000000  0.4506350000000  0.5569880000000 1.0
C      1  0.5221620000000  0.5004980000000  0.4316300000000 1.0
C      1  0.5220870000000  0.4994180000000  0.5625160000000 1.0
C      1  0.4403940000000  0.4966520000000  0.4480410000000 1.0
C      1  0.4278820000000  0.5023750000000  0.5600520000000 1.0
C      1  0.5431550000000  0.4658590000000  0.4947320000000 1.0
C      1  0.5402870000000  0.5362720000000  0.4923870000000 1.0
C      1  0.6175450000000  0.5003240000000  0.5394770000000 1.0
C      1  0.6027050000000  0.5004490000000  0.4663310000000 1.0
C      1  0.5916800000000  0.4988080000000  0.4396850000000 1.0
C      1  0.5988520000000  0.5001300000000  0.5570750000000 1.0
C      1  0.4732100000000  0.5427510000000  0.5028070000000 1.0
C      1  0.4638010000000  0.4715650000000  0.4862690000000 1.0
C      1  0.5459230000000  0.5790360000000  0.5002130000000 1.0
C      1  0.5475940000000  0.4179300000000  0.4994470000000 1.0
C      1  0.5721280000000  0.4300270000000  0.4963300000000 1.0
C      1  0.5715480000000  0.5651020000000  0.5020110000000 1.0
C      1  0.5519400000000  0.5053710000000  0.4464270000000 1.0
C      1  0.5551270000000  0.5057140000000  0.5517190000000 1.0
C      1  0.5661490000000  0.5005380000000  0.4203460000000 1.0
C      1  0.5664570000000  0.5010430000000  0.5778680000000 1.0
C      1  0.5780690000000  0.4997630000000  0.5385950000000 1.0
C      1  0.5748560000000  0.4966760000000  0.4609860000000 1.0
C      1  0.4645560000000  0.5990150000000  0.5017730000000 1.0
C      1  0.4587700000000  0.4015320000000  0.4896260000000 1.0
C      1  0.5774760000000  0.5122400000000  0.5118450000000 1.0
C      1  0.2524780000000  0.4997220000000  0.4996880000000 1.0
C      1  0.6519480000000  0.5002780000000  0.5037010000000 1.0
C      1  0.2765940000000  0.5001630000000  0.4997920000000 1.0
C      1  0.6765110000000  0.5001860000000  0.4997050000000 1.0
C      1  0.6008190000000  0.5025590000000  0.4946950000000 1.0
C      1  0.4682180000000  0.5133790000000  0.4984620000000 1.0
C      1  0.5485290000000  0.5016610000000  0.5119520000000 1.0
C      1  0.6243800000000  0.5005020000000  0.5116830000000 1.0
C      1  0.3937900000000  0.4892810000000  0.4990870000000 1.0
C      1  0.3251440000000  0.5045190000000  0.4984130000000 1.0
C      1  0.4950290000000  0.5018480000000  0.5006640000000 1.0
C      1  0.3716790000000  0.4978240000000  0.5042060000000 1.0
C      1  0.3016330000000  0.5018670000000  0.4993620000000 1.0
C      1  0.7266370000000  0.5002700000000  0.4986300000000 1.0
C      1  0.3489890000000  0.5039440000000  0.4992220000000 1.0
C      1  0.7022830000000  0.5002170000000  0.4985010000000 1.0
C      1  0.4400790000000  0.5041750000000  0.5050620000000 1.0
END
