TITL C-2441156-4686-36 0.00774434217095641 125000 -9681.97005524134 0 0 70 (C1) n - 1
REM
REM in /home/bkarasulu/work/CARBON/AIRSS/Generating-Clusters/ReaxFF-fromJPCA2015/Units_Real/with-SteepDescent/Higher-Symm
REM
REM
REM
REM
REM
REM ./C.cell (1df0a924f5614ab8850e4351716899ee)
REM
REM compiler GCC version 9.2.1 20190827 (Red Hat 9.2.1-1)
REM options -cpp -mtune=generic -march=x86-64 -g -O0 -fpre-include=/usr/include/finclude/math-vector-fortran.h
REM seed -2019636418 600008490 1014835762 2032122438 -602681032 -775831647 -1597339979 -1944215896 952192682 1519426940 -1255389809 1014159087 -1896898593 173236311 1014797037 612164700 264343406 -1947335005 149258569 1303669688 -327139521 1192498586 -211528185 2091225441 -1100616808 -1202319609 -2147220024 -661825419 -1433559641 1412669041 913333353 -619289371 1488411113
REM
CELL 1.54180   50.00000   50.00000   50.00000   90.00000   90.00000   90.00000
LATT -1
SFAC C  
C      1  0.4356040000000  0.5219230000000  0.4919030000000 1.0
C      1  0.4707470000000  0.5276580000000  0.5624060000000 1.0
C      1  0.5427190000000  0.5192120000000  0.5417420000000 1.0
C      1  0.5580460000000  0.5228770000000  0.4699630000000 1.0
C      1  0.4914710000000  0.5240750000000  0.4304680000000 1.0
C      1  0.4333870000000  0.4743680000000  0.5088970000000 1.0
C      1  0.4762890000000  0.4756560000000  0.4461400000000 1.0
C      1  0.5389240000000  0.4771300000000  0.4615500000000 1.0
C      1  0.5640950000000  0.4727940000000  0.5305430000000 1.0
C      1  0.4924110000000  0.4795750000000  0.5553770000000 1.0
C      1  0.4333280000000  0.5099250000000  0.4643290000000 1.0
C      1  0.4463330000000  0.5169940000000  0.5474440000000 1.0
C      1  0.5333470000000  0.5103540000000  0.5687890000000 1.0
C      1  0.5762480000000  0.5152790000000  0.4935920000000 1.0
C      1  0.5202100000000  0.5168750000000  0.4264170000000 1.0
C      1  0.4393580000000  0.4851220000000  0.5375970000000 1.0
C      1  0.4464300000000  0.4785740000000  0.4592400000000 1.0
C      1  0.5316570000000  0.4850260000000  0.4329300000000 1.0
C      1  0.5752430000000  0.4827340000000  0.5043940000000 1.0
C      1  0.5187920000000  0.4822390000000  0.5717590000000 1.0
C      1  0.4974560000000  0.5707950000000  0.4726540000000 1.0
C      1  0.4597650000000  0.5718290000000  0.4903010000000 1.0
C      1  0.4842840000000  0.5722980000000  0.5243430000000 1.0
C      1  0.5315130000000  0.5688350000000  0.5274200000000 1.0
C      1  0.5355600000000  0.5673550000000  0.4880890000000 1.0
C      1  0.4982350000000  0.4279150000000  0.5278400000000 1.0
C      1  0.4616650000000  0.4286440000000  0.5072890000000 1.0
C      1  0.4874460000000  0.4260450000000  0.4744880000000 1.0
C      1  0.5284700000000  0.4315750000000  0.4745030000000 1.0
C      1  0.5368890000000  0.4251710000000  0.5124950000000 1.0
C      1  0.4498680000000  0.4612690000000  0.5484320000000 1.0
C      1  0.5327630000000  0.4586760000000  0.5659970000000 1.0
C      1  0.5676920000000  0.4591940000000  0.4909620000000 1.0
C      1  0.5210190000000  0.4599790000000  0.4284330000000 1.0
C      1  0.4336480000000  0.4524650000000  0.4532750000000 1.0
C      1  0.4453000000000  0.5312140000000  0.4495910000000 1.0
C      1  0.5277810000000  0.5430170000000  0.4323030000000 1.0
C      1  0.5770220000000  0.5388170000000  0.5082840000000 1.0
C      1  0.5174190000000  0.5335660000000  0.5789280000000 1.0
C      1  0.4379980000000  0.5425450000000  0.5389440000000 1.0
C      1  0.4965890000000  0.5454830000000  0.5613770000000 1.0
C      1  0.5289610000000  0.5301580000000  0.5170220000000 1.0
C      1  0.5291680000000  0.5303810000000  0.4722240000000 1.0
C      1  0.4759330000000  0.5337920000000  0.4580860000000 1.0
C      1  0.4628960000000  0.5273270000000  0.5033030000000 1.0
C      1  0.4977000000000  0.4647430000000  0.4628990000000 1.0
C      1  0.5153240000000  0.4771170000000  0.4822490000000 1.0
C      1  0.5342640000000  0.4613510000000  0.5324950000000 1.0
C      1  0.4895500000000  0.4729380000000  0.5263150000000 1.0
C      1  0.4518240000000  0.4663520000000  0.4865970000000 1.0
C      1  0.5451370000000  0.5547800000000  0.5090980000000 1.0
C      1  0.5229710000000  0.5579220000000  0.4657280000000 1.0
C      1  0.4711810000000  0.5621450000000  0.4649220000000 1.0
C      1  0.4598900000000  0.5546520000000  0.5165220000000 1.0
C      1  0.5065860000000  0.5654400000000  0.5412370000000 1.0
C      1  0.5467330000000  0.4353280000000  0.4904540000000 1.0
C      1  0.5247610000000  0.4340430000000  0.5328120000000 1.0
C      1  0.4726670000000  0.4478570000000  0.5291610000000 1.0
C      1  0.4597010000000  0.4383720000000  0.4795100000000 1.0
C      1  0.5093090000000  0.4384630000000  0.4587950000000 1.0
C      1  0.4835220000000  0.4988110000000  0.4352070000000 1.0
C      1  0.4235000000000  0.4994820000000  0.5027370000000 1.0
C      1  0.4826020000000  0.5032430000000  0.5637470000000 1.0
C      1  0.5585360000000  0.4967560000000  0.4616690000000 1.0
C      1  0.5604280000000  0.4982180000000  0.5405480000000 1.0
C      1  0.4878270000000  0.4170210000000  0.5024640000000 1.0
C      1  0.4858420000000  0.5834380000000  0.4973710000000 1.0
C      1  0.5128900000000  0.5203430000000  0.4945510000000 1.0
C      1  0.5136180000000  0.4751800000000  0.5110780000000 1.0
C      1  0.4850460000000  0.5219400000000  0.4863330000000 1.0
END
