TITL C-2441157-2117-1341 0.0969152511146209 125000 -14434.4976950062 0 0 113 (C1) n - 1
REM
REM in /home/bkarasulu/work/CARBON/AIRSS/Generating-Clusters/ReaxFF-fromJPCA2015/Units_Real/with-SteepDescent/Higher-Symm
REM
REM
REM
REM
REM
REM ./C.cell (1df0a924f5614ab8850e4351716899ee)
REM
REM compiler GCC version 9.2.1 20190827 (Red Hat 9.2.1-1)
REM options -cpp -mtune=generic -march=x86-64 -g -O0 -fpre-include=/usr/include/finclude/math-vector-fortran.h
REM seed -1508578877 55235885 -1880094167 233198003 478205602 282686317 -1068072765 1743881679 725968070 1447614932 1586687304 -1275564507 899073700 -415547451 1828905572 -1697881338 -1719438353 1412017436 330626776 -466065640 1589770148 -1854912900 286555543 1485976151 618785253 -673943756 1905529940 -1658073763 322923640 -744064017 1597683360 -1631484508 -378293716
REM
CELL 1.54180   50.00000   50.00000   50.00000   90.00000   90.00000   90.00000
LATT -1
SFAC C  
C      1  0.5270410000000  0.4426980000000  0.4782910000000 1.0
C      1  0.5215950000000  0.5307820000000  0.4410110000000 1.0
C      1  0.5221110000000  0.5583270000000  0.5297620000000 1.0
C      1  0.5221480000000  0.4734450000000  0.5522700000000 1.0
C      1  0.5863710000000  0.4814130000000  0.5079210000000 1.0
C      1  0.5864810000000  0.4934500000000  0.4812160000000 1.0
C      1  0.5851470000000  0.5186670000000  0.4928800000000 1.0
C      1  0.5860500000000  0.5087440000000  0.5187260000000 1.0
C      1  0.5340170000000  0.4318550000000  0.4525820000000 1.0
C      1  0.5369210000000  0.5473500000000  0.4271660000000 1.0
C      1  0.5383520000000  0.5731880000000  0.5478530000000 1.0
C      1  0.5337560000000  0.4522510000000  0.5678760000000 1.0
C      1  0.5514550000000  0.4284650000000  0.5351710000000 1.0
C      1  0.5515900000000  0.4657810000000  0.4266950000000 1.0
C      1  0.5476680000000  0.5732750000000  0.4634540000000 1.0
C      1  0.5509400000000  0.5353920000000  0.5726500000000 1.0
C      1  0.5082510000000  0.5119180000000  0.5317430000000 1.0
C      1  0.5094230000000  0.4693920000000  0.5134930000000 1.0
C      1  0.5094370000000  0.4903230000000  0.4691110000000 1.0
C      1  0.5093680000000  0.5326680000000  0.4896420000000 1.0
C      1  0.4740900000000  0.4312390000000  0.5007840000000 1.0
C      1  0.4730780000000  0.4996560000000  0.4319030000000 1.0
C      1  0.4735230000000  0.5690120000000  0.4985210000000 1.0
C      1  0.4729390000000  0.5013180000000  0.5687500000000 1.0
C      1  0.4760230000000  0.5411110000000  0.5752030000000 1.0
C      1  0.4746140000000  0.4242790000000  0.5405140000000 1.0
C      1  0.4749110000000  0.4594890000000  0.4241540000000 1.0
C      1  0.4765590000000  0.5752370000000  0.4594530000000 1.0
C      1  0.5350400000000  0.5199310000000  0.4921450000000 1.0
C      1  0.5349550000000  0.5096660000000  0.5198780000000 1.0
C      1  0.5351040000000  0.4821050000000  0.5085790000000 1.0
C      1  0.5353860000000  0.4931930000000  0.4807870000000 1.0
C      1  0.4657290000000  0.5565460000000  0.5511550000000 1.0
C      1  0.4662790000000  0.4484330000000  0.5554010000000 1.0
C      1  0.4665400000000  0.4443650000000  0.4486970000000 1.0
C      1  0.4656360000000  0.5509760000000  0.4441200000000 1.0
C      1  0.5048050000000  0.5757260000000  0.4632510000000 1.0
C      1  0.5042770000000  0.5374150000000  0.5751570000000 1.0
C      1  0.5035360000000  0.4231680000000  0.5387990000000 1.0
C      1  0.5035860000000  0.4619720000000  0.4237340000000 1.0
C      1  0.4320770000000  0.4842990000000  0.4568150000000 1.0
C      1  0.4318070000000  0.5437290000000  0.4841970000000 1.0
C      1  0.4318110000000  0.5175390000000  0.5430050000000 1.0
C      1  0.4334040000000  0.4584060000000  0.5178660000000 1.0
C      1  0.4605960000000  0.5104890000000  0.5444130000000 1.0
C      1  0.4611330000000  0.4557070000000  0.5079320000000 1.0
C      1  0.4616100000000  0.4903450000000  0.4564950000000 1.0
C      1  0.4612720000000  0.5444930000000  0.4899320000000 1.0
C      1  0.4644710000000  0.5184630000000  0.5893710000000 1.0
C      1  0.4644320000000  0.4104510000000  0.5172610000000 1.0
C      1  0.4642610000000  0.4828010000000  0.4109010000000 1.0
C      1  0.4647100000000  0.5897680000000  0.4816250000000 1.0
C      1  0.4678050000000  0.4927930000000  0.5264430000000 1.0
C      1  0.4697220000000  0.4732260000000  0.4894970000000 1.0
C      1  0.4679620000000  0.5100940000000  0.4731730000000 1.0
C      1  0.4679380000000  0.5278980000000  0.5090190000000 1.0
C      1  0.4979650000000  0.4694680000000  0.4859340000000 1.0
C      1  0.4955960000000  0.5156210000000  0.4710740000000 1.0
C      1  0.4951680000000  0.5311040000000  0.5149570000000 1.0
C      1  0.4939830000000  0.4868830000000  0.5292230000000 1.0
C      1  0.4862530000000  0.5414930000000  0.4260940000000 1.0
C      1  0.4868980000000  0.5744270000000  0.5420890000000 1.0
C      1  0.4892720000000  0.4564250000000  0.5718970000000 1.0
C      1  0.4895470000000  0.4290380000000  0.4580820000000 1.0
C      1  0.5657010000000  0.5480090000000  0.5292350000000 1.0
C      1  0.5649770000000  0.4714500000000  0.5466480000000 1.0
C      1  0.5672280000000  0.4539390000000  0.4688100000000 1.0
C      1  0.5662180000000  0.5294360000000  0.4533260000000 1.0
C      1  0.4338520000000  0.5619100000000  0.5130710000000 1.0
C      1  0.4336530000000  0.4871000000000  0.5615370000000 1.0
C      1  0.4341430000000  0.4376820000000  0.4843990000000 1.0
C      1  0.4336570000000  0.5132640000000  0.4395230000000 1.0
C      1  0.5593670000000  0.5566510000000  0.4432600000000 1.0
C      1  0.5610530000000  0.5571820000000  0.5569350000000 1.0
C      1  0.5602370000000  0.4437650000000  0.5565980000000 1.0
C      1  0.5596420000000  0.4436230000000  0.4428820000000 1.0
C      1  0.5093710000000  0.4359250000000  0.5656140000000 1.0
C      1  0.5092090000000  0.4356180000000  0.4384080000000 1.0
C      1  0.5109030000000  0.5568830000000  0.4355190000000 1.0
C      1  0.5113260000000  0.5646300000000  0.5565990000000 1.0
C      1  0.5626540000000  0.5169250000000  0.5336600000000 1.0
C      1  0.5612570000000  0.4680400000000  0.5170020000000 1.0
C      1  0.5631170000000  0.4838070000000  0.4664960000000 1.0
C      1  0.5630370000000  0.5336980000000  0.4844510000000 1.0
C      1  0.5034720000000  0.5151070000000  0.4267500000000 1.0
C      1  0.5020040000000  0.5741480000000  0.5159000000000 1.0
C      1  0.5035200000000  0.4842880000000  0.5720340000000 1.0
C      1  0.5037470000000  0.4261380000000  0.4861360000000 1.0
C      1  0.4410510000000  0.5372860000000  0.4525660000000 1.0
C      1  0.4412460000000  0.5486900000000  0.5372720000000 1.0
C      1  0.4415360000000  0.4632290000000  0.5475210000000 1.0
C      1  0.4415200000000  0.4527030000000  0.4617350000000 1.0
C      1  0.4162160000000  0.4806250000000  0.5078310000000 1.0
C      1  0.4159140000000  0.4926460000000  0.4806900000000 1.0
C      1  0.4156430000000  0.5198540000000  0.4925520000000 1.0
C      1  0.4155780000000  0.5080850000000  0.5197380000000 1.0
C      1  0.5612370000000  0.5572830000000  0.5031950000000 1.0
C      1  0.5618730000000  0.4973720000000  0.5573950000000 1.0
C      1  0.5537540000000  0.4442420000000  0.4927480000000 1.0
C      1  0.5615260000000  0.5041030000000  0.4425720000000 1.0
C      1  0.5167500000000  0.4176810000000  0.5135680000000 1.0
C      1  0.5165100000000  0.4877310000000  0.4192230000000 1.0
C      1  0.5165330000000  0.5827250000000  0.4881580000000 1.0
C      1  0.5170500000000  0.5130800000000  0.5822110000000 1.0
C      1  0.4492630000000  0.4947490000000  0.5841700000000 1.0
C      1  0.4480980000000  0.4151880000000  0.4942000000000 1.0
C      1  0.4492690000000  0.5063600000000  0.4167100000000 1.0
C      1  0.4488170000000  0.5849340000000  0.5052340000000 1.0
C      1  0.5459810000000  0.4916740000000  0.4190830000000 1.0
C      1  0.5461920000000  0.5797870000000  0.4904020000000 1.0
C      1  0.5466860000000  0.5092900000000  0.5807640000000 1.0
C      1  0.5458300000000  0.4191620000000  0.5108230000000 1.0
C      1  0.4572440000000  0.5004940000000  0.5002390000000 1.0
END
