TITL C-2441168-9922-289 0.0609928631026726 125000 -17822.9989244904 0 0 129 (C1) n - 1
REM
REM in /home/bkarasulu/work/CARBON/AIRSS/Generating-Clusters/ReaxFF-fromJPCA2015/Units_Real/with-SteepDescent/Higher-Symm
REM
REM
REM
REM
REM
REM ./C.cell (1df0a924f5614ab8850e4351716899ee)
REM
REM compiler GCC version 9.2.1 20190827 (Red Hat 9.2.1-1)
REM options -cpp -mtune=generic -march=x86-64 -g -O0 -fpre-include=/usr/include/finclude/math-vector-fortran.h
REM seed -352259573 2082623366 -1324705334 -243492039 -1928223062 158206496 1313317379 -812128082 -211498313 -1170471119 670570458 175838728 819477058 -1068170587 748480900 -1247845036 -1325406258 -246502029 -325371622 471338971 -418422597 1303729029 -1668800887 -1189931945 343110301 484577854 -494289629 19450673 -1309025693 -2073838606 237966272 34266117 -1140393691
REM
CELL 1.54180   50.00000   50.00000   50.00000   90.00000   90.00000   90.00000
LATT -1
SFAC C  
C      1  0.4784040000000  0.4618480000000  0.5925850000000 1.0
C      1  0.5216240000000  0.5367500000000  0.4089500000000 1.0
C      1  0.5713710000000  0.4509400000000  0.4458380000000 1.0
C      1  0.4111650000000  0.5471180000000  0.5423910000000 1.0
C      1  0.4702760000000  0.4097220000000  0.5044240000000 1.0
C      1  0.5399030000000  0.5911490000000  0.4951170000000 1.0
C      1  0.5634760000000  0.5742050000000  0.4531490000000 1.0
C      1  0.4372710000000  0.4270830000000  0.5426290000000 1.0
C      1  0.5850540000000  0.4360690000000  0.5054160000000 1.0
C      1  0.4285330000000  0.5546660000000  0.5030550000000 1.0
C      1  0.4775720000000  0.5756290000000  0.5493580000000 1.0
C      1  0.5268710000000  0.4231340000000  0.4522040000000 1.0
C      1  0.5500470000000  0.4366310000000  0.4901050000000 1.0
C      1  0.4433520000000  0.5733910000000  0.5199840000000 1.0
C      1  0.4643550000000  0.5138270000000  0.4328740000000 1.0
C      1  0.5364620000000  0.4857870000000  0.5667650000000 1.0
C      1  0.5932700000000  0.5482640000000  0.5181120000000 1.0
C      1  0.4021670000000  0.4547030000000  0.4831540000000 1.0
C      1  0.5828950000000  0.4775790000000  0.4369160000000 1.0
C      1  0.4133340000000  0.5244830000000  0.5576230000000 1.0
C      1  0.4219130000000  0.5224380000000  0.4558980000000 1.0
C      1  0.5816300000000  0.4794090000000  0.5393770000000 1.0
C      1  0.4606770000000  0.4111860000000  0.5316880000000 1.0
C      1  0.5428420000000  0.5916260000000  0.4662560000000 1.0
C      1  0.5305220000000  0.4580880000000  0.4976990000000 1.0
C      1  0.4933020000000  0.5171630000000  0.4921210000000 1.0
C      1  0.4966400000000  0.4226590000000  0.4418630000000 1.0
C      1  0.5072130000000  0.5809170000000  0.5530200000000 1.0
C      1  0.4949690000000  0.4792290000000  0.6048730000000 1.0
C      1  0.5062960000000  0.5182020000000  0.3964150000000 1.0
C      1  0.4948550000000  0.5374580000000  0.4513280000000 1.0
C      1  0.5047150000000  0.4676660000000  0.5482440000000 1.0
C      1  0.5146540000000  0.4929480000000  0.4596510000000 1.0
C      1  0.4800010000000  0.5118120000000  0.5359620000000 1.0
C      1  0.5386210000000  0.5115730000000  0.4499990000000 1.0
C      1  0.4593790000000  0.4908040000000  0.5552910000000 1.0
C      1  0.4757810000000  0.4911380000000  0.4192720000000 1.0
C      1  0.5242040000000  0.5081360000000  0.5806340000000 1.0
C      1  0.4756700000000  0.5415900000000  0.4311880000000 1.0
C      1  0.5246920000000  0.4592940000000  0.5676440000000 1.0
C      1  0.4448860000000  0.5060280000000  0.5767110000000 1.0
C      1  0.5631510000000  0.4843080000000  0.4163810000000 1.0
C      1  0.4363910000000  0.4889150000000  0.5403660000000 1.0
C      1  0.5598780000000  0.5054710000000  0.4680620000000 1.0
C      1  0.5222900000000  0.5402990000000  0.5416700000000 1.0
C      1  0.4760980000000  0.4615070000000  0.4623490000000 1.0
C      1  0.5431410000000  0.5619650000000  0.4386430000000 1.0
C      1  0.4552420000000  0.4396950000000  0.5620150000000 1.0
C      1  0.5017440000000  0.4915380000000  0.5329230000000 1.0
C      1  0.4921110000000  0.5125650000000  0.4631330000000 1.0
C      1  0.4485830000000  0.4435900000000  0.5073830000000 1.0
C      1  0.5655900000000  0.5500040000000  0.4879150000000 1.0
C      1  0.4432760000000  0.5407720000000  0.4666860000000 1.0
C      1  0.5422030000000  0.4593360000000  0.5241750000000 1.0
C      1  0.4693440000000  0.5198230000000  0.5083940000000 1.0
C      1  0.5203390000000  0.4809090000000  0.4865660000000 1.0
C      1  0.4340820000000  0.4768690000000  0.4279630000000 1.0
C      1  0.5693820000000  0.5179310000000  0.5678570000000 1.0
C      1  0.5167860000000  0.5553200000000  0.4899670000000 1.0
C      1  0.4753980000000  0.4529750000000  0.5118070000000 1.0
C      1  0.5655130000000  0.4894710000000  0.5630270000000 1.0
C      1  0.4365010000000  0.5065600000000  0.4367490000000 1.0
C      1  0.4490060000000  0.4253500000000  0.4832770000000 1.0
C      1  0.5587120000000  0.5720640000000  0.5053470000000 1.0
C      1  0.4284180000000  0.4453270000000  0.4723730000000 1.0
C      1  0.5683310000000  0.5593110000000  0.5300480000000 1.0
C      1  0.4986210000000  0.5432490000000  0.5744200000000 1.0
C      1  0.4989650000000  0.4513570000000  0.4264740000000 1.0
C      1  0.5412900000000  0.4626150000000  0.4180080000000 1.0
C      1  0.4575230000000  0.5326240000000  0.5810850000000 1.0
C      1  0.4050390000000  0.5412110000000  0.5137040000000 1.0
C      1  0.5919890000000  0.4589080000000  0.4912310000000 1.0
C      1  0.5311130000000  0.4161630000000  0.4797270000000 1.0
C      1  0.4698830000000  0.5842030000000  0.5210220000000 1.0
C      1  0.4251460000000  0.4467330000000  0.5241780000000 1.0
C      1  0.5793330000000  0.5534060000000  0.4644500000000 1.0
C      1  0.5671260000000  0.4550930000000  0.4741080000000 1.0
C      1  0.4385380000000  0.5612320000000  0.5453050000000 1.0
C      1  0.4487010000000  0.5344450000000  0.4955740000000 1.0
C      1  0.5637790000000  0.4771700000000  0.5169530000000 1.0
C      1  0.5380920000000  0.5342110000000  0.4322210000000 1.0
C      1  0.4589660000000  0.4673130000000  0.5727130000000 1.0
C      1  0.4762180000000  0.5775110000000  0.4710550000000 1.0
C      1  0.5184080000000  0.4229660000000  0.5291610000000 1.0
C      1  0.5918490000000  0.5233980000000  0.5317380000000 1.0
C      1  0.4069210000000  0.4807250000000  0.4683430000000 1.0
C      1  0.4023780000000  0.5093270000000  0.4733380000000 1.0
C      1  0.6012580000000  0.4957300000000  0.5255470000000 1.0
C      1  0.5230900000000  0.5782050000000  0.4494190000000 1.0
C      1  0.4776300000000  0.4245450000000  0.5513490000000 1.0
C      1  0.5001040000000  0.4918280000000  0.4047750000000 1.0
C      1  0.5003210000000  0.5053670000000  0.5962090000000 1.0
C      1  0.4618710000000  0.4686350000000  0.4322160000000 1.0
C      1  0.5268670000000  0.5358860000000  0.5712280000000 1.0
C      1  0.5934960000000  0.5401650000000  0.4874630000000 1.0
C      1  0.4018910000000  0.4610800000000  0.5118490000000 1.0
C      1  0.4357790000000  0.4738410000000  0.4694270000000 1.0
C      1  0.5620140000000  0.5303300000000  0.5390660000000 1.0
C      1  0.5363030000000  0.4390270000000  0.5436270000000 1.0
C      1  0.4604730000000  0.5603890000000  0.4544820000000 1.0
C      1  0.4937130000000  0.5363410000000  0.5466160000000 1.0
C      1  0.5010850000000  0.4677400000000  0.4495590000000 1.0
C      1  0.4028220000000  0.4902630000000  0.5148700000000 1.0
C      1  0.6010640000000  0.5089050000000  0.4792000000000 1.0
C      1  0.4593460000000  0.5568480000000  0.5639630000000 1.0
C      1  0.5456210000000  0.4403420000000  0.4371260000000 1.0
C      1  0.5163650000000  0.5786070000000  0.5061300000000 1.0
C      1  0.4883930000000  0.4281080000000  0.4933270000000 1.0
C      1  0.5040520000000  0.5606440000000  0.4644090000000 1.0
C      1  0.4948920000000  0.4428450000000  0.5363660000000 1.0
C      1  0.4190840000000  0.4984710000000  0.5629560000000 1.0
C      1  0.5864430000000  0.5008950000000  0.4557630000000 1.0
C      1  0.4940540000000  0.5414410000000  0.4070700000000 1.0
C      1  0.5058390000000  0.4569960000000  0.5918650000000 1.0
C      1  0.5422430000000  0.5179620000000  0.5146020000000 1.0
C      1  0.4493610000000  0.4884970000000  0.4904120000000 1.0
C      1  0.3965710000000  0.5157980000000  0.5015510000000 1.0
C      1  0.6040090000000  0.4876750000000  0.4978560000000 1.0
C      1  0.4323180000000  0.4933520000000  0.5134880000000 1.0
C      1  0.5570670000000  0.4996620000000  0.4984000000000 1.0
C      1  0.5116490000000  0.4131490000000  0.5019910000000 1.0
C      1  0.4851030000000  0.5849810000000  0.4972190000000 1.0
C      1  0.5268560000000  0.5688520000000  0.5349400000000 1.0
C      1  0.4760280000000  0.4317000000000  0.4663680000000 1.0
C      1  0.5145460000000  0.4664970000000  0.4070150000000 1.0
C      1  0.4827820000000  0.5288010000000  0.5942960000000 1.0
C      1  0.4751530000000  0.4754510000000  0.4922690000000 1.0
C      1  0.5196380000000  0.5305380000000  0.5016320000000 1.0
C      1  0.5002150000000  0.4906720000000  0.5035610000000 1.0
END
