TITL C-2441167-4473-1082 0.15651667554563 125000 -17923.1404372664 0 0 149 (C1) n - 1
REM
REM in /home/bkarasulu/work/CARBON/AIRSS/Generating-Clusters/ReaxFF-fromJPCA2015/Units_Real/with-SteepDescent/Higher-Symm
REM
REM
REM
REM
REM
REM ./C.cell (1df0a924f5614ab8850e4351716899ee)
REM
REM compiler GCC version 9.2.1 20190827 (Red Hat 9.2.1-1)
REM options -cpp -mtune=generic -march=x86-64 -g -O0 -fpre-include=/usr/include/finclude/math-vector-fortran.h
REM seed 1273190787 -1875792261 1507101128 193977199 1818601338 -1823160900 1522435135 -1318737099 -1827737188 -692449081 -1943283573 960846811 1012624018 -2084440225 915686507 -1964687245 2117693813 -62900384 1043093061 -1864209202 692565181 1841480142 1617446668 786853031 21494915 -1839695501 1632801280 1212684338 -1830291772 -1427063231 -961588112 -1196841168 673370339
REM
CELL 1.54180   50.00000   50.00000   50.00000   90.00000   90.00000   90.00000
LATT -1
SFAC C  
C      1  0.4652750000000  0.5669110000000  0.4852730000000 1.0
C      1  0.5275100000000  0.4321790000000  0.4821540000000 1.0
C      1  0.5240020000000  0.5622850000000  0.5156140000000 1.0
C      1  0.4700160000000  0.4277670000000  0.5167210000000 1.0
C      1  0.5683260000000  0.4626370000000  0.4851700000000 1.0
C      1  0.4309980000000  0.5403660000000  0.4826540000000 1.0
C      1  0.5696070000000  0.5401920000000  0.5165640000000 1.0
C      1  0.4323000000000  0.4599760000000  0.5133710000000 1.0
C      1  0.5807260000000  0.4921600000000  0.5558590000000 1.0
C      1  0.4204140000000  0.5093120000000  0.5568390000000 1.0
C      1  0.4175530000000  0.4867020000000  0.4425690000000 1.0
C      1  0.5790990000000  0.5134780000000  0.4398570000000 1.0
C      1  0.4963630000000  0.5802520000000  0.5522530000000 1.0
C      1  0.5123090000000  0.4186600000000  0.5595990000000 1.0
C      1  0.4932450000000  0.4193870000000  0.4419800000000 1.0
C      1  0.5100440000000  0.5789620000000  0.4420170000000 1.0
C      1  0.4688920000000  0.5092020000000  0.5281650000000 1.0
C      1  0.5316530000000  0.4862010000000  0.5229340000000 1.0
C      1  0.5199890000000  0.5073050000000  0.4812230000000 1.0
C      1  0.4662000000000  0.4986280000000  0.4849350000000 1.0
C      1  0.5091380000000  0.4681360000000  0.5279310000000 1.0
C      1  0.4864340000000  0.5321510000000  0.5260880000000 1.0
C      1  0.5093750000000  0.5348670000000  0.4765930000000 1.0
C      1  0.4958590000000  0.4653990000000  0.4854200000000 1.0
C      1  0.5935770000000  0.5151230000000  0.5438100000000 1.0
C      1  0.4122600000000  0.4860350000000  0.5405240000000 1.0
C      1  0.4102100000000  0.5112490000000  0.4542500000000 1.0
C      1  0.5905370000000  0.4921600000000  0.4556270000000 1.0
C      1  0.5187220000000  0.5945700000000  0.5379390000000 1.0
C      1  0.4879400000000  0.4088860000000  0.5497680000000 1.0
C      1  0.5160390000000  0.4071940000000  0.4548600000000 1.0
C      1  0.4871560000000  0.5907130000000  0.4598230000000 1.0
C      1  0.4830010000000  0.4945940000000  0.4360770000000 1.0
C      1  0.5265350000000  0.5038150000000  0.4384790000000 1.0
C      1  0.5208970000000  0.5003440000000  0.5662480000000 1.0
C      1  0.4812240000000  0.4999640000000  0.5680650000000 1.0
C      1  0.4975350000000  0.4692780000000  0.4397430000000 1.0
C      1  0.5017230000000  0.5151920000000  0.4340240000000 1.0
C      1  0.5007470000000  0.5195660000000  0.5667840000000 1.0
C      1  0.5007790000000  0.4804820000000  0.5675980000000 1.0
C      1  0.5308340000000  0.5495960000000  0.5582040000000 1.0
C      1  0.4681380000000  0.4480710000000  0.5581070000000 1.0
C      1  0.4691350000000  0.5478870000000  0.4430950000000 1.0
C      1  0.5264840000000  0.4578810000000  0.4468580000000 1.0
C      1  0.5513370000000  0.5313190000000  0.5585830000000 1.0
C      1  0.4498660000000  0.4669510000000  0.5581080000000 1.0
C      1  0.5513140000000  0.4707040000000  0.4427360000000 1.0
C      1  0.4490390000000  0.5301730000000  0.4419650000000 1.0
C      1  0.5697210000000  0.4525840000000  0.5386960000000 1.0
C      1  0.4316510000000  0.5484690000000  0.5371310000000 1.0
C      1  0.4392060000000  0.4568200000000  0.4615610000000 1.0
C      1  0.5596590000000  0.5428510000000  0.4632320000000 1.0
C      1  0.4467810000000  0.5738360000000  0.5348970000000 1.0
C      1  0.5468220000000  0.4318480000000  0.5364110000000 1.0
C      1  0.4507000000000  0.4311430000000  0.4649500000000 1.0
C      1  0.5512210000000  0.5701450000000  0.4680650000000 1.0
C      1  0.4701380000000  0.5902550000000  0.5430460000000 1.0
C      1  0.5331090000000  0.4067190000000  0.5429300000000 1.0
C      1  0.5336090000000  0.5896230000000  0.4560350000000 1.0
C      1  0.4688030000000  0.4108150000000  0.4548970000000 1.0
C      1  0.5944060000000  0.4682670000000  0.5458200000000 1.0
C      1  0.4072770000000  0.5320300000000  0.5443220000000 1.0
C      1  0.5882920000000  0.5359360000000  0.4596700000000 1.0
C      1  0.4099730000000  0.4616550000000  0.4613100000000 1.0
C      1  0.5158240000000  0.4004180000000  0.5195490000000 1.0
C      1  0.4831810000000  0.5976840000000  0.5170520000000 1.0
C      1  0.4840550000000  0.4023780000000  0.4787650000000 1.0
C      1  0.5211850000000  0.6037630000000  0.4803930000000 1.0
C      1  0.3981420000000  0.5186230000000  0.5193820000000 1.0
C      1  0.6003940000000  0.4825860000000  0.5205410000000 1.0
C      1  0.4009700000000  0.4855240000000  0.4813130000000 1.0
C      1  0.5941320000000  0.5119060000000  0.4775770000000 1.0
C      1  0.4849250000000  0.5522520000000  0.5501740000000 1.0
C      1  0.5214630000000  0.4464010000000  0.5486710000000 1.0
C      1  0.5174980000000  0.5519810000000  0.4492910000000 1.0
C      1  0.4810650000000  0.4463780000000  0.4403640000000 1.0
C      1  0.5546290000000  0.4794740000000  0.5481660000000 1.0
C      1  0.4470650000000  0.5207850000000  0.5486490000000 1.0
C      1  0.5503290000000  0.5205660000000  0.4450770000000 1.0
C      1  0.4462080000000  0.4787220000000  0.4438890000000 1.0
C      1  0.5747670000000  0.5364160000000  0.5437510000000 1.0
C      1  0.4289490000000  0.4625440000000  0.5422510000000 1.0
C      1  0.4256320000000  0.5348490000000  0.4550890000000 1.0
C      1  0.5737720000000  0.4692850000000  0.4584200000000 1.0
C      1  0.5352490000000  0.5717500000000  0.5405100000000 1.0
C      1  0.4646050000000  0.4232440000000  0.5446860000000 1.0
C      1  0.5324140000000  0.4300120000000  0.4517920000000 1.0
C      1  0.4644160000000  0.5718390000000  0.4573490000000 1.0
C      1  0.5264880000000  0.5467200000000  0.5865410000000 1.0
C      1  0.4736680000000  0.4520250000000  0.5869100000000 1.0
C      1  0.4739420000000  0.5459870000000  0.4149940000000 1.0
C      1  0.5265900000000  0.4514880000000  0.4175520000000 1.0
C      1  0.5480270000000  0.5269170000000  0.5869520000000 1.0
C      1  0.4521550000000  0.4725180000000  0.5859480000000 1.0
C      1  0.5469620000000  0.4730520000000  0.4139910000000 1.0
C      1  0.4528590000000  0.5254610000000  0.4139200000000 1.0
C      1  0.5337630000000  0.5995410000000  0.5067170000000 1.0
C      1  0.4638410000000  0.4040240000000  0.4998010000000 1.0
C      1  0.4643300000000  0.5952910000000  0.4942630000000 1.0
C      1  0.5306800000000  0.4037640000000  0.4931140000000 1.0
C      1  0.5950260000000  0.5314460000000  0.5089060000000 1.0
C      1  0.4036150000000  0.4674140000000  0.5054940000000 1.0
C      1  0.5965700000000  0.4646820000000  0.4980730000000 1.0
C      1  0.4029450000000  0.5349130000000  0.4961980000000 1.0
C      1  0.5402690000000  0.4988630000000  0.5886730000000 1.0
C      1  0.4603780000000  0.5005810000000  0.5885980000000 1.0
C      1  0.4650340000000  0.4986800000000  0.4127590000000 1.0
C      1  0.5376950000000  0.5005860000000  0.4115740000000 1.0
C      1  0.4986740000000  0.5380580000000  0.5892750000000 1.0
C      1  0.5016030000000  0.4604340000000  0.5891110000000 1.0
C      1  0.5007770000000  0.4633580000000  0.4094440000000 1.0
C      1  0.5007390000000  0.5352410000000  0.4124750000000 1.0
C      1  0.4521860000000  0.4728380000000  0.4152230000000 1.0
C      1  0.5491000000000  0.5277990000000  0.4152050000000 1.0
C      1  0.5483340000000  0.4733200000000  0.5767400000000 1.0
C      1  0.4515930000000  0.5263640000000  0.5779000000000 1.0
C      1  0.4734330000000  0.4532370000000  0.4128510000000 1.0
C      1  0.5264240000000  0.5467500000000  0.4212240000000 1.0
C      1  0.4733620000000  0.5460510000000  0.5767960000000 1.0
C      1  0.5275820000000  0.4526400000000  0.5776110000000 1.0
C      1  0.5353430000000  0.5150330000000  0.5052980000000 1.0
C      1  0.4621690000000  0.4849770000000  0.5120660000000 1.0
C      1  0.4578600000000  0.5259920000000  0.4876630000000 1.0
C      1  0.5419260000000  0.4761480000000  0.4956140000000 1.0
C      1  0.5169060000000  0.5371830000000  0.5073630000000 1.0
C      1  0.4836850000000  0.4632270000000  0.5129280000000 1.0
C      1  0.5225250000000  0.4575380000000  0.4920580000000 1.0
C      1  0.4800760000000  0.5429100000000  0.4930860000000 1.0
C      1  0.4043600000000  0.4446380000000  0.4873140000000 1.0
C      1  0.5954720000000  0.5514640000000  0.4884400000000 1.0
C      1  0.5883170000000  0.4424540000000  0.5144200000000 1.0
C      1  0.4090890000000  0.5574420000000  0.5126850000000 1.0
C      1  0.4409270000000  0.4153890000000  0.4868020000000 1.0
C      1  0.5549170000000  0.5836320000000  0.4937770000000 1.0
C      1  0.4401560000000  0.5868950000000  0.5097670000000 1.0
C      1  0.5531170000000  0.4152520000000  0.5075830000000 1.0
C      1  0.5009540000000  0.5762130000000  0.5084550000000 1.0
C      1  0.4987220000000  0.4244240000000  0.5144690000000 1.0
C      1  0.5029920000000  0.5813500000000  0.4826680000000 1.0
C      1  0.4994500000000  0.4266030000000  0.4863820000000 1.0
C      1  0.5728090000000  0.4975840000000  0.5135900000000 1.0
C      1  0.4217100000000  0.5029790000000  0.5149670000000 1.0
C      1  0.5661020000000  0.5108390000000  0.4888750000000 1.0
C      1  0.4264810000000  0.4975050000000  0.4875350000000 1.0
C      1  0.4240060000000  0.5704350000000  0.4923070000000 1.0
C      1  0.5749340000000  0.5661190000000  0.5036590000000 1.0
C      1  0.5722380000000  0.4312470000000  0.4932370000000 1.0
C      1  0.4251640000000  0.4327330000000  0.5035760000000 1.0
C      1  0.4947840000000  0.4932220000000  0.4804090000000 1.0
END
