TITL C-2441160-1326-73 0.170048325988469 125000 -22000.3169253728 0 0 177 (C1) n - 1
REM
REM in /home/bkarasulu/work/CARBON/AIRSS/Generating-Clusters/ReaxFF-fromJPCA2015/Units_Real/with-SteepDescent/Higher-Symm
REM
REM
REM
REM
REM
REM ./C.cell (1df0a924f5614ab8850e4351716899ee)
REM
REM compiler GCC version 9.2.1 20190827 (Red Hat 9.2.1-1)
REM options -cpp -mtune=generic -march=x86-64 -g -O0 -fpre-include=/usr/include/finclude/math-vector-fortran.h
REM seed -269369888 -1975424228 1226782123 -1423534282 1648616280 576707846 -1960685858 464340088 -475764197 -396892522 1459412438 1164667379 -123407130 935577460 -540371076 -1164231659 -1949980259 -296534913 -490265260 958761958 544588610 1062656514 309456627 1288355421 262929524 1614614776 1821246819 1213804928 -86750016 534846417 970073913 -462595147 -633023880
REM
CELL 1.54180   50.00000   50.00000   50.00000   90.00000   90.00000   90.00000
LATT -1
SFAC C  
C      1  0.5149880000000  0.5593660000000  0.5127930000000 1.0
C      1  0.5148970000000  0.5284240000000  0.4577280000000 1.0
C      1  0.5140510000000  0.4587550000000  0.4546770000000 1.0
C      1  0.5159320000000  0.4446860000000  0.5281430000000 1.0
C      1  0.5155100000000  0.5028740000000  0.5593590000000 1.0
C      1  0.4888740000000  0.5563950000000  0.5132520000000 1.0
C      1  0.4881200000000  0.5268940000000  0.4487360000000 1.0
C      1  0.4878460000000  0.4673170000000  0.4593730000000 1.0
C      1  0.4907100000000  0.4459910000000  0.5206690000000 1.0
C      1  0.4879820000000  0.5057740000000  0.5583230000000 1.0
C      1  0.5923660000000  0.4708070000000  0.4531980000000 1.0
C      1  0.5925020000000  0.4464750000000  0.5138070000000 1.0
C      1  0.5904490000000  0.4951280000000  0.5544870000000 1.0
C      1  0.5912230000000  0.5510450000000  0.5204360000000 1.0
C      1  0.5914820000000  0.5354680000000  0.4573920000000 1.0
C      1  0.4110750000000  0.4719700000000  0.4536190000000 1.0
C      1  0.4080160000000  0.4480780000000  0.5105640000000 1.0
C      1  0.4103310000000  0.4957380000000  0.5546680000000 1.0
C      1  0.4102780000000  0.5507310000000  0.5203310000000 1.0
C      1  0.4090360000000  0.5362390000000  0.4596780000000 1.0
C      1  0.4231770000000  0.5207840000000  0.5656810000000 1.0
C      1  0.4237810000000  0.5686440000000  0.5007990000000 1.0
C      1  0.4204070000000  0.5216870000000  0.4354790000000 1.0
C      1  0.4242820000000  0.4449640000000  0.4582450000000 1.0
C      1  0.4243820000000  0.4454130000000  0.5354420000000 1.0
C      1  0.5773310000000  0.5197330000000  0.5652680000000 1.0
C      1  0.5784640000000  0.5688550000000  0.5002910000000 1.0
C      1  0.5789510000000  0.5218220000000  0.4346050000000 1.0
C      1  0.5802000000000  0.4439970000000  0.4606920000000 1.0
C      1  0.5789190000000  0.4452680000000  0.5414260000000 1.0
C      1  0.5696780000000  0.5181670000000  0.5153580000000 1.0
C      1  0.5698830000000  0.5214360000000  0.4873130000000 1.0
C      1  0.5694040000000  0.4962000000000  0.4748040000000 1.0
C      1  0.5692860000000  0.4756840000000  0.4945440000000 1.0
C      1  0.5704290000000  0.4903720000000  0.5197200000000 1.0
C      1  0.4327920000000  0.5175410000000  0.5179830000000 1.0
C      1  0.4322770000000  0.5226310000000  0.4900570000000 1.0
C      1  0.4323820000000  0.4965530000000  0.4772070000000 1.0
C      1  0.4370120000000  0.4770470000000  0.4957870000000 1.0
C      1  0.4320660000000  0.4881970000000  0.5212090000000 1.0
C      1  0.5378260000000  0.4851590000000  0.5588360000000 1.0
C      1  0.5376710000000  0.5558420000000  0.5272090000000 1.0
C      1  0.5399230000000  0.5431910000000  0.4537010000000 1.0
C      1  0.5376890000000  0.4671720000000  0.4464830000000 1.0
C      1  0.5399970000000  0.4462340000000  0.5185590000000 1.0
C      1  0.4640840000000  0.4927690000000  0.5623910000000 1.0
C      1  0.4660940000000  0.5562290000000  0.5288730000000 1.0
C      1  0.4613270000000  0.5344460000000  0.4540060000000 1.0
C      1  0.4565420000000  0.4771760000000  0.4364180000000 1.0
C      1  0.4483890000000  0.4420350000000  0.5186330000000 1.0
C      1  0.5558220000000  0.5206060000000  0.5846870000000 1.0
C      1  0.5559910000000  0.5865490000000  0.5043870000000 1.0
C      1  0.5578170000000  0.5315400000000  0.4177960000000 1.0
C      1  0.5564860000000  0.4318570000000  0.4484730000000 1.0
C      1  0.5565380000000  0.4281190000000  0.5491390000000 1.0
C      1  0.4452560000000  0.5234840000000  0.5840510000000 1.0
C      1  0.4461220000000  0.5861960000000  0.5054160000000 1.0
C      1  0.4440530000000  0.5212390000000  0.4171330000000 1.0
C      1  0.4457380000000  0.4308120000000  0.4448560000000 1.0
C      1  0.4457850000000  0.4198130000000  0.5519910000000 1.0
C      1  0.4770100000000  0.4907640000000  0.4694630000000 1.0
C      1  0.4858000000000  0.4659640000000  0.5032450000000 1.0
C      1  0.4775730000000  0.4893820000000  0.5194380000000 1.0
C      1  0.4810870000000  0.5195790000000  0.5220090000000 1.0
C      1  0.4774860000000  0.5235480000000  0.4950370000000 1.0
C      1  0.5246040000000  0.4925050000000  0.4776490000000 1.0
C      1  0.5148930000000  0.4737620000000  0.4954370000000 1.0
C      1  0.5228920000000  0.4851520000000  0.5204760000000 1.0
C      1  0.5242020000000  0.5113850000000  0.5205240000000 1.0
C      1  0.5227660000000  0.5316690000000  0.4856080000000 1.0
C      1  0.4871670000000  0.3904500000000  0.4949910000000 1.0
C      1  0.4863490000000  0.4622050000000  0.6019220000000 1.0
C      1  0.4870330000000  0.5871370000000  0.5691900000000 1.0
C      1  0.4856200000000  0.5931080000000  0.4398110000000 1.0
C      1  0.4869520000000  0.4711080000000  0.3933330000000 1.0
C      1  0.5156080000000  0.3906700000000  0.4973930000000 1.0
C      1  0.5144050000000  0.4620070000000  0.6046440000000 1.0
C      1  0.5157020000000  0.5860340000000  0.5686630000000 1.0
C      1  0.5143510000000  0.5906100000000  0.4388070000000 1.0
C      1  0.5154100000000  0.4688290000000  0.3939460000000 1.0
C      1  0.4861630000000  0.5642320000000  0.5889100000000 1.0
C      1  0.4865110000000  0.6036460000000  0.4676230000000 1.0
C      1  0.4887440000000  0.5012020000000  0.3901260000000 1.0
C      1  0.4879940000000  0.3974430000000  0.4665200000000 1.0
C      1  0.4870930000000  0.4358210000000  0.5877900000000 1.0
C      1  0.5155910000000  0.5631290000000  0.5885040000000 1.0
C      1  0.5159690000000  0.6027920000000  0.4670770000000 1.0
C      1  0.5180710000000  0.4989640000000  0.3909410000000 1.0
C      1  0.5177450000000  0.3954820000000  0.4671000000000 1.0
C      1  0.5164910000000  0.4362630000000  0.5898660000000 1.0
C      1  0.3986970000000  0.4857940000000  0.4770900000000 1.0
C      1  0.3962540000000  0.4737100000000  0.5049260000000 1.0
C      1  0.3993160000000  0.4954840000000  0.5270520000000 1.0
C      1  0.3984670000000  0.5254950000000  0.5117590000000 1.0
C      1  0.3988640000000  0.5195020000000  0.4813890000000 1.0
C      1  0.6026680000000  0.4866310000000  0.4749860000000 1.0
C      1  0.6025630000000  0.4723350000000  0.5043610000000 1.0
C      1  0.6010220000000  0.4955780000000  0.5267870000000 1.0
C      1  0.6019580000000  0.5255690000000  0.5116090000000 1.0
C      1  0.6021460000000  0.5195130000000  0.4794060000000 1.0
C      1  0.5312170000000  0.4340160000000  0.5645260000000 1.0
C      1  0.5270030000000  0.5349050000000  0.5875630000000 1.0
C      1  0.5292980000000  0.5923710000000  0.4915890000000 1.0
C      1  0.5330890000000  0.5167870000000  0.4099630000000 1.0
C      1  0.5301740000000  0.4192950000000  0.4549470000000 1.0
C      1  0.4768690000000  0.4263330000000  0.5606570000000 1.0
C      1  0.4717120000000  0.5382650000000  0.5844600000000 1.0
C      1  0.4735550000000  0.5922040000000  0.4929780000000 1.0
C      1  0.4791330000000  0.5224320000000  0.4090560000000 1.0
C      1  0.4758360000000  0.4203850000000  0.4502280000000 1.0
C      1  0.4382350000000  0.4652420000000  0.5804270000000 1.0
C      1  0.4395810000000  0.5622260000000  0.5603060000000 1.0
C      1  0.4392510000000  0.5748460000000  0.4540810000000 1.0
C      1  0.4424150000000  0.4922810000000  0.4153840000000 1.0
C      1  0.4382230000000  0.4120550000000  0.4913680000000 1.0
C      1  0.5572400000000  0.4730940000000  0.5771480000000 1.0
C      1  0.5634780000000  0.5650180000000  0.5589860000000 1.0
C      1  0.5629410000000  0.5769650000000  0.4574990000000 1.0
C      1  0.5623880000000  0.4807390000000  0.4151450000000 1.0
C      1  0.5567970000000  0.4257080000000  0.4897190000000 1.0
C      1  0.4771030000000  0.5677160000000  0.4256710000000 1.0
C      1  0.4781530000000  0.4487270000000  0.4120340000000 1.0
C      1  0.4801070000000  0.4030280000000  0.5201480000000 1.0
C      1  0.4814970000000  0.4911210000000  0.5995300000000 1.0
C      1  0.4797810000000  0.5935670000000  0.5408640000000 1.0
C      1  0.5193770000000  0.5656880000000  0.4234290000000 1.0
C      1  0.5206360000000  0.4465050000000  0.4135210000000 1.0
C      1  0.5213710000000  0.4036710000000  0.5234650000000 1.0
C      1  0.5231810000000  0.4902180000000  0.6025360000000 1.0
C      1  0.5212900000000  0.5918010000000  0.5396860000000 1.0
C      1  0.4848930000000  0.5658080000000  0.4856780000000 1.0
C      1  0.4910760000000  0.5064170000000  0.4306520000000 1.0
C      1  0.4822670000000  0.4406520000000  0.4709610000000 1.0
C      1  0.4817680000000  0.4530220000000  0.5479380000000 1.0
C      1  0.4881480000000  0.5330780000000  0.5612570000000 1.0
C      1  0.5145150000000  0.5665480000000  0.4858000000000 1.0
C      1  0.5197890000000  0.5063340000000  0.4336390000000 1.0
C      1  0.5116230000000  0.4356260000000  0.4710390000000 1.0
C      1  0.5114830000000  0.4531550000000  0.5534540000000 1.0
C      1  0.5170200000000  0.5320330000000  0.5594600000000 1.0
C      1  0.4520410000000  0.5820800000000  0.5346780000000 1.0
C      1  0.4515380000000  0.5553870000000  0.4338510000000 1.0
C      1  0.4501690000000  0.4503350000000  0.4248560000000 1.0
C      1  0.4524840000000  0.4132070000000  0.5208670000000 1.0
C      1  0.4526470000000  0.4941580000000  0.5897300000000 1.0
C      1  0.5496850000000  0.5825820000000  0.5339350000000 1.0
C      1  0.5494010000000  0.5585190000000  0.4305180000000 1.0
C      1  0.5495930000000  0.4513280000000  0.4246740000000 1.0
C      1  0.5489750000000  0.4167830000000  0.5223880000000 1.0
C      1  0.5522110000000  0.4946010000000  0.5963940000000 1.0
C      1  0.5480220000000  0.4537170000000  0.4909360000000 1.0
C      1  0.5466060000000  0.4768540000000  0.5325050000000 1.0
C      1  0.5455390000000  0.5283780000000  0.5314660000000 1.0
C      1  0.5490380000000  0.5407350000000  0.4798980000000 1.0
C      1  0.5449740000000  0.4913940000000  0.4582130000000 1.0
C      1  0.4563710000000  0.4559100000000  0.4940860000000 1.0
C      1  0.4559710000000  0.4801870000000  0.5386330000000 1.0
C      1  0.4558560000000  0.5303360000000  0.5313180000000 1.0
C      1  0.4564650000000  0.5394680000000  0.4827650000000 1.0
C      1  0.4534490000000  0.4965210000000  0.4579280000000 1.0
C      1  0.4195710000000  0.4319550000000  0.4860610000000 1.0
C      1  0.4207550000000  0.4679020000000  0.5595070000000 1.0
C      1  0.4190750000000  0.5474790000000  0.5500900000000 1.0
C      1  0.4190460000000  0.5621170000000  0.4709030000000 1.0
C      1  0.4174720000000  0.4921010000000  0.4325360000000 1.0
C      1  0.5846300000000  0.4324120000000  0.4886780000000 1.0
C      1  0.5809550000000  0.4679950000000  0.5604950000000 1.0
C      1  0.5817770000000  0.5466880000000  0.5500930000000 1.0
C      1  0.5825330000000  0.5629470000000  0.4696380000000 1.0
C      1  0.5819740000000  0.4904170000000  0.4316770000000 1.0
C      1  0.4983220000000  0.4084390000000  0.5399570000000 1.0
C      1  0.4975560000000  0.4344690000000  0.4256160000000 1.0
C      1  0.5033200000000  0.5093760000000  0.5989440000000 1.0
C      1  0.4999930000000  0.5956270000000  0.5215670000000 1.0
C      1  0.4963870000000  0.5507160000000  0.4144560000000 1.0
C      1  0.5319010000000  0.5111370000000  0.4946270000000 1.0
C      1  0.4698940000000  0.4987660000000  0.4925500000000 1.0
END
