TITL C-2441163-1170-949 0.0348768604267923 125000 -21393.4665254747 0 0 149 (C1) n - 1
REM
REM in /home/bkarasulu/work/CARBON/AIRSS/Generating-Clusters/ReaxFF-fromJPCA2015/Units_Real/with-SteepDescent/Higher-Symm
REM
REM
REM
REM
REM
REM ./C.cell (1df0a924f5614ab8850e4351716899ee)
REM
REM compiler GCC version 9.2.1 20190827 (Red Hat 9.2.1-1)
REM options -cpp -mtune=generic -march=x86-64 -g -O0 -fpre-include=/usr/include/finclude/math-vector-fortran.h
REM seed 991092278 -898866855 15983540 1494411449 2085417458 -510734443 -653144794 -402232977 499657138 -1189918500 1246708238 -685654738 -631304458 -90553901 -81127025 -2087020963 -716527192 -1959519086 322644390 339242522 1025122840 -360774265 599946191 -1019549335 -1363869857 -411150008 1377056550 -948685841 1048487368 -32014962 1892841583 -1089674046 1854201777
REM
CELL 1.54180   50.00000   50.00000   50.00000   90.00000   90.00000   90.00000
LATT -1
SFAC C  
C      1  0.5739330000000  0.4602760000000  0.5709990000000 1.0
C      1  0.4372480000000  0.4592700000000  0.5688910000000 1.0
C      1  0.5008000000000  0.5796560000000  0.5788490000000 1.0
C      1  0.5707660000000  0.4595270000000  0.4305620000000 1.0
C      1  0.4279010000000  0.4614590000000  0.4205980000000 1.0
C      1  0.4996130000000  0.5847710000000  0.4336150000000 1.0
C      1  0.4142210000000  0.4628870000000  0.4601800000000 1.0
C      1  0.5206440000000  0.5954760000000  0.4676620000000 1.0
C      1  0.5713450000000  0.4350000000000  0.4643470000000 1.0
C      1  0.4193740000000  0.4731690000000  0.5350800000000 1.0
C      1  0.5126710000000  0.5923020000000  0.5400010000000 1.0
C      1  0.5737970000000  0.4446620000000  0.5259380000000 1.0
C      1  0.4168560000000  0.5303230000000  0.5526260000000 1.0
C      1  0.5617660000000  0.5553650000000  0.5502900000000 1.0
C      1  0.5176110000000  0.4146470000000  0.5566410000000 1.0
C      1  0.4140250000000  0.5275830000000  0.4481200000000 1.0
C      1  0.5668270000000  0.5572330000000  0.4455520000000 1.0
C      1  0.5188610000000  0.4114410000000  0.4526840000000 1.0
C      1  0.5063190000000  0.5065310000000  0.5146550000000 1.0
C      1  0.5159950000000  0.4818450000000  0.5096140000000 1.0
C      1  0.4778140000000  0.5012170000000  0.5093040000000 1.0
C      1  0.5145080000000  0.5236330000000  0.4935480000000 1.0
C      1  0.5057390000000  0.4728030000000  0.4858090000000 1.0
C      1  0.4818050000000  0.4942340000000  0.4810740000000 1.0
C      1  0.4183810000000  0.4866890000000  0.5049670000000 1.0
C      1  0.5186300000000  0.5726400000000  0.5197500000000 1.0
C      1  0.5483080000000  0.4402490000000  0.5077650000000 1.0
C      1  0.4297000000000  0.4773020000000  0.4801770000000 1.0
C      1  0.5251850000000  0.5727290000000  0.4880870000000 1.0
C      1  0.5492130000000  0.4469750000000  0.4789840000000 1.0
C      1  0.5857360000000  0.5379490000000  0.5148030000000 1.0
C      1  0.4909430000000  0.4120470000000  0.5189830000000 1.0
C      1  0.4190910000000  0.5530270000000  0.5118330000000 1.0
C      1  0.5883260000000  0.5393530000000  0.4859340000000 1.0
C      1  0.4951020000000  0.4012160000000  0.4916680000000 1.0
C      1  0.4324660000000  0.5479910000000  0.4855800000000 1.0
C      1  0.4310930000000  0.4439000000000  0.4440750000000 1.0
C      1  0.4923020000000  0.5954530000000  0.4613130000000 1.0
C      1  0.5853850000000  0.4599550000000  0.4567210000000 1.0
C      1  0.4294300000000  0.4473040000000  0.5421660000000 1.0
C      1  0.4862840000000  0.5943850000000  0.5563990000000 1.0
C      1  0.5946540000000  0.4670950000000  0.5530010000000 1.0
C      1  0.4776060000000  0.5172770000000  0.5518940000000 1.0
C      1  0.5272630000000  0.5097200000000  0.5524520000000 1.0
C      1  0.4989110000000  0.4681080000000  0.5485140000000 1.0
C      1  0.4732450000000  0.5178470000000  0.4495620000000 1.0
C      1  0.5257370000000  0.5149930000000  0.4492710000000 1.0
C      1  0.4977810000000  0.4821800000000  0.4276970000000 1.0
C      1  0.5497190000000  0.5189240000000  0.5310510000000 1.0
C      1  0.4885230000000  0.4492350000000  0.5218650000000 1.0
C      1  0.4632120000000  0.5271520000000  0.5146130000000 1.0
C      1  0.5360560000000  0.5170400000000  0.4759320000000 1.0
C      1  0.4931150000000  0.4479240000000  0.4930280000000 1.0
C      1  0.4621170000000  0.5299870000000  0.4855810000000 1.0
C      1  0.4666190000000  0.4475200000000  0.4778300000000 1.0
C      1  0.4906460000000  0.5385520000000  0.4874520000000 1.0
C      1  0.5533220000000  0.4949280000000  0.4840730000000 1.0
C      1  0.4671470000000  0.4689260000000  0.5166320000000 1.0
C      1  0.4760530000000  0.5530480000000  0.5221270000000 1.0
C      1  0.5547960000000  0.4966390000000  0.5145000000000 1.0
C      1  0.5035840000000  0.5229700000000  0.5406080000000 1.0
C      1  0.5278120000000  0.4795750000000  0.5508110000000 1.0
C      1  0.4721950000000  0.4879220000000  0.5529950000000 1.0
C      1  0.5002670000000  0.5368710000000  0.4483600000000 1.0
C      1  0.5274460000000  0.4845880000000  0.4443980000000 1.0
C      1  0.4684140000000  0.4885660000000  0.4422780000000 1.0
C      1  0.4453350000000  0.5903980000000  0.5151690000000 1.0
C      1  0.6022510000000  0.4918870000000  0.5160730000000 1.0
C      1  0.4447480000000  0.4028470000000  0.5165370000000 1.0
C      1  0.4438440000000  0.5958540000000  0.4855510000000 1.0
C      1  0.6048630000000  0.4949440000000  0.4866080000000 1.0
C      1  0.4498800000000  0.4078480000000  0.4874610000000 1.0
C      1  0.4570530000000  0.4794710000000  0.5789370000000 1.0
C      1  0.4970450000000  0.5508000000000  0.5841780000000 1.0
C      1  0.5462820000000  0.4728860000000  0.5758630000000 1.0
C      1  0.4509530000000  0.4796850000000  0.4186750000000 1.0
C      1  0.5029530000000  0.5567620000000  0.4255220000000 1.0
C      1  0.5451730000000  0.4722900000000  0.4235880000000 1.0
C      1  0.5309640000000  0.5132090000000  0.5812830000000 1.0
C      1  0.5003920000000  0.4620650000000  0.5776310000000 1.0
C      1  0.4707420000000  0.5309660000000  0.5771560000000 1.0
C      1  0.5331610000000  0.5199210000000  0.4210000000000 1.0
C      1  0.4985410000000  0.4528100000000  0.4192740000000 1.0
C      1  0.4672890000000  0.5236490000000  0.4209990000000 1.0
C      1  0.4589160000000  0.4385640000000  0.4503060000000 1.0
C      1  0.4450910000000  0.5704400000000  0.4423480000000 1.0
C      1  0.5849380000000  0.5121680000000  0.4429280000000 1.0
C      1  0.4654570000000  0.4178940000000  0.5602250000000 1.0
C      1  0.4635500000000  0.5788620000000  0.5604130000000 1.0
C      1  0.5821390000000  0.5104030000000  0.5577840000000 1.0
C      1  0.4273170000000  0.5727690000000  0.5301030000000 1.0
C      1  0.5921250000000  0.5147800000000  0.5311290000000 1.0
C      1  0.4675400000000  0.4051170000000  0.5343810000000 1.0
C      1  0.4361080000000  0.5730510000000  0.4692720000000 1.0
C      1  0.5960120000000  0.5171270000000  0.4695120000000 1.0
C      1  0.4746290000000  0.4016790000000  0.4723400000000 1.0
C      1  0.4429740000000  0.5063980000000  0.4143260000000 1.0
C      1  0.5292100000000  0.5493720000000  0.4163490000000 1.0
C      1  0.5269310000000  0.4488560000000  0.4179930000000 1.0
C      1  0.4506960000000  0.5073320000000  0.5835420000000 1.0
C      1  0.5238020000000  0.5429730000000  0.5832910000000 1.0
C      1  0.5286740000000  0.4513510000000  0.5826440000000 1.0
C      1  0.5381650000000  0.4716850000000  0.5233660000000 1.0
C      1  0.4492170000000  0.4833700000000  0.5327140000000 1.0
C      1  0.5023900000000  0.5512920000000  0.5305770000000 1.0
C      1  0.5342950000000  0.4716280000000  0.4712620000000 1.0
C      1  0.4593030000000  0.4784580000000  0.4706130000000 1.0
C      1  0.5045060000000  0.5557390000000  0.4705610000000 1.0
C      1  0.5706060000000  0.5590280000000  0.4744370000000 1.0
C      1  0.5216990000000  0.4054750000000  0.4816400000000 1.0
C      1  0.4135750000000  0.5283020000000  0.4766710000000 1.0
C      1  0.5660400000000  0.5573150000000  0.5217490000000 1.0
C      1  0.5175380000000  0.4074400000000  0.5289290000000 1.0
C      1  0.4085370000000  0.5300210000000  0.5248350000000 1.0
C      1  0.4248490000000  0.5081070000000  0.5704200000000 1.0
C      1  0.5414440000000  0.5628860000000  0.5690680000000 1.0
C      1  0.5399680000000  0.4299020000000  0.5660380000000 1.0
C      1  0.4177090000000  0.5053780000000  0.4298040000000 1.0
C      1  0.5456720000000  0.5691270000000  0.4300390000000 1.0
C      1  0.5356450000000  0.4245400000000  0.4323720000000 1.0
C      1  0.5616490000000  0.5103010000000  0.4245920000000 1.0
C      1  0.4804690000000  0.4331360000000  0.4315770000000 1.0
C      1  0.4537900000000  0.5503280000000  0.4221080000000 1.0
C      1  0.5607470000000  0.5099280000000  0.5783620000000 1.0
C      1  0.4741460000000  0.4419910000000  0.5759580000000 1.0
C      1  0.4527170000000  0.5567610000000  0.5717740000000 1.0
C      1  0.4082300000000  0.4781160000000  0.4351890000000 1.0
C      1  0.5280210000000  0.5909450000000  0.4394390000000 1.0
C      1  0.5640630000000  0.4308000000000  0.4357550000000 1.0
C      1  0.4177320000000  0.4805220000000  0.5635680000000 1.0
C      1  0.5266030000000  0.5876530000000  0.5656860000000 1.0
C      1  0.5663810000000  0.4368860000000  0.5536900000000 1.0
C      1  0.5721220000000  0.5346460000000  0.5681170000000 1.0
C      1  0.4917400000000  0.4191090000000  0.5719530000000 1.0
C      1  0.4283170000000  0.5570490000000  0.5556710000000 1.0
C      1  0.5756470000000  0.5341550000000  0.4306070000000 1.0
C      1  0.4899550000000  0.4106830000000  0.4481290000000 1.0
C      1  0.4270430000000  0.5495280000000  0.4325400000000 1.0
C      1  0.4731370000000  0.5921800000000  0.4833440000000 1.0
C      1  0.5826840000000  0.4763940000000  0.4812290000000 1.0
C      1  0.4433430000000  0.4355950000000  0.4914520000000 1.0
C      1  0.4726710000000  0.5805820000000  0.5111910000000 1.0
C      1  0.5903070000000  0.4652180000000  0.5134420000000 1.0
C      1  0.4359230000000  0.4309270000000  0.5193510000000 1.0
C      1  0.5346360000000  0.4136020000000  0.5064980000000 1.0
C      1  0.5540680000000  0.5670860000000  0.4967290000000 1.0
C      1  0.4077940000000  0.5128000000000  0.5008990000000 1.0
C      1  0.5071110000000  0.4915430000000  0.5929930000000 1.0
C      1  0.5010840000000  0.5071440000000  0.4115980000000 1.0
END
