TITL C-2441156-4686-300 0.00273784018481215 125000 -7189.04690518809 0 0 50 (C1) n - 1
REM
REM in /home/bkarasulu/work/CARBON/AIRSS/Generating-Clusters/ReaxFF-fromJPCA2015/Units_Real/with-SteepDescent/Higher-Symm
REM
REM
REM
REM
REM
REM ./C.cell (1df0a924f5614ab8850e4351716899ee)
REM
REM compiler GCC version 9.2.1 20190827 (Red Hat 9.2.1-1)
REM options -cpp -mtune=generic -march=x86-64 -g -O0 -fpre-include=/usr/include/finclude/math-vector-fortran.h
REM seed -1869441796 -1416001971 -13001595 1519971601 -1441149093 1293875404 759548902 1129183699 519133274 -863093508 131298163 1892131432 -1140584977 -1834887432 -1581424591 -1437170429 1563375772 1988376086 -993098763 1403017565 2064615109 418156407 440160106 167344762 1967706837 -949083782 -1659920619 -1160203376 -1367321198 -294904650 -1255868076 -1132579012 -1533275955
REM
CELL 1.54180   50.00000   50.00000   50.00000   90.00000   90.00000   90.00000
LATT -1
SFAC C  
C      1  0.5091410000000  0.5430320000000  0.4957930000000 1.0
C      1  0.4687130000000  0.4610060000000  0.4571320000000 1.0
C      1  0.5413290000000  0.5139910000000  0.4628800000000 1.0
C      1  0.5792620000000  0.5157140000000  0.4974050000000 1.0
C      1  0.4989710000000  0.4447160000000  0.5405690000000 1.0
C      1  0.4253210000000  0.4661010000000  0.4844970000000 1.0
C      1  0.4953140000000  0.5371850000000  0.5619600000000 1.0
C      1  0.4568370000000  0.5527650000000  0.4782430000000 1.0
C      1  0.4907040000000  0.4416140000000  0.4570390000000 1.0
C      1  0.4980080000000  0.5625850000000  0.4770920000000 1.0
C      1  0.4400030000000  0.4901790000000  0.4978940000000 1.0
C      1  0.5633260000000  0.4764370000000  0.4968670000000 1.0
C      1  0.4993140000000  0.5008860000000  0.4385500000000 1.0
C      1  0.5114840000000  0.4768610000000  0.4328170000000 1.0
C      1  0.5557230000000  0.5565640000000  0.4872480000000 1.0
C      1  0.4761040000000  0.5251100000000  0.5260560000000 1.0
C      1  0.4891600000000  0.4368760000000  0.4847960000000 1.0
C      1  0.4774150000000  0.4896750000000  0.4566140000000 1.0
C      1  0.5544800000000  0.4503710000000  0.5017010000000 1.0
C      1  0.5196520000000  0.4632820000000  0.5453210000000 1.0
C      1  0.4606270000000  0.4737350000000  0.5439250000000 1.0
C      1  0.5273760000000  0.4608960000000  0.4729740000000 1.0
C      1  0.5623860000000  0.5301970000000  0.4751840000000 1.0
C      1  0.5400030000000  0.5368600000000  0.5334690000000 1.0
C      1  0.5171030000000  0.4530440000000  0.4467260000000 1.0
C      1  0.5230650000000  0.4432140000000  0.5260730000000 1.0
C      1  0.5667000000000  0.4976580000000  0.5163570000000 1.0
C      1  0.5206470000000  0.5419560000000  0.5524900000000 1.0
C      1  0.4500640000000  0.4514880000000  0.4788530000000 1.0
C      1  0.5281940000000  0.4412400000000  0.4956590000000 1.0
C      1  0.5361170000000  0.4893360000000  0.4814570000000 1.0
C      1  0.5185240000000  0.5232380000000  0.4475140000000 1.0
C      1  0.4487370000000  0.5257840000000  0.4756170000000 1.0
C      1  0.4422960000000  0.4915620000000  0.5283230000000 1.0
C      1  0.5343860000000  0.5511190000000  0.5082910000000 1.0
C      1  0.5219250000000  0.4910010000000  0.5492820000000 1.0
C      1  0.4686210000000  0.4414940000000  0.5028170000000 1.0
C      1  0.5195410000000  0.5008800000000  0.5039750000000 1.0
C      1  0.5010750000000  0.5061020000000  0.5639530000000 1.0
C      1  0.4943420000000  0.5157900000000  0.5008690000000 1.0
C      1  0.4707740000000  0.5739750000000  0.4895760000000 1.0
C      1  0.5377160000000  0.5058370000000  0.5281330000000 1.0
C      1  0.5058080000000  0.5500870000000  0.4513290000000 1.0
C      1  0.4822480000000  0.5516890000000  0.5379920000000 1.0
C      1  0.4723030000000  0.4495040000000  0.5305770000000 1.0
C      1  0.4470930000000  0.5205440000000  0.5259840000000 1.0
C      1  0.4810310000000  0.4888720000000  0.5560330000000 1.0
C      1  0.4700000000000  0.5046670000000  0.4802660000000 1.0
C      1  0.4683840000000  0.5641240000000  0.5163030000000 1.0
C      1  0.4326510000000  0.5191600000000  0.4995230000000 1.0
END
