TITL C-2441160-1326-533 0.0375484112506441 125000 -12259.4212174383 0 0 93 (C1) n - 1
REM
REM in /home/bkarasulu/work/CARBON/AIRSS/Generating-Clusters/ReaxFF-fromJPCA2015/Units_Real/with-SteepDescent/Higher-Symm
REM
REM
REM
REM
REM
REM ./C.cell (1df0a924f5614ab8850e4351716899ee)
REM
REM compiler GCC version 9.2.1 20190827 (Red Hat 9.2.1-1)
REM options -cpp -mtune=generic -march=x86-64 -g -O0 -fpre-include=/usr/include/finclude/math-vector-fortran.h
REM seed -373432462 -292334142 972849698 -1482808698 -1283413590 644245215 1682308268 1813613314 1441075825 1847542718 -1535961938 -1177607739 -213177329 682148748 1075913798 -331710756 -299670137 1101566017 -583469471 1024271783 -473235940 296733424 1934265579 -726875500 -53127186 -1399837022 -351199094 121459675 460762108 1841166438 1958089453 -1888036924 734777214
REM
CELL 1.54180   50.00000   50.00000   50.00000   90.00000   90.00000   90.00000
LATT -1
SFAC C  
C      1  0.5381280000000  0.4792450000000  0.4905800000000 1.0
C      1  0.4994700000000  0.5513770000000  0.4888210000000 1.0
C      1  0.4919500000000  0.4785530000000  0.5329200000000 1.0
C      1  0.4553530000000  0.4878470000000  0.5051640000000 1.0
C      1  0.5394270000000  0.5161390000000  0.5051480000000 1.0
C      1  0.4645460000000  0.5243190000000  0.4818570000000 1.0
C      1  0.5268970000000  0.5385340000000  0.5141930000000 1.0
C      1  0.4759960000000  0.4662130000000  0.5117200000000 1.0
C      1  0.5186310000000  0.4587560000000  0.4916260000000 1.0
C      1  0.5003740000000  0.4879840000000  0.4498120000000 1.0
C      1  0.4894160000000  0.5337780000000  0.4681670000000 1.0
C      1  0.5042110000000  0.5142460000000  0.5512400000000 1.0
C      1  0.5329560000000  0.5060030000000  0.4788670000000 1.0
C      1  0.4915960000000  0.4621400000000  0.4885840000000 1.0
C      1  0.4799290000000  0.5041520000000  0.5385500000000 1.0
C      1  0.4594950000000  0.5125050000000  0.5195990000000 1.0
C      1  0.5380210000000  0.4920310000000  0.5191250000000 1.0
C      1  0.4609550000000  0.4966290000000  0.4792610000000 1.0
C      1  0.5313720000000  0.4446630000000  0.5122700000000 1.0
C      1  0.4978970000000  0.5325860000000  0.5119230000000 1.0
C      1  0.5319500000000  0.5552450000000  0.4917910000000 1.0
C      1  0.5105320000000  0.5114380000000  0.4627880000000 1.0
C      1  0.4803130000000  0.4776740000000  0.4670250000000 1.0
C      1  0.5171350000000  0.4911670000000  0.5384550000000 1.0
C      1  0.5129460000000  0.4418290000000  0.5491710000000 1.0
C      1  0.5448750000000  0.5170510000000  0.4362360000000 1.0
C      1  0.4439280000000  0.5366390000000  0.5255590000000 1.0
C      1  0.4848310000000  0.4399160000000  0.4527450000000 1.0
C      1  0.5179570000000  0.5622270000000  0.4503180000000 1.0
C      1  0.4847090000000  0.5576900000000  0.5478140000000 1.0
C      1  0.4515280000000  0.5142970000000  0.5640560000000 1.0
C      1  0.5467860000000  0.4827460000000  0.5645950000000 1.0
C      1  0.4506380000000  0.4851390000000  0.4364100000000 1.0
C      1  0.5543390000000  0.5470110000000  0.4757070000000 1.0
C      1  0.4386940000000  0.4570050000000  0.4780870000000 1.0
C      1  0.5555480000000  0.4542380000000  0.5249130000000 1.0
C      1  0.5144660000000  0.5591290000000  0.5453710000000 1.0
C      1  0.5461920000000  0.4844780000000  0.4378350000000 1.0
C      1  0.4415270000000  0.4542280000000  0.5219410000000 1.0
C      1  0.4798020000000  0.5566840000000  0.4478490000000 1.0
C      1  0.5141510000000  0.4406840000000  0.4533710000000 1.0
C      1  0.4832100000000  0.4400200000000  0.5477100000000 1.0
C      1  0.4546920000000  0.4815340000000  0.5626820000000 1.0
C      1  0.5476630000000  0.5145030000000  0.5642380000000 1.0
C      1  0.4519300000000  0.5153540000000  0.4347860000000 1.0
C      1  0.5580600000000  0.4589370000000  0.4744940000000 1.0
C      1  0.4416650000000  0.5405700000000  0.4733240000000 1.0
C      1  0.5617560000000  0.5387770000000  0.5336980000000 1.0
C      1  0.5301800000000  0.4844790000000  0.5886210000000 1.0
C      1  0.5766740000000  0.5302660000000  0.4865560000000 1.0
C      1  0.4830520000000  0.5798370000000  0.5287120000000 1.0
C      1  0.4684220000000  0.4830500000000  0.4140500000000 1.0
C      1  0.5292920000000  0.5142010000000  0.4121570000000 1.0
C      1  0.4690140000000  0.5137690000000  0.5865870000000 1.0
C      1  0.4176630000000  0.5278560000000  0.5147060000000 1.0
C      1  0.5781160000000  0.4711940000000  0.5124410000000 1.0
C      1  0.4144350000000  0.4700150000000  0.4833160000000 1.0
C      1  0.5124770000000  0.5850380000000  0.4670010000000 1.0
C      1  0.4839280000000  0.4163110000000  0.4695500000000 1.0
C      1  0.5157030000000  0.4198400000000  0.5288920000000 1.0
C      1  0.5325830000000  0.5140340000000  0.5888470000000 1.0
C      1  0.5823280000000  0.4715250000000  0.4833470000000 1.0
C      1  0.4839360000000  0.4179430000000  0.5292820000000 1.0
C      1  0.4704070000000  0.5124950000000  0.4116260000000 1.0
C      1  0.5316330000000  0.4846030000000  0.4133450000000 1.0
C      1  0.4710540000000  0.4844290000000  0.5865000000000 1.0
C      1  0.4183020000000  0.4681990000000  0.5120590000000 1.0
C      1  0.5814370000000  0.5302330000000  0.5158160000000 1.0
C      1  0.4170470000000  0.5290680000000  0.4849300000000 1.0
C      1  0.5140140000000  0.4161890000000  0.4705700000000 1.0
C      1  0.4836830000000  0.5814620000000  0.4637840000000 1.0
C      1  0.5118680000000  0.5821710000000  0.5263520000000 1.0
C      1  0.5007220000000  0.4872470000000  0.5891290000000 1.0
C      1  0.5872010000000  0.5023400000000  0.4847210000000 1.0
C      1  0.4818080000000  0.5766930000000  0.4945860000000 1.0
C      1  0.5004200000000  0.4825630000000  0.4222720000000 1.0
C      1  0.4994150000000  0.5100950000000  0.4135120000000 1.0
C      1  0.5017710000000  0.5171950000000  0.5806820000000 1.0
C      1  0.4087770000000  0.4993440000000  0.5134520000000 1.0
C      1  0.5880090000000  0.4994720000000  0.5136870000000 1.0
C      1  0.4070800000000  0.5009460000000  0.4849460000000 1.0
C      1  0.5117140000000  0.4102630000000  0.4996870000000 1.0
C      1  0.5075380000000  0.5906220000000  0.4969550000000 1.0
C      1  0.4836840000000  0.4113270000000  0.5000170000000 1.0
C      1  0.4556410000000  0.4581030000000  0.4551300000000 1.0
C      1  0.5402010000000  0.4580840000000  0.5501740000000 1.0
C      1  0.4587370000000  0.5395930000000  0.5504840000000 1.0
C      1  0.5399170000000  0.5432780000000  0.4495290000000 1.0
C      1  0.4539520000000  0.5425810000000  0.4468630000000 1.0
C      1  0.4565810000000  0.4571250000000  0.5468180000000 1.0
C      1  0.5406740000000  0.4591680000000  0.4518870000000 1.0
C      1  0.5409480000000  0.5409850000000  0.5505890000000 1.0
C      1  0.4967060000000  0.5057820000000  0.5039870000000 1.0
END
