TITL C-2441158-471-251 0.0514860487798801 125000 -11425.688067818 0 0 87 (C1) n - 1
REM
REM in /home/bkarasulu/work/CARBON/AIRSS/Generating-Clusters/ReaxFF-fromJPCA2015/Units_Real/with-SteepDescent/Higher-Symm
REM
REM
REM
REM
REM
REM ./C.cell (1df0a924f5614ab8850e4351716899ee)
REM
REM compiler GCC version 9.2.1 20190827 (Red Hat 9.2.1-1)
REM options -cpp -mtune=generic -march=x86-64 -g -O0 -fpre-include=/usr/include/finclude/math-vector-fortran.h
REM seed 1406909847 1315345104 -1818024804 2076143850 -748237335 809533039 -998587461 507927261 2099196496 1530626040 1440542832 2124069124 -1403803148 663705876 -1089025159 1767020301 -1882630158 -471886109 -5565441 -1952176573 631153406 798791078 -1243459123 123244566 199984065 1535437391 -80868427 -1843175741 1788508876 199835269 1766245751 336993822 1277310177
REM
CELL 1.54180   50.00000   50.00000   50.00000   90.00000   90.00000   90.00000
LATT -1
SFAC C  
C      1  0.5493410000000  0.4588400000000  0.4473060000000 1.0
C      1  0.5499470000000  0.5622470000000  0.4906360000000 1.0
C      1  0.5503930000000  0.4752920000000  0.5603100000000 1.0
C      1  0.4593740000000  0.5224580000000  0.5628490000000 1.0
C      1  0.4573880000000  0.4413990000000  0.4829030000000 1.0
C      1  0.4601800000000  0.5432460000000  0.4494930000000 1.0
C      1  0.4689780000000  0.5533980000000  0.4770190000000 1.0
C      1  0.4650440000000  0.4876390000000  0.5621250000000 1.0
C      1  0.4676220000000  0.4553510000000  0.4593330000000 1.0
C      1  0.5197160000000  0.5180350000000  0.5334630000000 1.0
C      1  0.5159560000000  0.4552540000000  0.5077190000000 1.0
C      1  0.5268480000000  0.5074120000000  0.4714750000000 1.0
C      1  0.4869640000000  0.4447640000000  0.4396280000000 1.0
C      1  0.4857100000000  0.5787710000000  0.4825890000000 1.0
C      1  0.4876900000000  0.4754460000000  0.5787010000000 1.0
C      1  0.5132860000000  0.5150830000000  0.4230510000000 1.0
C      1  0.5175740000000  0.5647840000000  0.5551480000000 1.0
C      1  0.5136400000000  0.4208790000000  0.5280580000000 1.0
C      1  0.4450150000000  0.4645240000000  0.4959850000000 1.0
C      1  0.4327160000000  0.5227020000000  0.4791800000000 1.0
C      1  0.4338830000000  0.5048000000000  0.5217830000000 1.0
C      1  0.5578490000000  0.4622760000000  0.5207850000000 1.0
C      1  0.5605030000000  0.5020620000000  0.4468740000000 1.0
C      1  0.5593860000000  0.5411950000000  0.5259660000000 1.0
C      1  0.4963800000000  0.4676490000000  0.4242350000000 1.0
C      1  0.4956700000000  0.5800840000000  0.5103110000000 1.0
C      1  0.4970340000000  0.4522610000000  0.5647220000000 1.0
C      1  0.4872450000000  0.4743660000000  0.4803870000000 1.0
C      1  0.4816480000000  0.5274630000000  0.4804650000000 1.0
C      1  0.4801110000000  0.4978420000000  0.5395550000000 1.0
C      1  0.5463260000000  0.5670610000000  0.5195850000000 1.0
C      1  0.5460270000000  0.4507280000000  0.5458030000000 1.0
C      1  0.5461460000000  0.4822560000000  0.4296680000000 1.0
C      1  0.4830320000000  0.5320780000000  0.5765460000000 1.0
C      1  0.4805150000000  0.4230220000000  0.4920200000000 1.0
C      1  0.4828460000000  0.5510470000000  0.4325370000000 1.0
C      1  0.5289880000000  0.4279440000000  0.5011390000000 1.0
C      1  0.5318840000000  0.5376590000000  0.4371180000000 1.0
C      1  0.5318980000000  0.5404160000000  0.5648090000000 1.0
C      1  0.4603030000000  0.5078200000000  0.4752930000000 1.0
C      1  0.4628060000000  0.5094380000000  0.5186570000000 1.0
C      1  0.4652310000000  0.4870700000000  0.4952070000000 1.0
C      1  0.5075990000000  0.5178040000000  0.4881640000000 1.0
C      1  0.5124810000000  0.5018630000000  0.5111970000000 1.0
C      1  0.5124460000000  0.4785400000000  0.4941040000000 1.0
C      1  0.5557300000000  0.5277490000000  0.5515850000000 1.0
C      1  0.5554290000000  0.4466580000000  0.4972180000000 1.0
C      1  0.5557340000000  0.5305780000000  0.4524510000000 1.0
C      1  0.5214380000000  0.5560760000000  0.4870940000000 1.0
C      1  0.5234230000000  0.4843010000000  0.5551770000000 1.0
C      1  0.5225400000000  0.4583330000000  0.4568770000000 1.0
C      1  0.4188990000000  0.5251670000000  0.5054460000000 1.0
C      1  0.4261030000000  0.4777490000000  0.5140400000000 1.0
C      1  0.4190510000000  0.4998500000000  0.4736500000000 1.0
C      1  0.4854420000000  0.4195420000000  0.5207140000000 1.0
C      1  0.4833010000000  0.5247980000000  0.4200900000000 1.0
C      1  0.4884540000000  0.5541930000000  0.5557500000000 1.0
C      1  0.5634110000000  0.4991390000000  0.5469700000000 1.0
C      1  0.5605010000000  0.4635150000000  0.4745720000000 1.0
C      1  0.5612170000000  0.5364100000000  0.4813900000000 1.0
C      1  0.5203590000000  0.5773030000000  0.5291520000000 1.0
C      1  0.5195020000000  0.4379000000000  0.5514170000000 1.0
C      1  0.5193780000000  0.4844360000000  0.4182990000000 1.0
C      1  0.5588490000000  0.5192370000000  0.5052580000000 1.0
C      1  0.5630130000000  0.4928670000000  0.5196320000000 1.0
C      1  0.5541860000000  0.4927640000000  0.4737250000000 1.0
C      1  0.4996120000000  0.4756660000000  0.5420330000000 1.0
C      1  0.5004840000000  0.4793570000000  0.4530900000000 1.0
C      1  0.5004890000000  0.5516760000000  0.5067040000000 1.0
C      1  0.4538930000000  0.4618930000000  0.5463510000000 1.0
C      1  0.4556020000000  0.4889400000000  0.4492170000000 1.0
C      1  0.4567560000000  0.5436840000000  0.5147940000000 1.0
C      1  0.4945910000000  0.4574280000000  0.5244330000000 1.0
C      1  0.5093240000000  0.5058810000000  0.4509990000000 1.0
C      1  0.4991990000000  0.5371950000000  0.5309140000000 1.0
C      1  0.4604630000000  0.5451050000000  0.5441120000000 1.0
C      1  0.4697540000000  0.4442340000000  0.5272650000000 1.0
C      1  0.4608430000000  0.5153590000000  0.4360490000000 1.0
C      1  0.5106000000000  0.5212710000000  0.5737770000000 1.0
C      1  0.5070610000000  0.4216730000000  0.4803840000000 1.0
C      1  0.5112860000000  0.5562570000000  0.4426630000000 1.0
C      1  0.5101330000000  0.5731890000000  0.4668870000000 1.0
C      1  0.5116810000000  0.4925380000000  0.5799690000000 1.0
C      1  0.5102890000000  0.4324220000000  0.4537550000000 1.0
C      1  0.4300400000000  0.5516460000000  0.5097020000000 1.0
C      1  0.4251680000000  0.4618120000000  0.5406350000000 1.0
C      1  0.4251540000000  0.4819400000000  0.4518570000000 1.0
END
