TITL C-2441169-1362-999 0.0776055648742047 125000 -19237.1837991091 0 0 145 (C1) n - 1
REM
REM in /home/bkarasulu/work/CARBON/AIRSS/Generating-Clusters/ReaxFF-fromJPCA2015/Units_Real/with-SteepDescent/Higher-Symm
REM
REM
REM
REM
REM
REM ./C.cell (1df0a924f5614ab8850e4351716899ee)
REM
REM compiler GCC version 9.2.1 20190827 (Red Hat 9.2.1-1)
REM options -cpp -mtune=generic -march=x86-64 -g -O0 -fpre-include=/usr/include/finclude/math-vector-fortran.h
REM seed 404426857 1204667174 -108984175 -526240030 -755406967 -1951183574 1003927449 -693202413 1738087693 -541670884 1354348150 775339186 2146699938 74649142 -1742738477 1334680648 -1299206189 1450574693 1336448030 -33335186 1061394012 330650759 1865946726 -1533894044 -1206234588 1053754658 -411030302 -1908322348 -178333244 -1699558527 1704324875 1738143880 -2123340280
REM
CELL 1.54180   50.00000   50.00000   50.00000   90.00000   90.00000   90.00000
LATT -1
SFAC C  
C      1  0.4139070000000  0.5143020000000  0.4862450000000 1.0
C      1  0.4863160000000  0.4079550000000  0.4852250000000 1.0
C      1  0.5826870000000  0.4884730000000  0.4873130000000 1.0
C      1  0.5147560000000  0.5878930000000  0.4861960000000 1.0
C      1  0.4073640000000  0.4856520000000  0.4860330000000 1.0
C      1  0.4852750000000  0.5863840000000  0.4852990000000 1.0
C      1  0.5824330000000  0.5174460000000  0.4877700000000 1.0
C      1  0.5134270000000  0.4012880000000  0.4835110000000 1.0
C      1  0.4373400000000  0.5146910000000  0.5237490000000 1.0
C      1  0.4844510000000  0.4381460000000  0.5254170000000 1.0
C      1  0.5597590000000  0.4832050000000  0.5277590000000 1.0
C      1  0.5132790000000  0.5746220000000  0.5291120000000 1.0
C      1  0.4355860000000  0.4848260000000  0.5241290000000 1.0
C      1  0.4864970000000  0.5631890000000  0.5255250000000 1.0
C      1  0.5591960000000  0.5113610000000  0.5254890000000 1.0
C      1  0.5107110000000  0.4290460000000  0.5192910000000 1.0
C      1  0.4873310000000  0.5332340000000  0.4495110000000 1.0
C      1  0.4741720000000  0.4875410000000  0.4597490000000 1.0
C      1  0.5148600000000  0.4652120000000  0.4501090000000 1.0
C      1  0.5290680000000  0.5126340000000  0.4589090000000 1.0
C      1  0.4886470000000  0.4690110000000  0.4488410000000 1.0
C      1  0.4680350000000  0.5134270000000  0.4563400000000 1.0
C      1  0.5129210000000  0.5296100000000  0.4456310000000 1.0
C      1  0.5310990000000  0.4889670000000  0.4463800000000 1.0
C      1  0.4087440000000  0.5453870000000  0.5221370000000 1.0
C      1  0.4532250000000  0.4103720000000  0.5259310000000 1.0
C      1  0.5933120000000  0.4558050000000  0.5221330000000 1.0
C      1  0.5354460000000  0.5913040000000  0.5210010000000 1.0
C      1  0.4104500000000  0.4603840000000  0.5236790000000 1.0
C      1  0.4563740000000  0.5926100000000  0.5214590000000 1.0
C      1  0.5925490000000  0.5421070000000  0.5207530000000 1.0
C      1  0.5459410000000  0.4081860000000  0.5214620000000 1.0
C      1  0.4849040000000  0.5870220000000  0.4557850000000 1.0
C      1  0.4079140000000  0.4866900000000  0.4566350000000 1.0
C      1  0.5147610000000  0.4113030000000  0.4559130000000 1.0
C      1  0.5852190000000  0.5157180000000  0.4583760000000 1.0
C      1  0.4861530000000  0.4203520000000  0.4573130000000 1.0
C      1  0.4185550000000  0.5142820000000  0.4567820000000 1.0
C      1  0.5139350000000  0.5864360000000  0.4567160000000 1.0
C      1  0.5876100000000  0.4872330000000  0.4582260000000 1.0
C      1  0.4665130000000  0.4445230000000  0.5057240000000 1.0
C      1  0.5561350000000  0.4616350000000  0.5064860000000 1.0
C      1  0.5395800000000  0.5576060000000  0.4943020000000 1.0
C      1  0.4453470000000  0.5346300000000  0.5021610000000 1.0
C      1  0.4691610000000  0.5578290000000  0.5014940000000 1.0
C      1  0.5574160000000  0.5277650000000  0.5001200000000 1.0
C      1  0.5308570000000  0.4440000000000  0.5018630000000 1.0
C      1  0.4468150000000  0.4665400000000  0.5031550000000 1.0
C      1  0.4831790000000  0.4576960000000  0.4859140000000 1.0
C      1  0.5466380000000  0.4782330000000  0.4859280000000 1.0
C      1  0.5169050000000  0.5465150000000  0.4826540000000 1.0
C      1  0.4566760000000  0.5153330000000  0.4842030000000 1.0
C      1  0.4896580000000  0.5427000000000  0.4878130000000 1.0
C      1  0.5331090000000  0.5207900000000  0.4853460000000 1.0
C      1  0.5292050000000  0.4561340000000  0.4767060000000 1.0
C      1  0.4568600000000  0.4719790000000  0.4761580000000 1.0
C      1  0.5411330000000  0.4213940000000  0.4499310000000 1.0
C      1  0.5795490000000  0.5418060000000  0.4499710000000 1.0
C      1  0.4596930000000  0.5770720000000  0.4482790000000 1.0
C      1  0.4202000000000  0.4616210000000  0.4500540000000 1.0
C      1  0.5390570000000  0.5781620000000  0.4468750000000 1.0
C      1  0.5792300000000  0.4615690000000  0.4496500000000 1.0
C      1  0.4588790000000  0.4216270000000  0.4496290000000 1.0
C      1  0.4181690000000  0.5416150000000  0.4486780000000 1.0
C      1  0.4194490000000  0.4416030000000  0.4721880000000 1.0
C      1  0.5608200000000  0.4205420000000  0.4722440000000 1.0
C      1  0.5806320000000  0.5617140000000  0.4719850000000 1.0
C      1  0.4400650000000  0.5797590000000  0.4712660000000 1.0
C      1  0.4188760000000  0.5613960000000  0.4712730000000 1.0
C      1  0.5564090000000  0.5786790000000  0.4740620000000 1.0
C      1  0.5751300000000  0.4458780000000  0.4759070000000 1.0
C      1  0.4384190000000  0.4205740000000  0.4726620000000 1.0
C      1  0.3974220000000  0.4863740000000  0.5131000000000 1.0
C      1  0.5169680000000  0.4019210000000  0.5123180000000 1.0
C      1  0.6012590000000  0.5144280000000  0.5125840000000 1.0
C      1  0.4817800000000  0.6038110000000  0.5094580000000 1.0
C      1  0.3987560000000  0.5167350000000  0.5119020000000 1.0
C      1  0.5112530000000  0.6082410000000  0.5071410000000 1.0
C      1  0.5995500000000  0.4851120000000  0.5113350000000 1.0
C      1  0.4757570000000  0.4032730000000  0.5109070000000 1.0
C      1  0.4344460000000  0.4162320000000  0.5028890000000 1.0
C      1  0.5869680000000  0.4354900000000  0.5017560000000 1.0
C      1  0.5641830000000  0.5864790000000  0.5029240000000 1.0
C      1  0.4142760000000  0.5655500000000  0.5018360000000 1.0
C      1  0.4359900000000  0.5859220000000  0.5010950000000 1.0
C      1  0.5844080000000  0.5646830000000  0.5017680000000 1.0
C      1  0.5662470000000  0.4134050000000  0.5008700000000 1.0
C      1  0.4150680000000  0.4388170000000  0.5028640000000 1.0
C      1  0.5303770000000  0.5436770000000  0.5504300000000 1.0
C      1  0.4428110000000  0.5274500000000  0.5495060000000 1.0
C      1  0.4763980000000  0.4451880000000  0.5490620000000 1.0
C      1  0.5579770000000  0.4687320000000  0.5545580000000 1.0
C      1  0.5303670000000  0.4496850000000  0.5497290000000 1.0
C      1  0.4493860000000  0.4762910000000  0.5473590000000 1.0
C      1  0.4728370000000  0.5526390000000  0.5484850000000 1.0
C      1  0.5561240000000  0.5260980000000  0.5532220000000 1.0
C      1  0.4404320000000  0.5116480000000  0.5743910000000 1.0
C      1  0.4840720000000  0.4396740000000  0.5728900000000 1.0
C      1  0.5578310000000  0.4850050000000  0.5788050000000 1.0
C      1  0.5136130000000  0.5550460000000  0.5727280000000 1.0
C      1  0.4417090000000  0.4825960000000  0.5735430000000 1.0
C      1  0.4849900000000  0.5560460000000  0.5725320000000 1.0
C      1  0.5567080000000  0.5129120000000  0.5779120000000 1.0
C      1  0.5141770000000  0.4414860000000  0.5731590000000 1.0
C      1  0.5420690000000  0.4403660000000  0.4269720000000 1.0
C      1  0.5615050000000  0.5388210000000  0.4254620000000 1.0
C      1  0.4582160000000  0.5573190000000  0.4262770000000 1.0
C      1  0.4392710000000  0.4621830000000  0.4269260000000 1.0
C      1  0.5405280000000  0.5595880000000  0.4249890000000 1.0
C      1  0.5620240000000  0.4613090000000  0.4263660000000 1.0
C      1  0.4601040000000  0.4415930000000  0.4276060000000 1.0
C      1  0.4373880000000  0.5369370000000  0.4267490000000 1.0
C      1  0.4583290000000  0.4830170000000  0.4180990000000 1.0
C      1  0.5212510000000  0.4599820000000  0.4203450000000 1.0
C      1  0.5427990000000  0.5186400000000  0.4161180000000 1.0
C      1  0.4787360000000  0.5363720000000  0.4212950000000 1.0
C      1  0.4574490000000  0.5135940000000  0.4224310000000 1.0
C      1  0.5201270000000  0.5368270000000  0.4188440000000 1.0
C      1  0.5405300000000  0.4843170000000  0.4197010000000 1.0
C      1  0.4804390000000  0.4634510000000  0.4219740000000 1.0
C      1  0.5126390000000  0.5340290000000  0.5926220000000 1.0
C      1  0.4641800000000  0.5119510000000  0.5906310000000 1.0
C      1  0.4839220000000  0.4617480000000  0.5929920000000 1.0
C      1  0.5330780000000  0.4843880000000  0.5945560000000 1.0
C      1  0.5129130000000  0.4635990000000  0.5919260000000 1.0
C      1  0.4641590000000  0.4829750000000  0.5926260000000 1.0
C      1  0.4832670000000  0.5341750000000  0.5913230000000 1.0
C      1  0.5330850000000  0.5141410000000  0.5939710000000 1.0
C      1  0.5152570000000  0.4735320000000  0.5294730000000 1.0
C      1  0.5230990000000  0.5107040000000  0.5069180000000 1.0
C      1  0.4901150000000  0.5266540000000  0.5121350000000 1.0
C      1  0.4764650000000  0.4892020000000  0.5272890000000 1.0
C      1  0.5121360000000  0.5231270000000  0.5313900000000 1.0
C      1  0.5275550000000  0.4874350000000  0.5068360000000 1.0
C      1  0.4931200000000  0.4734390000000  0.5104310000000 1.0
C      1  0.4738850000000  0.5077620000000  0.5061960000000 1.0
C      1  0.4282560000000  0.5526480000000  0.5425810000000 1.0
C      1  0.4520590000000  0.4314440000000  0.5495340000000 1.0
C      1  0.5756850000000  0.4463410000000  0.5434080000000 1.0
C      1  0.5499240000000  0.5643180000000  0.5414720000000 1.0
C      1  0.4323340000000  0.4525610000000  0.5481220000000 1.0
C      1  0.4507020000000  0.5718040000000  0.5418770000000 1.0
C      1  0.5745520000000  0.5502770000000  0.5426170000000 1.0
C      1  0.5513700000000  0.4298550000000  0.5407940000000 1.0
C      1  0.5007420000000  0.4972460000000  0.5476120000000 1.0
END
