TITL C-2441162-9305-943 0.00996264101909001 125000 -16238.207117444 0 0 108 (C1) n - 1
REM
REM in /home/bkarasulu/work/CARBON/AIRSS/Generating-Clusters/ReaxFF-fromJPCA2015/Units_Real/with-SteepDescent/Higher-Symm
REM
REM
REM
REM
REM
REM ./C.cell (1df0a924f5614ab8850e4351716899ee)
REM
REM compiler GCC version 9.2.1 20190827 (Red Hat 9.2.1-1)
REM options -cpp -mtune=generic -march=x86-64 -g -O0 -fpre-include=/usr/include/finclude/math-vector-fortran.h
REM seed -19494328 1276264729 -336111228 -21171310 -1770717013 1965869605 -200559507 510393377 1576991028 585675921 -1596559117 523613264 -1907771915 1283370266 -1503823875 125092953 1130832669 -1203885336 1666737606 -5369532 -1779027360 -1984726994 1364895203 -1087183421 1284558653 -554976087 922738812 1659486831 454034029 -2106900129 1531435451 -1447497313 -562514504
REM
CELL 1.54180   50.00000   50.00000   50.00000   90.00000   90.00000   90.00000
LATT -1
SFAC C  
C      1  0.4331580000000  0.5463220000000  0.4530780000000 1.0
C      1  0.4550220000000  0.4326270000000  0.4561830000000 1.0
C      1  0.5659200000000  0.4503120000000  0.4501760000000 1.0
C      1  0.5523570000000  0.5738100000000  0.4512960000000 1.0
C      1  0.4288710000000  0.4480450000000  0.4563820000000 1.0
C      1  0.4522150000000  0.5688340000000  0.4538090000000 1.0
C      1  0.5739140000000  0.5525610000000  0.4516380000000 1.0
C      1  0.5505990000000  0.4245200000000  0.4517060000000 1.0
C      1  0.4893430000000  0.4694010000000  0.4491120000000 1.0
C      1  0.5330730000000  0.4841340000000  0.4525660000000 1.0
C      1  0.5171600000000  0.5268520000000  0.4471600000000 1.0
C      1  0.4692220000000  0.5138140000000  0.4489380000000 1.0
C      1  0.4889510000000  0.5340330000000  0.4560130000000 1.0
C      1  0.5305070000000  0.5092060000000  0.4628350000000 1.0
C      1  0.5137100000000  0.4678530000000  0.4627670000000 1.0
C      1  0.4706730000000  0.4884890000000  0.4605820000000 1.0
C      1  0.4587910000000  0.4168790000000  0.4784100000000 1.0
C      1  0.5776500000000  0.4609980000000  0.4750870000000 1.0
C      1  0.5394130000000  0.5832790000000  0.4775010000000 1.0
C      1  0.4187180000000  0.5392790000000  0.4773890000000 1.0
C      1  0.4583140000000  0.5834590000000  0.4780060000000 1.0
C      1  0.5853700000000  0.5408380000000  0.4763920000000 1.0
C      1  0.5379910000000  0.4156700000000  0.4769890000000 1.0
C      1  0.4188660000000  0.4600590000000  0.4816840000000 1.0
C      1  0.5123260000000  0.5328900000000  0.5006940000000 1.0
C      1  0.4697370000000  0.5140740000000  0.4986600000000 1.0
C      1  0.4865780000000  0.4685810000000  0.5015130000000 1.0
C      1  0.5316080000000  0.4872550000000  0.5027420000000 1.0
C      1  0.5139100000000  0.4674020000000  0.4904940000000 1.0
C      1  0.4699980000000  0.4879090000000  0.4880040000000 1.0
C      1  0.4873580000000  0.5331730000000  0.4862990000000 1.0
C      1  0.5307230000000  0.5127410000000  0.4899100000000 1.0
C      1  0.4600410000000  0.5142520000000  0.5753670000000 1.0
C      1  0.4848090000000  0.4602040000000  0.5761310000000 1.0
C      1  0.5391380000000  0.4858150000000  0.5766580000000 1.0
C      1  0.5124080000000  0.5386650000000  0.5779280000000 1.0
C      1  0.4637200000000  0.4845460000000  0.5688280000000 1.0
C      1  0.4832720000000  0.5342370000000  0.5688540000000 1.0
C      1  0.5350430000000  0.5158780000000  0.5709950000000 1.0
C      1  0.5149510000000  0.4643690000000  0.5710480000000 1.0
C      1  0.4185730000000  0.4867780000000  0.4697920000000 1.0
C      1  0.5109840000000  0.4191540000000  0.4663570000000 1.0
C      1  0.5788030000000  0.5131890000000  0.4669470000000 1.0
C      1  0.4857160000000  0.5909010000000  0.4867260000000 1.0
C      1  0.4153780000000  0.5113130000000  0.4845840000000 1.0
C      1  0.5121400000000  0.5869880000000  0.4808200000000 1.0
C      1  0.5815190000000  0.4886590000000  0.4821400000000 1.0
C      1  0.4861780000000  0.4193530000000  0.4809030000000 1.0
C      1  0.4715330000000  0.4488620000000  0.4373250000000 1.0
C      1  0.5507900000000  0.4699890000000  0.4337200000000 1.0
C      1  0.5368280000000  0.5589380000000  0.4334840000000 1.0
C      1  0.4464960000000  0.5259830000000  0.4359010000000 1.0
C      1  0.4742210000000  0.5574920000000  0.4377000000000 1.0
C      1  0.5673230000000  0.5257280000000  0.4418840000000 1.0
C      1  0.5231640000000  0.4267030000000  0.4385960000000 1.0
C      1  0.4283690000000  0.4743760000000  0.4432660000000 1.0
C      1  0.5133410000000  0.5653840000000  0.5686110000000 1.0
C      1  0.4341050000000  0.5134690000000  0.5625350000000 1.0
C      1  0.4864290000000  0.4345350000000  0.5634030000000 1.0
C      1  0.5648350000000  0.4869650000000  0.5634950000000 1.0
C      1  0.5149660000000  0.4331910000000  0.5685820000000 1.0
C      1  0.4327370000000  0.4847520000000  0.5659280000000 1.0
C      1  0.4847460000000  0.5667350000000  0.5639050000000 1.0
C      1  0.5663640000000  0.5155480000000  0.5686270000000 1.0
C      1  0.4478020000000  0.4231090000000  0.5286220000000 1.0
C      1  0.5742480000000  0.4482360000000  0.5276680000000 1.0
C      1  0.5565920000000  0.5769120000000  0.5304260000000 1.0
C      1  0.4251400000000  0.5521820000000  0.5283050000000 1.0
C      1  0.4457560000000  0.5743510000000  0.5287510000000 1.0
C      1  0.5788380000000  0.5566010000000  0.5305420000000 1.0
C      1  0.5551670000000  0.4246180000000  0.5299940000000 1.0
C      1  0.4243990000000  0.4413960000000  0.5324430000000 1.0
C      1  0.5845630000000  0.4921180000000  0.5130030000000 1.0
C      1  0.5135110000000  0.5861810000000  0.5289850000000 1.0
C      1  0.4152310000000  0.5065320000000  0.5144650000000 1.0
C      1  0.4911350000000  0.4163140000000  0.5119600000000 1.0
C      1  0.5835320000000  0.5158060000000  0.5246820000000 1.0
C      1  0.5147230000000  0.4171060000000  0.5238990000000 1.0
C      1  0.4165530000000  0.4791980000000  0.5179750000000 1.0
C      1  0.4899750000000  0.5903780000000  0.5175810000000 1.0
C      1  0.4864990000000  0.5306690000000  0.5401220000000 1.0
C      1  0.4691650000000  0.4863960000000  0.5401510000000 1.0
C      1  0.5129590000000  0.4704340000000  0.5411260000000 1.0
C      1  0.5296720000000  0.5149140000000  0.5408510000000 1.0
C      1  0.4873470000000  0.4694790000000  0.5294540000000 1.0
C      1  0.4684760000000  0.5124370000000  0.5274290000000 1.0
C      1  0.5112290000000  0.5322490000000  0.5288960000000 1.0
C      1  0.5305870000000  0.4890790000000  0.5299280000000 1.0
C      1  0.5315750000000  0.5799640000000  0.5462370000000 1.0
C      1  0.4235230000000  0.5248690000000  0.5369510000000 1.0
C      1  0.4750380000000  0.4228420000000  0.5364360000000 1.0
C      1  0.5758870000000  0.4754680000000  0.5365990000000 1.0
C      1  0.5301920000000  0.4202670000000  0.5463760000000 1.0
C      1  0.4215230000000  0.4689800000000  0.5435290000000 1.0
C      1  0.4723440000000  0.5785630000000  0.5401390000000 1.0
C      1  0.5800170000000  0.5309200000000  0.5467910000000 1.0
C      1  0.4407000000000  0.4208780000000  0.5003690000000 1.0
C      1  0.5760240000000  0.4424330000000  0.4982090000000 1.0
C      1  0.5576470000000  0.5770430000000  0.5005690000000 1.0
C      1  0.4195640000000  0.5588110000000  0.4996640000000 1.0
C      1  0.4394230000000  0.5804530000000  0.5001710000000 1.0
C      1  0.5784210000000  0.5563330000000  0.5005660000000 1.0
C      1  0.5553790000000  0.4217430000000  0.5005000000000 1.0
C      1  0.4211430000000  0.4417640000000  0.5038210000000 1.0
C      1  0.5325490000000  0.4497540000000  0.4254130000000 1.0
C      1  0.5400840000000  0.5313130000000  0.4297980000000 1.0
C      1  0.4618170000000  0.5432730000000  0.4151440000000 1.0
C      1  0.4530910000000  0.4693870000000  0.4298030000000 1.0
END
