TITL C-2441167-4473-418 0.00413418113613616 125000 -6416.52474831783 0 0 44 (C1) n - 1
REM
REM in /home/bkarasulu/work/CARBON/AIRSS/Generating-Clusters/ReaxFF-fromJPCA2015/Units_Real/with-SteepDescent/Higher-Symm
REM
REM
REM
REM
REM
REM ./C.cell (1df0a924f5614ab8850e4351716899ee)
REM
REM compiler GCC version 9.2.1 20190827 (Red Hat 9.2.1-1)
REM options -cpp -mtune=generic -march=x86-64 -g -O0 -fpre-include=/usr/include/finclude/math-vector-fortran.h
REM seed 648276725 163507579 -832056960 1140597112 2144058129 227620463 842841399 -290475167 1859971308 748929008 1171413531 183378600 1079865061 1324014821 -2131518955 -367194039 -957022122 -12725047 -214026409 -2092348731 1285072897 1318566787 -1029851642 1649208963 695038332 168791142 1324350373 1887038263 -1533440049 -1954554521 347672166 203274396 2031983139
REM
CELL 1.54180   50.00000   50.00000   50.00000   90.00000   90.00000   90.00000
LATT -1
SFAC C  
C      1  0.4702850000000  0.4836110000000  0.4363820000000 1.0
C      1  0.5444480000000  0.4744100000000  0.4246920000000 1.0
C      1  0.5030170000000  0.5345400000000  0.4354750000000 1.0
C      1  0.4366000000000  0.5175830000000  0.4572140000000 1.0
C      1  0.5137710000000  0.4499880000000  0.4561710000000 1.0
C      1  0.5487700000000  0.5477530000000  0.4569740000000 1.0
C      1  0.5415220000000  0.4654530000000  0.5280680000000 1.0
C      1  0.5124730000000  0.5565130000000  0.5241830000000 1.0
C      1  0.4475660000000  0.4819360000000  0.5247310000000 1.0
C      1  0.5118030000000  0.5357770000000  0.5593570000000 1.0
C      1  0.4724720000000  0.4872160000000  0.5563230000000 1.0
C      1  0.5251940000000  0.4898020000000  0.5643360000000 1.0
C      1  0.4930770000000  0.5389590000000  0.4851120000000 1.0
C      1  0.4677820000000  0.4683180000000  0.4840030000000 1.0
C      1  0.5329370000000  0.4896060000000  0.4863860000000 1.0
C      1  0.4831890000000  0.4475490000000  0.4970250000000 1.0
C      1  0.5452630000000  0.5123260000000  0.4981930000000 1.0
C      1  0.4680920000000  0.5333680000000  0.4997390000000 1.0
C      1  0.5316390000000  0.5426270000000  0.4330660000000 1.0
C      1  0.4513810000000  0.5063520000000  0.4336810000000 1.0
C      1  0.5259740000000  0.4667640000000  0.4391290000000 1.0
C      1  0.4906130000000  0.5456130000000  0.5411280000000 1.0
C      1  0.4677000000000  0.4653420000000  0.5388290000000 1.0
C      1  0.5427620000000  0.4910670000000  0.5415960000000 1.0
C      1  0.4442220000000  0.4807940000000  0.4957350000000 1.0
C      1  0.5421340000000  0.4645700000000  0.4985590000000 1.0
C      1  0.5125620000000  0.5581190000000  0.4950750000000 1.0
C      1  0.4439010000000  0.5285680000000  0.4836280000000 1.0
C      1  0.5052310000000  0.4370350000000  0.4799600000000 1.0
C      1  0.5535910000000  0.5343920000000  0.4827080000000 1.0
C      1  0.4568160000000  0.5055290000000  0.5400200000000 1.0
C      1  0.5183700000000  0.4459550000000  0.5272580000000 1.0
C      1  0.5314430000000  0.5389650000000  0.5384970000000 1.0
C      1  0.5113070000000  0.4937030000000  0.4672040000000 1.0
C      1  0.5017540000000  0.5214330000000  0.4629460000000 1.0
C      1  0.4850830000000  0.4783270000000  0.4619730000000 1.0
C      1  0.4892450000000  0.4507300000000  0.5250900000000 1.0
C      1  0.5432370000000  0.5151790000000  0.5261210000000 1.0
C      1  0.4692000000000  0.5296700000000  0.5286960000000 1.0
C      1  0.4305810000000  0.5028430000000  0.4819630000000 1.0
C      1  0.5269010000000  0.4388340000000  0.4998230000000 1.0
C      1  0.5388610000000  0.5591380000000  0.4821260000000 1.0
C      1  0.5108330000000  0.5121670000000  0.5722620000000 1.0
C      1  0.4984320000000  0.4934930000000  0.5575400000000 1.0
END
