TITL C-2441165-58-1356 0.0393737137811474 125000 -10627.4971427318 0 0 81 (C1) n - 1
REM
REM in /home/bkarasulu/work/CARBON/AIRSS/Generating-Clusters/ReaxFF-fromJPCA2015/Units_Real/with-SteepDescent/Higher-Symm
REM
REM
REM
REM
REM
REM ./C.cell (1df0a924f5614ab8850e4351716899ee)
REM
REM compiler GCC version 9.2.1 20190827 (Red Hat 9.2.1-1)
REM options -cpp -mtune=generic -march=x86-64 -g -O0 -fpre-include=/usr/include/finclude/math-vector-fortran.h
REM seed -1454660976 1958256786 -1172335973 806357597 1350116130 324629461 -266886563 872175835 -1026643152 -483060945 387984114 1483400369 906795792 125611502 1183310665 -1666400051 -1131972273 -770450234 -349274467 -1249825002 -1419766147 -622420450 -2025309133 -359627533 626186541 -710683762 -924319885 585338325 -1642898046 494872573 1075113543 716823200 -1976476304
REM
CELL 1.54180   50.00000   50.00000   50.00000   90.00000   90.00000   90.00000
LATT -1
SFAC C  
C      1  0.4620520000000  0.4372860000000  0.4848340000000 1.0
C      1  0.4630280000000  0.5664810000000  0.5117620000000 1.0
C      1  0.5389110000000  0.4388480000000  0.5149250000000 1.0
C      1  0.5400440000000  0.5624010000000  0.4849000000000 1.0
C      1  0.4911470000000  0.4479900000000  0.4873400000000 1.0
C      1  0.4929360000000  0.5515830000000  0.5115870000000 1.0
C      1  0.5093210000000  0.4492110000000  0.5104010000000 1.0
C      1  0.5104410000000  0.5515510000000  0.4889610000000 1.0
C      1  0.5611630000000  0.5550960000000  0.5029590000000 1.0
C      1  0.5610190000000  0.4446410000000  0.4976550000000 1.0
C      1  0.4394510000000  0.5581960000000  0.4974590000000 1.0
C      1  0.4371580000000  0.4446520000000  0.4995420000000 1.0
C      1  0.5190690000000  0.4896620000000  0.4336320000000 1.0
C      1  0.5186320000000  0.5140050000000  0.5652590000000 1.0
C      1  0.4838690000000  0.4863580000000  0.5662890000000 1.0
C      1  0.4844540000000  0.5125940000000  0.4327560000000 1.0
C      1  0.5716650000000  0.5143570000000  0.4702920000000 1.0
C      1  0.5707910000000  0.4862160000000  0.5300060000000 1.0
C      1  0.4279690000000  0.5059260000000  0.5301630000000 1.0
C      1  0.4289490000000  0.4929230000000  0.4690140000000 1.0
C      1  0.4942620000000  0.5673680000000  0.4712140000000 1.0
C      1  0.4950620000000  0.4315830000000  0.5282340000000 1.0
C      1  0.5060700000000  0.5689280000000  0.5299660000000 1.0
C      1  0.5058810000000  0.4330510000000  0.4680100000000 1.0
C      1  0.4880550000000  0.4568930000000  0.5600390000000 1.0
C      1  0.4885060000000  0.5413810000000  0.4404550000000 1.0
C      1  0.5186400000000  0.4598310000000  0.4370770000000 1.0
C      1  0.5123120000000  0.5430010000000  0.5608540000000 1.0
C      1  0.4371770000000  0.4782910000000  0.5595070000000 1.0
C      1  0.4360300000000  0.5217850000000  0.4398240000000 1.0
C      1  0.5641410000000  0.4685380000000  0.4514480000000 1.0
C      1  0.5649030000000  0.5311620000000  0.5494010000000 1.0
C      1  0.4578210000000  0.4779210000000  0.4920460000000 1.0
C      1  0.4566730000000  0.5284760000000  0.5152780000000 1.0
C      1  0.5396190000000  0.4859900000000  0.5012550000000 1.0
C      1  0.5378670000000  0.5151080000000  0.4952940000000 1.0
C      1  0.5592140000000  0.4456000000000  0.4686570000000 1.0
C      1  0.5571020000000  0.5536090000000  0.5317780000000 1.0
C      1  0.4437590000000  0.4520560000000  0.5269380000000 1.0
C      1  0.4414100000000  0.5470080000000  0.4710790000000 1.0
C      1  0.4891150000000  0.5602760000000  0.5521800000000 1.0
C      1  0.4886020000000  0.4377390000000  0.4465390000000 1.0
C      1  0.5104760000000  0.5591880000000  0.4487940000000 1.0
C      1  0.5107960000000  0.4402660000000  0.5506850000000 1.0
C      1  0.5734640000000  0.5147840000000  0.5264910000000 1.0
C      1  0.5734690000000  0.4858580000000  0.4724850000000 1.0
C      1  0.4267750000000  0.5215100000000  0.4777730000000 1.0
C      1  0.4272610000000  0.4766870000000  0.5335830000000 1.0
C      1  0.5388120000000  0.5540610000000  0.4574190000000 1.0
C      1  0.5389040000000  0.4466760000000  0.5427540000000 1.0
C      1  0.4644580000000  0.5557260000000  0.5377180000000 1.0
C      1  0.4643410000000  0.4371130000000  0.4576590000000 1.0
C      1  0.5503760000000  0.5266940000000  0.4537460000000 1.0
C      1  0.5483010000000  0.4747500000000  0.5458280000000 1.0
C      1  0.4533470000000  0.5151890000000  0.5390820000000 1.0
C      1  0.4570540000000  0.4859960000000  0.4640290000000 1.0
C      1  0.5697190000000  0.4735520000000  0.5021600000000 1.0
C      1  0.5713590000000  0.5271290000000  0.4980280000000 1.0
C      1  0.4291180000000  0.4720810000000  0.4909900000000 1.0
C      1  0.4287330000000  0.5287670000000  0.5070690000000 1.0
C      1  0.4807430000000  0.4893290000000  0.4506840000000 1.0
C      1  0.4804660000000  0.5104440000000  0.5477560000000 1.0
C      1  0.5215080000000  0.4872290000000  0.5465260000000 1.0
C      1  0.5244440000000  0.5133610000000  0.4511050000000 1.0
C      1  0.5430990000000  0.4735310000000  0.4305900000000 1.0
C      1  0.5454970000000  0.5207950000000  0.5680300000000 1.0
C      1  0.4581490000000  0.4799030000000  0.5757080000000 1.0
C      1  0.4579860000000  0.5189550000000  0.4252610000000 1.0
C      1  0.4776270000000  0.4832060000000  0.5144020000000 1.0
C      1  0.4720170000000  0.5235810000000  0.4897180000000 1.0
C      1  0.5241080000000  0.4763310000000  0.4801770000000 1.0
C      1  0.5234180000000  0.5215730000000  0.5193810000000 1.0
C      1  0.5276820000000  0.5507590000000  0.5352090000000 1.0
C      1  0.5290440000000  0.4501770000000  0.4647510000000 1.0
C      1  0.4726750000000  0.5459410000000  0.4678770000000 1.0
C      1  0.4722320000000  0.4482460000000  0.5357610000000 1.0
C      1  0.4960300000000  0.5235000000000  0.5261310000000 1.0
C      1  0.4957910000000  0.4792590000000  0.4742480000000 1.0
C      1  0.5114340000000  0.5216580000000  0.4762280000000 1.0
C      1  0.5038990000000  0.4772010000000  0.5254360000000 1.0
C      1  0.4900820000000  0.5011250000000  0.4926020000000 1.0
END
