TITL C-2441164-471-339 0.0499592313517311 125000 -23824.0317798236 0 0 167 (C1) n - 1
REM
REM in /home/bkarasulu/work/CARBON/AIRSS/Generating-Clusters/ReaxFF-fromJPCA2015/Units_Real/with-SteepDescent/Higher-Symm
REM
REM
REM
REM
REM
REM ./C.cell (1df0a924f5614ab8850e4351716899ee)
REM
REM compiler GCC version 9.2.1 20190827 (Red Hat 9.2.1-1)
REM options -cpp -mtune=generic -march=x86-64 -g -O0 -fpre-include=/usr/include/finclude/math-vector-fortran.h
REM seed -1283174134 -62745610 -587962297 1952271468 -1007892619 413606681 757052329 437317389 -808621540 -409139788 -1887103794 1674301053 824362076 -419538541 1562114026 -1604780802 -2022508462 -570460898 344840920 74987884 -1281414587 -556420523 1684048854 -1198589408 -425515159 -538848236 1978826675 2038838907 -1385356896 -1089307174 549615168 347841319 1633640866
REM
CELL 1.54180   50.00000   50.00000   50.00000   90.00000   90.00000   90.00000
LATT -1
SFAC C  
C      1  0.4971790000000  0.5161770000000  0.4304530000000 1.0
C      1  0.4336040000000  0.5169840000000  0.4819840000000 1.0
C      1  0.4618520000000  0.5150230000000  0.5582300000000 1.0
C      1  0.5420750000000  0.5164610000000  0.5527880000000 1.0
C      1  0.5639940000000  0.5166300000000  0.4773110000000 1.0
C      1  0.4977140000000  0.4836620000000  0.4322020000000 1.0
C      1  0.4339440000000  0.4847770000000  0.4807860000000 1.0
C      1  0.4625750000000  0.4827440000000  0.5580150000000 1.0
C      1  0.5426120000000  0.4834930000000  0.5538570000000 1.0
C      1  0.5634820000000  0.4815340000000  0.4771520000000 1.0
C      1  0.5866540000000  0.4459050000000  0.4558930000000 1.0
C      1  0.4834190000000  0.4432880000000  0.4061220000000 1.0
C      1  0.4040770000000  0.4427850000000  0.4923470000000 1.0
C      1  0.4557390000000  0.4431660000000  0.5869410000000 1.0
C      1  0.5688730000000  0.4464880000000  0.5681840000000 1.0
C      1  0.5848140000000  0.5556880000000  0.4539090000000 1.0
C      1  0.4836260000000  0.5546690000000  0.4050090000000 1.0
C      1  0.4043990000000  0.5558270000000  0.4853610000000 1.0
C      1  0.4590390000000  0.5555420000000  0.5863470000000 1.0
C      1  0.5665440000000  0.5551540000000  0.5666380000000 1.0
C      1  0.5787630000000  0.5144350000000  0.4316090000000 1.0
C      1  0.4586660000000  0.5137620000000  0.4019700000000 1.0
C      1  0.3927090000000  0.5154310000000  0.5081970000000 1.0
C      1  0.4742320000000  0.5131270000000  0.6043700000000 1.0
C      1  0.5907330000000  0.5148460000000  0.5543430000000 1.0
C      1  0.5800830000000  0.4858070000000  0.4309820000000 1.0
C      1  0.4595890000000  0.4842050000000  0.4007400000000 1.0
C      1  0.3949440000000  0.4860010000000  0.5086330000000 1.0
C      1  0.4731110000000  0.4835820000000  0.6056080000000 1.0
C      1  0.5897190000000  0.4859600000000  0.5543330000000 1.0
C      1  0.4345740000000  0.4404330000000  0.5716550000000 1.0
C      1  0.5440290000000  0.4446740000000  0.5806440000000 1.0
C      1  0.5934510000000  0.4429620000000  0.4811770000000 1.0
C      1  0.5115340000000  0.4424330000000  0.4042980000000 1.0
C      1  0.4079900000000  0.4470500000000  0.4664680000000 1.0
C      1  0.4375190000000  0.5576270000000  0.5681860000000 1.0
C      1  0.5448980000000  0.5565730000000  0.5818580000000 1.0
C      1  0.5909810000000  0.5585490000000  0.4810610000000 1.0
C      1  0.5091580000000  0.5587050000000  0.4068190000000 1.0
C      1  0.4137260000000  0.5584600000000  0.4603400000000 1.0
C      1  0.5686880000000  0.5676810000000  0.5405050000000 1.0
C      1  0.5596870000000  0.5690420000000  0.4448490000000 1.0
C      1  0.4669890000000  0.5662680000000  0.4254260000000 1.0
C      1  0.4183310000000  0.5684620000000  0.5073510000000 1.0
C      1  0.4850090000000  0.5679410000000  0.5811870000000 1.0
C      1  0.5706320000000  0.4332600000000  0.5416210000000 1.0
C      1  0.5625280000000  0.4330690000000  0.4453070000000 1.0
C      1  0.4670540000000  0.4302080000000  0.4282720000000 1.0
C      1  0.4209410000000  0.4311800000000  0.5124860000000 1.0
C      1  0.4805660000000  0.4303270000000  0.5790700000000 1.0
C      1  0.4998040000000  0.4718520000000  0.6043570000000 1.0
C      1  0.5983840000000  0.4743370000000  0.5288360000000 1.0
C      1  0.5572110000000  0.4747620000000  0.4145790000000 1.0
C      1  0.4388150000000  0.4721180000000  0.4171150000000 1.0
C      1  0.4042880000000  0.4763050000000  0.5332590000000 1.0
C      1  0.5011360000000  0.5227340000000  0.6014890000000 1.0
C      1  0.5977850000000  0.5255090000000  0.5283360000000 1.0
C      1  0.5519320000000  0.5233890000000  0.4197220000000 1.0
C      1  0.4384410000000  0.5231090000000  0.4197930000000 1.0
C      1  0.4027860000000  0.5276180000000  0.5328040000000 1.0
C      1  0.4506210000000  0.4731610000000  0.5033870000000 1.0
C      1  0.4919650000000  0.4771080000000  0.5540620000000 1.0
C      1  0.5416310000000  0.4719010000000  0.5258440000000 1.0
C      1  0.5372760000000  0.4734790000000  0.4650720000000 1.0
C      1  0.4798840000000  0.4741860000000  0.4538640000000 1.0
C      1  0.4490780000000  0.5271300000000  0.5060440000000 1.0
C      1  0.4893260000000  0.5271780000000  0.5468140000000 1.0
C      1  0.5441350000000  0.5256100000000  0.5242200000000 1.0
C      1  0.5375250000000  0.5270950000000  0.4684100000000 1.0
C      1  0.4788830000000  0.5258990000000  0.4515840000000 1.0
C      1  0.5200340000000  0.4221490000000  0.5400850000000 1.0
C      1  0.5613420000000  0.4129950000000  0.4901090000000 1.0
C      1  0.5052670000000  0.4203060000000  0.4510440000000 1.0
C      1  0.4481720000000  0.4231500000000  0.4776720000000 1.0
C      1  0.4651600000000  0.4323960000000  0.5383770000000 1.0
C      1  0.5245230000000  0.5764570000000  0.5446100000000 1.0
C      1  0.5493330000000  0.5778870000000  0.4916750000000 1.0
C      1  0.5083620000000  0.5866990000000  0.4444310000000 1.0
C      1  0.4526280000000  0.5751430000000  0.4771270000000 1.0
C      1  0.4650800000000  0.5794450000000  0.5360650000000 1.0
C      1  0.4864410000000  0.5866160000000  0.5573330000000 1.0
C      1  0.5483230000000  0.5869760000000  0.5310810000000 1.0
C      1  0.5465850000000  0.5861040000000  0.4643960000000 1.0
C      1  0.4801110000000  0.5851860000000  0.4435890000000 1.0
C      1  0.4407550000000  0.5860190000000  0.5005590000000 1.0
C      1  0.4804720000000  0.4131880000000  0.5535200000000 1.0
C      1  0.5484140000000  0.4152180000000  0.5353030000000 1.0
C      1  0.5505520000000  0.4138120000000  0.4637520000000 1.0
C      1  0.4780460000000  0.4121610000000  0.4483300000000 1.0
C      1  0.4429660000000  0.4123960000000  0.5054840000000 1.0
C      1  0.5479950000000  0.4444670000000  0.4237670000000 1.0
C      1  0.4431070000000  0.4456410000000  0.4316820000000 1.0
C      1  0.4161360000000  0.4472190000000  0.5359280000000 1.0
C      1  0.5028720000000  0.4445740000000  0.5897440000000 1.0
C      1  0.5870560000000  0.4460610000000  0.5219420000000 1.0
C      1  0.5460190000000  0.5563220000000  0.4234700000000 1.0
C      1  0.4427160000000  0.5520480000000  0.4317280000000 1.0
C      1  0.4165560000000  0.5550280000000  0.5327270000000 1.0
C      1  0.5062100000000  0.5517040000000  0.5933980000000 1.0
C      1  0.5857810000000  0.5546190000000  0.5216730000000 1.0
C      1  0.4824940000000  0.4425030000000  0.5181430000000 1.0
C      1  0.5126980000000  0.4441960000000  0.5209230000000 1.0
C      1  0.5142070000000  0.4366600000000  0.4925400000000 1.0
C      1  0.4943300000000  0.4447980000000  0.4721080000000 1.0
C      1  0.4710130000000  0.4458520000000  0.4913880000000 1.0
C      1  0.4864950000000  0.5531570000000  0.5249040000000 1.0
C      1  0.5162280000000  0.5543050000000  0.5212760000000 1.0
C      1  0.5241750000000  0.5555950000000  0.4929230000000 1.0
C      1  0.4965590000000  0.5623970000000  0.4850040000000 1.0
C      1  0.4720560000000  0.5528800000000  0.4983070000000 1.0
C      1  0.4924990000000  0.4037140000000  0.5281960000000 1.0
C      1  0.5432930000000  0.4033890000000  0.5095490000000 1.0
C      1  0.5232370000000  0.4052810000000  0.4666450000000 1.0
C      1  0.4696670000000  0.4028550000000  0.4746960000000 1.0
C      1  0.4718300000000  0.4040210000000  0.5056220000000 1.0
C      1  0.5037690000000  0.5943100000000  0.5359640000000 1.0
C      1  0.5318650000000  0.5946930000000  0.5088260000000 1.0
C      1  0.5202660000000  0.5966180000000  0.4688070000000 1.0
C      1  0.4723240000000  0.5937360000000  0.4703910000000 1.0
C      1  0.4662370000000  0.5939410000000  0.5105440000000 1.0
C      1  0.4946090000000  0.5125210000000  0.5233200000000 1.0
C      1  0.5203510000000  0.5145790000000  0.5115820000000 1.0
C      1  0.5187120000000  0.5175990000000  0.4845830000000 1.0
C      1  0.4920580000000  0.5188370000000  0.4765980000000 1.0
C      1  0.4749800000000  0.5134930000000  0.5025570000000 1.0
C      1  0.4942710000000  0.4830480000000  0.5255630000000 1.0
C      1  0.5203100000000  0.4842490000000  0.5128540000000 1.0
C      1  0.5169770000000  0.4788020000000  0.4847660000000 1.0
C      1  0.4902380000000  0.4843490000000  0.4772960000000 1.0
C      1  0.4755290000000  0.4853450000000  0.5010990000000 1.0
C      1  0.5779900000000  0.5668620000000  0.4984160000000 1.0
C      1  0.5214430000000  0.5685820000000  0.4248920000000 1.0
C      1  0.4356990000000  0.5651460000000  0.4552250000000 1.0
C      1  0.4374810000000  0.5665670000000  0.5468350000000 1.0
C      1  0.5232940000000  0.5529120000000  0.5722420000000 1.0
C      1  0.5823560000000  0.4310790000000  0.4984420000000 1.0
C      1  0.5231710000000  0.4305400000000  0.4255810000000 1.0
C      1  0.4309310000000  0.4370730000000  0.4559100000000 1.0
C      1  0.4377850000000  0.4374210000000  0.5481980000000 1.0
C      1  0.5221170000000  0.4316740000000  0.5718860000000 1.0
C      1  0.5615920000000  0.4833700000000  0.5075590000000 1.0
C      1  0.5275120000000  0.4852800000000  0.4406530000000 1.0
C      1  0.4496250000000  0.4877600000000  0.4545540000000 1.0
C      1  0.4474860000000  0.4826530000000  0.5314540000000 1.0
C      1  0.5154700000000  0.4847860000000  0.5680280000000 1.0
C      1  0.5635510000000  0.5119410000000  0.5072910000000 1.0
C      1  0.5300610000000  0.5151910000000  0.4416090000000 1.0
C      1  0.4524440000000  0.5165400000000  0.4583260000000 1.0
C      1  0.4413540000000  0.5110330000000  0.5345550000000 1.0
C      1  0.5158780000000  0.5277520000000  0.5600780000000 1.0
C      1  0.4039150000000  0.5280510000000  0.4841870000000 1.0
C      1  0.4554220000000  0.5259210000000  0.5855800000000 1.0
C      1  0.5679850000000  0.5274450000000  0.5672550000000 1.0
C      1  0.5859830000000  0.5265340000000  0.4569080000000 1.0
C      1  0.4853750000000  0.5263520000000  0.4042670000000 1.0
C      1  0.4055670000000  0.4721860000000  0.4815920000000 1.0
C      1  0.4546700000000  0.4710920000000  0.5870520000000 1.0
C      1  0.5673360000000  0.4748090000000  0.5672300000000 1.0
C      1  0.5863340000000  0.4736750000000  0.4567860000000 1.0
C      1  0.4858610000000  0.4727130000000  0.4048530000000 1.0
C      1  0.5466820000000  0.4985390000000  0.4014220000000 1.0
C      1  0.5131140000000  0.4963960000000  0.5950670000000 1.0
C      1  0.6033950000000  0.4999390000000  0.5183250000000 1.0
C      1  0.4305980000000  0.4967280000000  0.4301730000000 1.0
C      1  0.4118500000000  0.5028030000000  0.5441150000000 1.0
C      1  0.4959390000000  0.5921220000000  0.4889480000000 1.0
C      1  0.5175780000000  0.4071640000000  0.4952040000000 1.0
END
