TITL C-2441162-9305-282 0.22612898560368 125000 -22629.8625471933 0 0 197 (C1) n - 1
REM
REM in /home/bkarasulu/work/CARBON/AIRSS/Generating-Clusters/ReaxFF-fromJPCA2015/Units_Real/with-SteepDescent/Higher-Symm
REM
REM
REM
REM
REM
REM ./C.cell (1df0a924f5614ab8850e4351716899ee)
REM
REM compiler GCC version 9.2.1 20190827 (Red Hat 9.2.1-1)
REM options -cpp -mtune=generic -march=x86-64 -g -O0 -fpre-include=/usr/include/finclude/math-vector-fortran.h
REM seed -1032310392 1967196562 1020030004 -500589086 912849903 -1098531600 -670470036 1904682646 -729823325 997610481 -728929801 -624159374 -435740664 -388352987 1136580856 -512995969 -23046331 -638064161 -1175035304 35158833 409829245 949291633 -2002045806 -1410125425 -558407532 -1550123092 -1403615753 -1446171806 -1119526090 -817192821 1215568516 -679579179 552707820
REM
CELL 1.54180   50.00000   50.00000   50.00000   90.00000   90.00000   90.00000
LATT -1
SFAC C  
C      1  0.5010350000000  0.5938350000000  0.4410770000000 1.0
C      1  0.5936260000000  0.5027260000000  0.4389300000000 1.0
C      1  0.5000660000000  0.4068990000000  0.4400530000000 1.0
C      1  0.4045110000000  0.5027790000000  0.4376280000000 1.0
C      1  0.5034850000000  0.5934530000000  0.5623720000000 1.0
C      1  0.5944030000000  0.4992460000000  0.5584770000000 1.0
C      1  0.4971750000000  0.4063070000000  0.5624980000000 1.0
C      1  0.4058710000000  0.4962780000000  0.5600340000000 1.0
C      1  0.5344360000000  0.5564950000000  0.5441370000000 1.0
C      1  0.5558510000000  0.4612500000000  0.5455250000000 1.0
C      1  0.4692580000000  0.4420120000000  0.5454560000000 1.0
C      1  0.4474510000000  0.5334100000000  0.5464890000000 1.0
C      1  0.5334410000000  0.5545400000000  0.4541340000000 1.0
C      1  0.5527200000000  0.4681620000000  0.4547310000000 1.0
C      1  0.4694800000000  0.4441510000000  0.4516870000000 1.0
C      1  0.4451230000000  0.5268710000000  0.4509410000000 1.0
C      1  0.5405960000000  0.5668630000000  0.4269810000000 1.0
C      1  0.5740860000000  0.4622680000000  0.4297850000000 1.0
C      1  0.4581750000000  0.4318950000000  0.4262630000000 1.0
C      1  0.4304350000000  0.5356540000000  0.4232450000000 1.0
C      1  0.5407050000000  0.5711460000000  0.5700610000000 1.0
C      1  0.5688850000000  0.4612150000000  0.5729890000000 1.0
C      1  0.4598400000000  0.4288570000000  0.5718670000000 1.0
C      1  0.4280460000000  0.5387470000000  0.5678140000000 1.0
C      1  0.3977660000000  0.4855790000000  0.4836440000000 1.0
C      1  0.4830040000000  0.6057530000000  0.4873930000000 1.0
C      1  0.6027310000000  0.5144910000000  0.4845340000000 1.0
C      1  0.5153570000000  0.3956250000000  0.4856400000000 1.0
C      1  0.3960140000000  0.4852230000000  0.5137000000000 1.0
C      1  0.4858880000000  0.6042560000000  0.5167540000000 1.0
C      1  0.6038020000000  0.5145370000000  0.5145720000000 1.0
C      1  0.5155120000000  0.3966420000000  0.5164770000000 1.0
C      1  0.5731840000000  0.5380250000000  0.4309010000000 1.0
C      1  0.5418590000000  0.4279150000000  0.4312240000000 1.0
C      1  0.4268070000000  0.4593730000000  0.4282960000000 1.0
C      1  0.4605280000000  0.5726850000000  0.4251860000000 1.0
C      1  0.5697830000000  0.5402710000000  0.5714500000000 1.0
C      1  0.5399370000000  0.4269910000000  0.5717670000000 1.0
C      1  0.4262960000000  0.4615830000000  0.5696800000000 1.0
C      1  0.4605280000000  0.5744990000000  0.5733010000000 1.0
C      1  0.5319060000000  0.5292400000000  0.5488610000000 1.0
C      1  0.5237020000000  0.4706930000000  0.5542330000000 1.0
C      1  0.4693330000000  0.4696650000000  0.5488680000000 1.0
C      1  0.4748240000000  0.5272840000000  0.5557050000000 1.0
C      1  0.5269240000000  0.5278510000000  0.4482940000000 1.0
C      1  0.5272610000000  0.4719060000000  0.4451430000000 1.0
C      1  0.4691540000000  0.4803410000000  0.4470170000000 1.0
C      1  0.4743950000000  0.5295440000000  0.4455520000000 1.0
C      1  0.4711310000000  0.4036380000000  0.5160840000000 1.0
C      1  0.4067120000000  0.5313220000000  0.5216540000000 1.0
C      1  0.5295750000000  0.5942150000000  0.5169790000000 1.0
C      1  0.5950360000000  0.4685280000000  0.5156220000000 1.0
C      1  0.4712540000000  0.4068730000000  0.4820640000000 1.0
C      1  0.4064040000000  0.5313040000000  0.4839460000000 1.0
C      1  0.5277520000000  0.5950600000000  0.4824460000000 1.0
C      1  0.5917840000000  0.4700730000000  0.4787920000000 1.0
C      1  0.3950510000000  0.5056070000000  0.5348600000000 1.0
C      1  0.5079080000000  0.6051800000000  0.5360920000000 1.0
C      1  0.6055750000000  0.4917130000000  0.5328230000000 1.0
C      1  0.4936990000000  0.3948660000000  0.5358090000000 1.0
C      1  0.3965030000000  0.5083440000000  0.4651880000000 1.0
C      1  0.5022050000000  0.6072020000000  0.4657020000000 1.0
C      1  0.6048340000000  0.4930860000000  0.4644140000000 1.0
C      1  0.4945940000000  0.3942010000000  0.4651780000000 1.0
C      1  0.5213340000000  0.5662730000000  0.5223120000000 1.0
C      1  0.5670620000000  0.4762520000000  0.5237710000000 1.0
C      1  0.4791180000000  0.4320090000000  0.5219480000000 1.0
C      1  0.4355530000000  0.5249420000000  0.5230020000000 1.0
C      1  0.5199510000000  0.5657170000000  0.4769500000000 1.0
C      1  0.5624720000000  0.4764010000000  0.4782360000000 1.0
C      1  0.4781550000000  0.4340120000000  0.4762960000000 1.0
C      1  0.4340460000000  0.5233930000000  0.4785910000000 1.0
C      1  0.5699960000000  0.5160770000000  0.5547830000000 1.0
C      1  0.5149070000000  0.4288300000000  0.5553110000000 1.0
C      1  0.4306390000000  0.4842530000000  0.5506100000000 1.0
C      1  0.4860230000000  0.5704670000000  0.5567380000000 1.0
C      1  0.5688440000000  0.5152330000000  0.4482200000000 1.0
C      1  0.5170500000000  0.4288740000000  0.4470470000000 1.0
C      1  0.4256510000000  0.4833640000000  0.4449750000000 1.0
C      1  0.4858010000000  0.5699800000000  0.4416590000000 1.0
C      1  0.5857980000000  0.5581960000000  0.4480030000000 1.0
C      1  0.5593520000000  0.4138100000000  0.4502500000000 1.0
C      1  0.4139190000000  0.4408570000000  0.4464060000000 1.0
C      1  0.4430760000000  0.5822910000000  0.4440430000000 1.0
C      1  0.5848800000000  0.5585700000000  0.5545930000000 1.0
C      1  0.5584150000000  0.4118800000000  0.5552290000000 1.0
C      1  0.4136200000000  0.4417700000000  0.5519630000000 1.0
C      1  0.4424550000000  0.5860050000000  0.5551990000000 1.0
C      1  0.5645360000000  0.4077980000000  0.5276140000000 1.0
C      1  0.4118880000000  0.4346000000000  0.5243510000000 1.0
C      1  0.4264140000000  0.5828360000000  0.5201100000000 1.0
C      1  0.5898150000000  0.5642160000000  0.5264740000000 1.0
C      1  0.5683160000000  0.4126130000000  0.4781280000000 1.0
C      1  0.4119750000000  0.4327880000000  0.4739250000000 1.0
C      1  0.4197150000000  0.5804860000000  0.4752580000000 1.0
C      1  0.5870110000000  0.5701360000000  0.4746340000000 1.0
C      1  0.5442550000000  0.5464660000000  0.5860810000000 1.0
C      1  0.5448480000000  0.4520950000000  0.5855030000000 1.0
C      1  0.4516220000000  0.4547800000000  0.5823310000000 1.0
C      1  0.4519650000000  0.5488820000000  0.5854060000000 1.0
C      1  0.5487270000000  0.5416450000000  0.4144340000000 1.0
C      1  0.5485560000000  0.4520590000000  0.4165320000000 1.0
C      1  0.4519760000000  0.4579660000000  0.4139920000000 1.0
C      1  0.4546090000000  0.5463970000000  0.4122400000000 1.0
C      1  0.4709300000000  0.5222890000000  0.4183480000000 1.0
C      1  0.5213630000000  0.5294900000000  0.4219720000000 1.0
C      1  0.5342370000000  0.4779270000000  0.4188320000000 1.0
C      1  0.4792350000000  0.4704430000000  0.4223770000000 1.0
C      1  0.4680010000000  0.5122040000000  0.5775060000000 1.0
C      1  0.5200760000000  0.5315140000000  0.5745710000000 1.0
C      1  0.5327700000000  0.4796060000000  0.5784580000000 1.0
C      1  0.4784010000000  0.4679090000000  0.5746640000000 1.0
C      1  0.5258450000000  0.5241890000000  0.5106370000000 1.0
C      1  0.5232080000000  0.4780930000000  0.5076950000000 1.0
C      1  0.4664450000000  0.4833900000000  0.5152530000000 1.0
C      1  0.4813130000000  0.5314130000000  0.5144240000000 1.0
C      1  0.5317470000000  0.5195690000000  0.4866940000000 1.0
C      1  0.5196090000000  0.4655520000000  0.4826170000000 1.0
C      1  0.4777220000000  0.4779240000000  0.4917960000000 1.0
C      1  0.4800540000000  0.5321750000000  0.4880000000000 1.0
C      1  0.4333630000000  0.4231820000000  0.4561600000000 1.0
C      1  0.4252050000000  0.5654300000000  0.4519650000000 1.0
C      1  0.5669120000000  0.5773460000000  0.4545100000000 1.0
C      1  0.5783480000000  0.4308100000000  0.4601480000000 1.0
C      1  0.4333280000000  0.4244820000000  0.5420830000000 1.0
C      1  0.4306670000000  0.5711380000000  0.5404360000000 1.0
C      1  0.5691330000000  0.5785990000000  0.5429890000000 1.0
C      1  0.5747360000000  0.4321870000000  0.5435170000000 1.0
C      1  0.4939090000000  0.4480280000000  0.4352250000000 1.0
C      1  0.4497630000000  0.4987630000000  0.4417380000000 1.0
C      1  0.5010220000000  0.5496210000000  0.4279460000000 1.0
C      1  0.5528190000000  0.5003800000000  0.4264420000000 1.0
C      1  0.5026650000000  0.4543870000000  0.5633060000000 1.0
C      1  0.4456710000000  0.4994890000000  0.5696000000000 1.0
C      1  0.4960110000000  0.5449460000000  0.5658550000000 1.0
C      1  0.5534150000000  0.5000460000000  0.5768680000000 1.0
C      1  0.4917010000000  0.5578840000000  0.4816740000000 1.0
C      1  0.5550530000000  0.5036440000000  0.4885080000000 1.0
C      1  0.5045580000000  0.4431330000000  0.4853790000000 1.0
C      1  0.4439130000000  0.4977640000000  0.4857740000000 1.0
C      1  0.4936400000000  0.5574150000000  0.5174590000000 1.0
C      1  0.5585260000000  0.5021240000000  0.5161330000000 1.0
C      1  0.5037750000000  0.4434700000000  0.5150830000000 1.0
C      1  0.4436680000000  0.4968320000000  0.5140910000000 1.0
C      1  0.5168450000000  0.5784250000000  0.5854230000000 1.0
C      1  0.5799850000000  0.4866630000000  0.5813640000000 1.0
C      1  0.4849820000000  0.4223900000000  0.5854650000000 1.0
C      1  0.4243890000000  0.5096380000000  0.5859990000000 1.0
C      1  0.5137400000000  0.5711300000000  0.4119650000000 1.0
C      1  0.5787400000000  0.4898400000000  0.4174870000000 1.0
C      1  0.4859040000000  0.4256230000000  0.4154100000000 1.0
C      1  0.4216060000000  0.5107050000000  0.4134690000000 1.0
C      1  0.4420000000000  0.4076890000000  0.5208240000000 1.0
C      1  0.4110230000000  0.5519040000000  0.5429730000000 1.0
C      1  0.5590110000000  0.5905480000000  0.5194270000000 1.0
C      1  0.5898050000000  0.4395420000000  0.5197640000000 1.0
C      1  0.4428340000000  0.4068350000000  0.4773690000000 1.0
C      1  0.4051840000000  0.5575410000000  0.4711790000000 1.0
C      1  0.5537190000000  0.5911630000000  0.4722540000000 1.0
C      1  0.5924790000000  0.4547770000000  0.4535310000000 1.0
C      1  0.4956220000000  0.4476880000000  0.3938770000000 1.0
C      1  0.4454670000000  0.4970610000000  0.3983610000000 1.0
C      1  0.5052830000000  0.5516450000000  0.3887830000000 1.0
C      1  0.5501480000000  0.5060570000000  0.3924830000000 1.0
C      1  0.4944050000000  0.4449360000000  0.6032860000000 1.0
C      1  0.4452290000000  0.5035360000000  0.6095030000000 1.0
C      1  0.5070750000000  0.5559980000000  0.6040870000000 1.0
C      1  0.5476950000000  0.4976430000000  0.6101630000000 1.0
C      1  0.4840460000000  0.4872640000000  0.5344550000000 1.0
C      1  0.4850860000000  0.5141410000000  0.5352870000000 1.0
C      1  0.5180520000000  0.5138230000000  0.5343240000000 1.0
C      1  0.5128730000000  0.4848130000000  0.5348790000000 1.0
C      1  0.4847370000000  0.4874090000000  0.4656380000000 1.0
C      1  0.4870640000000  0.5153190000000  0.4659890000000 1.0
C      1  0.5163090000000  0.5114230000000  0.4654410000000 1.0
C      1  0.5118390000000  0.4826140000000  0.4634990000000 1.0
C      1  0.5766560000000  0.5270830000000  0.4855880000000 1.0
C      1  0.5270650000000  0.4219540000000  0.4859970000000 1.0
C      1  0.4256600000000  0.4743990000000  0.4839330000000 1.0
C      1  0.4679340000000  0.5796020000000  0.4897140000000 1.0
C      1  0.5755900000000  0.5247820000000  0.5156900000000 1.0
C      1  0.5260010000000  0.4246230000000  0.5160900000000 1.0
C      1  0.4228910000000  0.4742040000000  0.5134920000000 1.0
C      1  0.4724550000000  0.5783730000000  0.5190890000000 1.0
C      1  0.5013730000000  0.5279630000000  0.6102440000000 1.0
C      1  0.5191320000000  0.4962910000000  0.6072590000000 1.0
C      1  0.4962110000000  0.4737740000000  0.6095320000000 1.0
C      1  0.4743160000000  0.5032860000000  0.6051290000000 1.0
C      1  0.5017810000000  0.5236060000000  0.3879630000000 1.0
C      1  0.5217270000000  0.5000940000000  0.3894820000000 1.0
C      1  0.4958440000000  0.4754290000000  0.3883290000000 1.0
C      1  0.4737910000000  0.4995980000000  0.3920870000000 1.0
C      1  0.5736790000000  0.4213760000000  0.5046900000000 1.0
C      1  0.4390540000000  0.5767660000000  0.4954000000000 1.0
C      1  0.5759280000000  0.5736750000000  0.5025220000000 1.0
C      1  0.4271330000000  0.4238850000000  0.4993740000000 1.0
C      1  0.4998800000000  0.4940020000000  0.4999770000000 1.0
END
