TITL C-2441157-2117-507 0.121863153644062 125000 -18375.5160882689 0 0 152 (C1) n - 1
REM
REM in /home/bkarasulu/work/CARBON/AIRSS/Generating-Clusters/ReaxFF-fromJPCA2015/Units_Real/with-SteepDescent/Higher-Symm
REM
REM
REM
REM
REM
REM ./C.cell (1df0a924f5614ab8850e4351716899ee)
REM
REM compiler GCC version 9.2.1 20190827 (Red Hat 9.2.1-1)
REM options -cpp -mtune=generic -march=x86-64 -g -O0 -fpre-include=/usr/include/finclude/math-vector-fortran.h
REM seed 1751673474 1323427622 -553139281 -1312255393 -2128174490 1118578979 -1363409183 -2089826776 1202056317 -1305532332 -1048769117 1336884913 -1116064178 1969628499 591627317 198137826 -1133164617 -2111212158 1644244918 1575536110 -530227063 991992229 -1086163976 926960234 181444491 -1190655055 1185059387 -1104385326 -144391610 -1083542905 -1792983609 -1562383381 -588373775
REM
CELL 1.54180   50.00000   50.00000   50.00000   90.00000   90.00000   90.00000
LATT -1
SFAC C  
C      1  0.4302180000000  0.4429930000000  0.4510590000000 1.0
C      1  0.5227330000000  0.4435590000000  0.4179080000000 1.0
C      1  0.5859120000000  0.4424100000000  0.4978680000000 1.0
C      1  0.5249420000000  0.4418930000000  0.5783420000000 1.0
C      1  0.4309070000000  0.4436720000000  0.5489400000000 1.0
C      1  0.4333690000000  0.5595930000000  0.4459340000000 1.0
C      1  0.5227000000000  0.5548270000000  0.4172640000000 1.0
C      1  0.5849580000000  0.5549230000000  0.4951160000000 1.0
C      1  0.5264460000000  0.5559470000000  0.5761560000000 1.0
C      1  0.4327040000000  0.5552460000000  0.5506350000000 1.0
C      1  0.4391360000000  0.5735540000000  0.5150070000000 1.0
C      1  0.4621830000000  0.5728960000000  0.4418820000000 1.0
C      1  0.5427450000000  0.5722440000000  0.4469530000000 1.0
C      1  0.5639710000000  0.5717780000000  0.5249890000000 1.0
C      1  0.4921000000000  0.5734030000000  0.5656840000000 1.0
C      1  0.4433370000000  0.4282030000000  0.5154550000000 1.0
C      1  0.4683810000000  0.4301190000000  0.4476430000000 1.0
C      1  0.5441740000000  0.4279760000000  0.4475440000000 1.0
C      1  0.5589880000000  0.4264160000000  0.5227270000000 1.0
C      1  0.4906700000000  0.4256840000000  0.5662860000000 1.0
C      1  0.4850110000000  0.4891750000000  0.4505520000000 1.0
C      1  0.5393190000000  0.4851950000000  0.4676420000000 1.0
C      1  0.5434120000000  0.4839050000000  0.5270080000000 1.0
C      1  0.4925910000000  0.4839800000000  0.5530990000000 1.0
C      1  0.4472540000000  0.4846260000000  0.5090180000000 1.0
C      1  0.4829360000000  0.5167600000000  0.4517720000000 1.0
C      1  0.5361120000000  0.5126890000000  0.4626390000000 1.0
C      1  0.5484410000000  0.5114250000000  0.5216770000000 1.0
C      1  0.4929790000000  0.5118820000000  0.5534390000000 1.0
C      1  0.4465760000000  0.5124780000000  0.5073230000000 1.0
C      1  0.4525450000000  0.5720020000000  0.5626640000000 1.0
C      1  0.4305450000000  0.5709770000000  0.4736130000000 1.0
C      1  0.5013540000000  0.5741770000000  0.4252690000000 1.0
C      1  0.5712220000000  0.5743070000000  0.4770080000000 1.0
C      1  0.5425430000000  0.5748920000000  0.5611660000000 1.0
C      1  0.4512080000000  0.4275700000000  0.5616430000000 1.0
C      1  0.4286420000000  0.4247500000000  0.4741410000000 1.0
C      1  0.5017910000000  0.4238360000000  0.4241020000000 1.0
C      1  0.5724610000000  0.4244140000000  0.4786520000000 1.0
C      1  0.5425740000000  0.4250210000000  0.5621120000000 1.0
C      1  0.4414600000000  0.5137720000000  0.5514780000000 1.0
C      1  0.4302880000000  0.5131880000000  0.4572400000000 1.0
C      1  0.5180710000000  0.5129860000000  0.4257740000000 1.0
C      1  0.5759530000000  0.5125400000000  0.4945750000000 1.0
C      1  0.5305680000000  0.5134930000000  0.5714010000000 1.0
C      1  0.4418220000000  0.4852380000000  0.5484150000000 1.0
C      1  0.4313450000000  0.4852310000000  0.4586870000000 1.0
C      1  0.5152370000000  0.4845680000000  0.4243740000000 1.0
C      1  0.5826570000000  0.4848930000000  0.4923070000000 1.0
C      1  0.5289720000000  0.4847110000000  0.5711060000000 1.0
C      1  0.5593130000000  0.4847660000000  0.5683000000000 1.0
C      1  0.4537960000000  0.4846070000000  0.5770690000000 1.0
C      1  0.4106380000000  0.4850300000000  0.4791320000000 1.0
C      1  0.4908940000000  0.4853510000000  0.4070550000000 1.0
C      1  0.5846690000000  0.4854340000000  0.4629400000000 1.0
C      1  0.5604110000000  0.5138670000000  0.5681490000000 1.0
C      1  0.4546820000000  0.5135180000000  0.5779710000000 1.0
C      1  0.4090890000000  0.5138470000000  0.4766570000000 1.0
C      1  0.4919290000000  0.5146720000000  0.4080900000000 1.0
C      1  0.5828940000000  0.5145760000000  0.4643030000000 1.0
C      1  0.5199540000000  0.5166160000000  0.5152250000000 1.0
C      1  0.4904580000000  0.5190290000000  0.5250320000000 1.0
C      1  0.4737320000000  0.5181020000000  0.5000720000000 1.0
C      1  0.4943910000000  0.5221040000000  0.4771790000000 1.0
C      1  0.5225270000000  0.5221920000000  0.4873340000000 1.0
C      1  0.5182490000000  0.4774560000000  0.5167280000000 1.0
C      1  0.4899870000000  0.4757450000000  0.5251170000000 1.0
C      1  0.4730990000000  0.4761390000000  0.5010920000000 1.0
C      1  0.4906670000000  0.4766580000000  0.4762610000000 1.0
C      1  0.5197600000000  0.4776610000000  0.4863070000000 1.0
C      1  0.5854290000000  0.5266200000000  0.5387730000000 1.0
C      1  0.4896590000000  0.5256240000000  0.5941340000000 1.0
C      1  0.4057180000000  0.5310640000000  0.5228750000000 1.0
C      1  0.4545550000000  0.5226710000000  0.4186270000000 1.0
C      1  0.5636440000000  0.5259770000000  0.4303630000000 1.0
C      1  0.5843610000000  0.4724280000000  0.5390180000000 1.0
C      1  0.4886840000000  0.4733670000000  0.5941500000000 1.0
C      1  0.4074170000000  0.4719540000000  0.5171050000000 1.0
C      1  0.4543010000000  0.4728240000000  0.4189750000000 1.0
C      1  0.5617010000000  0.4727970000000  0.4320340000000 1.0
C      1  0.5396080000000  0.5300290000000  0.4155640000000 1.0
C      1  0.5917600000000  0.5305250000000  0.5113020000000 1.0
C      1  0.5174970000000  0.5316120000000  0.5906890000000 1.0
C      1  0.4171010000000  0.5301940000000  0.5485860000000 1.0
C      1  0.4337250000000  0.5310610000000  0.4348920000000 1.0
C      1  0.5387160000000  0.4689170000000  0.4154000000000 1.0
C      1  0.5931020000000  0.4675990000000  0.5122380000000 1.0
C      1  0.5165280000000  0.4674300000000  0.5913530000000 1.0
C      1  0.4172730000000  0.4693590000000  0.5436290000000 1.0
C      1  0.4312930000000  0.4678760000000  0.4352330000000 1.0
C      1  0.4988500000000  0.5875290000000  0.4517320000000 1.0
C      1  0.5457980000000  0.5885190000000  0.4846270000000 1.0
C      1  0.5270770000000  0.5882040000000  0.5381760000000 1.0
C      1  0.4746180000000  0.5874420000000  0.5472960000000 1.0
C      1  0.4529260000000  0.5893710000000  0.4803550000000 1.0
C      1  0.5040590000000  0.4082980000000  0.4492680000000 1.0
C      1  0.5475660000000  0.4095180000000  0.4855980000000 1.0
C      1  0.5280790000000  0.4090880000000  0.5412580000000 1.0
C      1  0.4731810000000  0.4125020000000  0.5465590000000 1.0
C      1  0.4537010000000  0.4091670000000  0.4802570000000 1.0
C      1  0.5618990000000  0.5291740000000  0.4542720000000 1.0
C      1  0.5627310000000  0.5297100000000  0.5461150000000 1.0
C      1  0.4771450000000  0.5284960000000  0.5737130000000 1.0
C      1  0.4206010000000  0.5289110000000  0.4984610000000 1.0
C      1  0.4765500000000  0.5304060000000  0.4258230000000 1.0
C      1  0.5629700000000  0.4695140000000  0.4560660000000 1.0
C      1  0.5614100000000  0.4689300000000  0.5457190000000 1.0
C      1  0.4759720000000  0.4696450000000  0.5739720000000 1.0
C      1  0.4234600000000  0.4695500000000  0.4991570000000 1.0
C      1  0.4772730000000  0.4704160000000  0.4254710000000 1.0
C      1  0.5343190000000  0.4525990000000  0.4916550000000 1.0
C      1  0.5203590000000  0.4510610000000  0.5291420000000 1.0
C      1  0.4801700000000  0.4473870000000  0.5268310000000 1.0
C      1  0.4635940000000  0.4497510000000  0.4897880000000 1.0
C      1  0.5020220000000  0.4480780000000  0.4668200000000 1.0
C      1  0.5300590000000  0.5507700000000  0.4974940000000 1.0
C      1  0.5174840000000  0.5484230000000  0.5238310000000 1.0
C      1  0.4786990000000  0.5466650000000  0.5279150000000 1.0
C      1  0.4667650000000  0.5482610000000  0.4882300000000 1.0
C      1  0.5028630000000  0.5490420000000  0.4659920000000 1.0
C      1  0.5087450000000  0.4435090000000  0.5537900000000 1.0
C      1  0.4526410000000  0.4471760000000  0.5278210000000 1.0
C      1  0.4565450000000  0.4510010000000  0.4614510000000 1.0
C      1  0.5240980000000  0.4488190000000  0.4474830000000 1.0
C      1  0.5581190000000  0.4490190000000  0.5066730000000 1.0
C      1  0.5089630000000  0.5537830000000  0.5534050000000 1.0
C      1  0.4507980000000  0.5509670000000  0.5277850000000 1.0
C      1  0.4630220000000  0.5502790000000  0.4603350000000 1.0
C      1  0.5244950000000  0.5504180000000  0.4471010000000 1.0
C      1  0.5579640000000  0.5512880000000  0.5065540000000 1.0
C      1  0.4210300000000  0.5592930000000  0.4974540000000 1.0
C      1  0.4771580000000  0.5607140000000  0.4212180000000 1.0
C      1  0.5667460000000  0.5590090000000  0.4536970000000 1.0
C      1  0.5640180000000  0.5593340000000  0.5505070000000 1.0
C      1  0.4722400000000  0.5578220000000  0.5773890000000 1.0
C      1  0.4231640000000  0.4393050000000  0.4986670000000 1.0
C      1  0.4779330000000  0.4395050000000  0.4232750000000 1.0
C      1  0.5677030000000  0.4397510000000  0.4550070000000 1.0
C      1  0.5628610000000  0.4389900000000  0.5482980000000 1.0
C      1  0.4699720000000  0.4410850000000  0.5784950000000 1.0
C      1  0.4825180000000  0.5822210000000  0.4744160000000 1.0
C      1  0.5252660000000  0.5867370000000  0.4637450000000 1.0
C      1  0.5430000000000  0.5879770000000  0.5140850000000 1.0
C      1  0.4987960000000  0.5895080000000  0.5297400000000 1.0
C      1  0.4615810000000  0.5917620000000  0.5084310000000 1.0
C      1  0.4803210000000  0.4114410000000  0.4669410000000 1.0
C      1  0.5302960000000  0.4089810000000  0.4622410000000 1.0
C      1  0.5350030000000  0.4115610000000  0.5126180000000 1.0
C      1  0.4999140000000  0.4134300000000  0.5300520000000 1.0
C      1  0.4660930000000  0.4123650000000  0.5072680000000 1.0
C      1  0.4951710000000  0.4133420000000  0.5045620000000 1.0
C      1  0.4905720000000  0.5888380000000  0.5018720000000 1.0
END
