TITL C-2441154-10-1472 0.0807704614899785 125000 -25865.8902944852 0 0 177 (C1) n - 1
REM
REM in /home/bkarasulu/work/CARBON/AIRSS/Generating-Clusters/ReaxFF-fromJPCA2015/Units_Real/with-SteepDescent/Higher-Symm
REM
REM
REM
REM
REM
REM ./C.cell (1df0a924f5614ab8850e4351716899ee)
REM
REM compiler GCC version 9.2.1 20190827 (Red Hat 9.2.1-1)
REM options -cpp -mtune=generic -march=x86-64 -g -O0 -fpre-include=/usr/include/finclude/math-vector-fortran.h
REM seed -1785195149 -1461863791 431869267 -349009936 1236859585 -1445088618 -827213532 278962504 -1464847393 1739002631 2026757976 -2142458567 -809459673 34702537 -776349843 2103228759 1201541045 703018888 44212809 956073256 491765123 1590114215 898135814 -2029791289 1767669266 -69993154 -2057448751 827267711 -1364149987 702360472 122460375 582274807 -539341765
REM
CELL 1.54180   50.00000   50.00000   50.00000   90.00000   90.00000   90.00000
LATT -1
SFAC C  
C      1  0.5105030000000  0.5363080000000  0.6074630000000 1.0
C      1  0.5035520000000  0.3945860000000  0.4781310000000 1.0
C      1  0.5057740000000  0.5744690000000  0.4176420000000 1.0
C      1  0.5050330000000  0.5340780000000  0.3947500000000 1.0
C      1  0.5117100000000  0.3900010000000  0.5212160000000 1.0
C      1  0.5098490000000  0.5749730000000  0.5845400000000 1.0
C      1  0.4705210000000  0.5185920000000  0.6077410000000 1.0
C      1  0.4661540000000  0.4089390000000  0.4509960000000 1.0
C      1  0.4659090000000  0.5894390000000  0.4468970000000 1.0
C      1  0.4642950000000  0.5005520000000  0.3961410000000 1.0
C      1  0.4719730000000  0.3990930000000  0.5399970000000 1.0
C      1  0.4705510000000  0.5821290000000  0.5678060000000 1.0
C      1  0.6032190000000  0.5247630000000  0.5157990000000 1.0
C      1  0.6008910000000  0.4742620000000  0.5145950000000 1.0
C      1  0.6034710000000  0.5002190000000  0.4721850000000 1.0
C      1  0.6041760000000  0.5249960000000  0.4864770000000 1.0
C      1  0.6016690000000  0.4746980000000  0.4863390000000 1.0
C      1  0.6011790000000  0.4990020000000  0.5283050000000 1.0
C      1  0.4761690000000  0.4399540000000  0.5738120000000 1.0
C      1  0.4712770000000  0.4557810000000  0.3977480000000 1.0
C      1  0.4716580000000  0.6059060000000  0.5161830000000 1.0
C      1  0.4719390000000  0.4312970000000  0.4109940000000 1.0
C      1  0.4718340000000  0.4624010000000  0.5968420000000 1.0
C      1  0.4728560000000  0.6086400000000  0.4882770000000 1.0
C      1  0.5835140000000  0.4553880000000  0.5270380000000 1.0
C      1  0.5873990000000  0.5003280000000  0.4477700000000 1.0
C      1  0.5857810000000  0.5468950000000  0.5235860000000 1.0
C      1  0.5844310000000  0.4575260000000  0.4707430000000 1.0
C      1  0.5764440000000  0.4975930000000  0.5442880000000 1.0
C      1  0.5869530000000  0.5459900000000  0.4753490000000 1.0
C      1  0.4225620000000  0.5228490000000  0.5156100000000 1.0
C      1  0.4108810000000  0.4763860000000  0.5137670000000 1.0
C      1  0.4137110000000  0.5014200000000  0.4699770000000 1.0
C      1  0.4218250000000  0.5243150000000  0.4834360000000 1.0
C      1  0.4202790000000  0.4768960000000  0.4854560000000 1.0
C      1  0.4117450000000  0.4999010000000  0.5282720000000 1.0
C      1  0.4157350000000  0.4468670000000  0.4726860000000 1.0
C      1  0.4147400000000  0.5474980000000  0.4668490000000 1.0
C      1  0.4105090000000  0.5039790000000  0.5566060000000 1.0
C      1  0.4098240000000  0.4496780000000  0.5241590000000 1.0
C      1  0.4124000000000  0.5460960000000  0.5314450000000 1.0
C      1  0.4148300000000  0.5038310000000  0.4416360000000 1.0
C      1  0.5100820000000  0.5161110000000  0.4876240000000 1.0
C      1  0.4991140000000  0.4978580000000  0.5285460000000 1.0
C      1  0.5037760000000  0.4684100000000  0.4910310000000 1.0
C      1  0.5135160000000  0.5235610000000  0.5160840000000 1.0
C      1  0.4925320000000  0.4943330000000  0.4836400000000 1.0
C      1  0.5150600000000  0.4741260000000  0.5219190000000 1.0
C      1  0.4556560000000  0.5639990000000  0.5491480000000 1.0
C      1  0.4553430000000  0.4246140000000  0.5320950000000 1.0
C      1  0.4612270000000  0.5202640000000  0.4185290000000 1.0
C      1  0.4613740000000  0.5605530000000  0.4412230000000 1.0
C      1  0.4640300000000  0.4197970000000  0.4786750000000 1.0
C      1  0.4562220000000  0.5127350000000  0.5811400000000 1.0
C      1  0.5669880000000  0.5199610000000  0.4399670000000 1.0
C      1  0.5644930000000  0.5439040000000  0.5435840000000 1.0
C      1  0.5636230000000  0.4408560000000  0.5124280000000 1.0
C      1  0.5631830000000  0.5197360000000  0.5584870000000 1.0
C      1  0.5655700000000  0.5430400000000  0.4556000000000 1.0
C      1  0.5633030000000  0.4424060000000  0.4837950000000 1.0
C      1  0.5143590000000  0.5100080000000  0.3829160000000 1.0
C      1  0.5173540000000  0.5977360000000  0.5693650000000 1.0
C      1  0.5196190000000  0.3920450000000  0.5489760000000 1.0
C      1  0.5185640000000  0.5111530000000  0.6189980000000 1.0
C      1  0.5159890000000  0.5968730000000  0.4321050000000 1.0
C      1  0.5160270000000  0.3920280000000  0.4525210000000 1.0
C      1  0.4316240000000  0.5493820000000  0.4431190000000 1.0
C      1  0.4281290000000  0.5235730000000  0.5689630000000 1.0
C      1  0.4337810000000  0.4287980000000  0.4868260000000 1.0
C      1  0.4283900000000  0.5481870000000  0.5556280000000 1.0
C      1  0.4312670000000  0.5250580000000  0.4301440000000 1.0
C      1  0.4286560000000  0.4296280000000  0.5141250000000 1.0
C      1  0.5219560000000  0.4148310000000  0.5114410000000 1.0
C      1  0.5237660000000  0.5338080000000  0.4167230000000 1.0
C      1  0.5223800000000  0.5555530000000  0.5674620000000 1.0
C      1  0.5136440000000  0.4229520000000  0.4843480000000 1.0
C      1  0.5228810000000  0.5327260000000  0.5817850000000 1.0
C      1  0.5232960000000  0.5558660000000  0.4307780000000 1.0
C      1  0.4752310000000  0.5375290000000  0.4631680000000 1.0
C      1  0.4779900000000  0.5178140000000  0.5599480000000 1.0
C      1  0.4892510000000  0.4442420000000  0.4771830000000 1.0
C      1  0.4727660000000  0.5378280000000  0.5386690000000 1.0
C      1  0.4801230000000  0.5143100000000  0.4437290000000 1.0
C      1  0.4719630000000  0.4487560000000  0.5273230000000 1.0
C      1  0.5390180000000  0.5621410000000  0.5435950000000 1.0
C      1  0.5386360000000  0.4316420000000  0.5285550000000 1.0
C      1  0.5418880000000  0.5114460000000  0.4230900000000 1.0
C      1  0.5394540000000  0.5612010000000  0.4553600000000 1.0
C      1  0.5381900000000  0.4338920000000  0.4670160000000 1.0
C      1  0.5391690000000  0.5090960000000  0.5746960000000 1.0
C      1  0.5432880000000  0.5225110000000  0.5098700000000 1.0
C      1  0.5425780000000  0.4779280000000  0.5125610000000 1.0
C      1  0.5406790000000  0.4929040000000  0.4671000000000 1.0
C      1  0.5380150000000  0.5180690000000  0.4816510000000 1.0
C      1  0.5331410000000  0.4734970000000  0.4867900000000 1.0
C      1  0.5573580000000  0.5003900000000  0.5212210000000 1.0
C      1  0.4538940000000  0.5965570000000  0.4716400000000 1.0
C      1  0.4528830000000  0.4833040000000  0.5928780000000 1.0
C      1  0.4538240000000  0.4256620000000  0.4313530000000 1.0
C      1  0.4535860000000  0.5887110000000  0.5304810000000 1.0
C      1  0.4508240000000  0.4757250000000  0.4045180000000 1.0
C      1  0.4523770000000  0.4282410000000  0.5606540000000 1.0
C      1  0.4057650000000  0.4524220000000  0.5530920000000 1.0
C      1  0.4180650000000  0.4774990000000  0.4286420000000 1.0
C      1  0.4098400000000  0.5685400000000  0.5132630000000 1.0
C      1  0.4131450000000  0.4521100000000  0.4442320000000 1.0
C      1  0.4062070000000  0.4777230000000  0.5677260000000 1.0
C      1  0.4089580000000  0.5699740000000  0.4838580000000 1.0
C      1  0.5198220000000  0.5615300000000  0.4833550000000 1.0
C      1  0.5191710000000  0.4804630000000  0.5666160000000 1.0
C      1  0.5208970000000  0.4551240000000  0.4453200000000 1.0
C      1  0.5202020000000  0.5676350000000  0.5131810000000 1.0
C      1  0.5252890000000  0.4867030000000  0.4422110000000 1.0
C      1  0.5173250000000  0.4587340000000  0.5453560000000 1.0
C      1  0.4949390000000  0.4892040000000  0.4427800000000 1.0
C      1  0.4959760000000  0.5502800000000  0.5159290000000 1.0
C      1  0.4886640000000  0.4545220000000  0.5491950000000 1.0
C      1  0.4949910000000  0.4944740000000  0.5572410000000 1.0
C      1  0.4932820000000  0.5533800000000  0.4842530000000 1.0
C      1  0.4932010000000  0.4592330000000  0.4523170000000 1.0
C      1  0.5405150000000  0.4083940000000  0.4518890000000 1.0
C      1  0.5405130000000  0.5902530000000  0.4470820000000 1.0
C      1  0.5418140000000  0.5017010000000  0.6039710000000 1.0
C      1  0.5410470000000  0.4114200000000  0.5502380000000 1.0
C      1  0.5411940000000  0.5895720000000  0.5550170000000 1.0
C      1  0.5397890000000  0.5013380000000  0.3949060000000 1.0
C      1  0.4952300000000  0.6089160000000  0.5296680000000 1.0
C      1  0.4969270000000  0.4204220000000  0.5793590000000 1.0
C      1  0.4961820000000  0.4670150000000  0.3895580000000 1.0
C      1  0.4972620000000  0.6117370000000  0.4735910000000 1.0
C      1  0.4966800000000  0.4195500000000  0.4165730000000 1.0
C      1  0.4948930000000  0.4717680000000  0.6090360000000 1.0
C      1  0.4915280000000  0.5998690000000  0.5563720000000 1.0
C      1  0.4936620000000  0.4001330000000  0.5596460000000 1.0
C      1  0.4904820000000  0.4942660000000  0.3849180000000 1.0
C      1  0.4923120000000  0.6023020000000  0.4472690000000 1.0
C      1  0.4920090000000  0.4015420000000  0.4385520000000 1.0
C      1  0.4915780000000  0.4995730000000  0.6164220000000 1.0
C      1  0.5228290000000  0.6106140000000  0.4863150000000 1.0
C      1  0.5206950000000  0.4618680000000  0.5938360000000 1.0
C      1  0.5206100000000  0.4363670000000  0.4170270000000 1.0
C      1  0.5194770000000  0.6021310000000  0.5145100000000 1.0
C      1  0.5221680000000  0.4572870000000  0.3967720000000 1.0
C      1  0.5214020000000  0.4325760000000  0.5869120000000 1.0
C      1  0.4559620000000  0.5254230000000  0.4841210000000 1.0
C      1  0.4708270000000  0.4969460000000  0.5213760000000 1.0
C      1  0.4493310000000  0.4762520000000  0.4882950000000 1.0
C      1  0.4571120000000  0.5220290000000  0.5172300000000 1.0
C      1  0.4649670000000  0.4976490000000  0.4789020000000 1.0
C      1  0.4621340000000  0.4713880000000  0.5132940000000 1.0
C      1  0.5459770000000  0.6008510000000  0.4726650000000 1.0
C      1  0.5474590000000  0.4741250000000  0.6000970000000 1.0
C      1  0.5464780000000  0.4195190000000  0.4257530000000 1.0
C      1  0.5453090000000  0.6042480000000  0.5307320000000 1.0
C      1  0.5450150000000  0.4739480000000  0.3991730000000 1.0
C      1  0.5447670000000  0.4255510000000  0.5733350000000 1.0
C      1  0.4827160000000  0.3865160000000  0.5165110000000 1.0
C      1  0.4770570000000  0.5405110000000  0.4006100000000 1.0
C      1  0.4819180000000  0.5700190000000  0.5918170000000 1.0
C      1  0.4763550000000  0.3940990000000  0.4889630000000 1.0
C      1  0.4823360000000  0.5450510000000  0.6075020000000 1.0
C      1  0.4778710000000  0.5646520000000  0.4155000000000 1.0
C      1  0.4333350000000  0.4722160000000  0.5751950000000 1.0
C      1  0.4422080000000  0.4478940000000  0.4428480000000 1.0
C      1  0.4353460000000  0.5817650000000  0.4852800000000 1.0
C      1  0.4449120000000  0.4723370000000  0.4311820000000 1.0
C      1  0.4325950000000  0.4475440000000  0.5628730000000 1.0
C      1  0.4358260000000  0.5790480000000  0.5118670000000 1.0
C      1  0.5676080000000  0.4709190000000  0.5802960000000 1.0
C      1  0.5622270000000  0.4411530000000  0.4288370000000 1.0
C      1  0.5637290000000  0.5830880000000  0.4911340000000 1.0
C      1  0.5654550000000  0.4652840000000  0.4212400000000 1.0
C      1  0.5634020000000  0.4459520000000  0.5696490000000 1.0
C      1  0.5602320000000  0.5888240000000  0.5149090000000 1.0
C      1  0.5819950000000  0.4616140000000  0.5555650000000 1.0
C      1  0.5839900000000  0.4716630000000  0.4442720000000 1.0
C      1  0.5862150000000  0.5633780000000  0.4986350000000 1.0
END
