TITL C-2441161-5029-1229 0.0782427548333853 125000 -16030.622514874 0 0 121 (C1) n - 1
REM
REM in /home/bkarasulu/work/CARBON/AIRSS/Generating-Clusters/ReaxFF-fromJPCA2015/Units_Real/with-SteepDescent/Higher-Symm
REM
REM
REM
REM
REM
REM ./C.cell (1df0a924f5614ab8850e4351716899ee)
REM
REM compiler GCC version 9.2.1 20190827 (Red Hat 9.2.1-1)
REM options -cpp -mtune=generic -march=x86-64 -g -O0 -fpre-include=/usr/include/finclude/math-vector-fortran.h
REM seed -805728754 -1377705667 -734843629 1947616128 -2074412614 -207531319 778207729 -2010326525 -894137107 1522331747 497722181 1397278435 -1567083674 -1296674184 -1251057096 -1337556231 579779468 414440728 493649242 1534500864 -613238774 -191310778 355525639 2026366224 1740274396 -1451127911 -2089501765 -60045288 1769992053 180416110 1471326950 -1872313065 -151346657
REM
CELL 1.54180   50.00000   50.00000   50.00000   90.00000   90.00000   90.00000
LATT -1
SFAC C  
C      1  0.4741030000000  0.5317000000000  0.5847490000000 1.0
C      1  0.4865340000000  0.5632580000000  0.4332740000000 1.0
C      1  0.4775500000000  0.4085030000000  0.4902050000000 1.0
C      1  0.4288680000000  0.4943720000000  0.5428030000000 1.0
C      1  0.4251390000000  0.5411370000000  0.4696300000000 1.0
C      1  0.4260770000000  0.4546850000000  0.4773810000000 1.0
C      1  0.5274150000000  0.5242940000000  0.4946900000000 1.0
C      1  0.5354000000000  0.4796110000000  0.4726570000000 1.0
C      1  0.5262090000000  0.4851810000000  0.5249020000000 1.0
C      1  0.5567830000000  0.5674370000000  0.5004460000000 1.0
C      1  0.5543940000000  0.4689210000000  0.4503860000000 1.0
C      1  0.5589810000000  0.4662420000000  0.5558770000000 1.0
C      1  0.4849770000000  0.4426260000000  0.5742280000000 1.0
C      1  0.4795640000000  0.5944020000000  0.5193900000000 1.0
C      1  0.4861630000000  0.4674760000000  0.4117740000000 1.0
C      1  0.5245430000000  0.4358980000000  0.5499650000000 1.0
C      1  0.5227590000000  0.5746590000000  0.5292090000000 1.0
C      1  0.5258890000000  0.4889910000000  0.4198060000000 1.0
C      1  0.4719440000000  0.5239890000000  0.4853590000000 1.0
C      1  0.4677380000000  0.4794870000000  0.4861270000000 1.0
C      1  0.4684110000000  0.5091830000000  0.5260120000000 1.0
C      1  0.5499730000000  0.5006760000000  0.4279330000000 1.0
C      1  0.5508120000000  0.4400000000000  0.5369650000000 1.0
C      1  0.5493400000000  0.5675650000000  0.5283270000000 1.0
C      1  0.5336770000000  0.5127840000000  0.4071790000000 1.0
C      1  0.5325050000000  0.4160410000000  0.5325450000000 1.0
C      1  0.5345530000000  0.5699970000000  0.5538840000000 1.0
C      1  0.4449030000000  0.4325150000000  0.4687710000000 1.0
C      1  0.4429480000000  0.5071030000000  0.5726470000000 1.0
C      1  0.4430980000000  0.5592750000000  0.4532180000000 1.0
C      1  0.4198220000000  0.4645760000000  0.5026170000000 1.0
C      1  0.4271190000000  0.5109780000000  0.5181760000000 1.0
C      1  0.4263790000000  0.5131040000000  0.4762450000000 1.0
C      1  0.5899960000000  0.4934010000000  0.4711340000000 1.0
C      1  0.5871420000000  0.4673830000000  0.5183990000000 1.0
C      1  0.5829090000000  0.5369990000000  0.5221960000000 1.0
C      1  0.5284970000000  0.4662720000000  0.5033410000000 1.0
C      1  0.5386020000000  0.5105980000000  0.5198400000000 1.0
C      1  0.5424870000000  0.5099980000000  0.4742340000000 1.0
C      1  0.4478750000000  0.5741650000000  0.4943600000000 1.0
C      1  0.4554850000000  0.4613970000000  0.4398070000000 1.0
C      1  0.4596070000000  0.4630410000000  0.5737690000000 1.0
C      1  0.4519860000000  0.4373460000000  0.5153460000000 1.0
C      1  0.4599350000000  0.5363840000000  0.5426560000000 1.0
C      1  0.4541560000000  0.5219920000000  0.4386040000000 1.0
C      1  0.4502830000000  0.4184080000000  0.4936770000000 1.0
C      1  0.4485940000000  0.5356190000000  0.5723640000000 1.0
C      1  0.4592200000000  0.5495530000000  0.4316880000000 1.0
C      1  0.5433960000000  0.4415000000000  0.4469110000000 1.0
C      1  0.5431340000000  0.4827020000000  0.5726480000000 1.0
C      1  0.5414540000000  0.5719610000000  0.4755420000000 1.0
C      1  0.4529190000000  0.4765750000000  0.5477630000000 1.0
C      1  0.4263740000000  0.5542370000000  0.4949100000000 1.0
C      1  0.4322830000000  0.4702870000000  0.4556890000000 1.0
C      1  0.4783350000000  0.4830200000000  0.5356200000000 1.0
C      1  0.4860230000000  0.5423410000000  0.5026810000000 1.0
C      1  0.4871770000000  0.4832850000000  0.4657210000000 1.0
C      1  0.4862530000000  0.5478110000000  0.5483970000000 1.0
C      1  0.4824960000000  0.5165210000000  0.4371900000000 1.0
C      1  0.4783620000000  0.4328010000000  0.5259140000000 1.0
C      1  0.4928690000000  0.4312270000000  0.4765860000000 1.0
C      1  0.4942740000000  0.5133990000000  0.5769120000000 1.0
C      1  0.4909820000000  0.5608320000000  0.4624180000000 1.0
C      1  0.5431000000000  0.4249570000000  0.4710270000000 1.0
C      1  0.5427380000000  0.5144150000000  0.5753400000000 1.0
C      1  0.5387050000000  0.5612620000000  0.4487760000000 1.0
C      1  0.5137580000000  0.5768520000000  0.4843870000000 1.0
C      1  0.5161550000000  0.4476950000000  0.4400890000000 1.0
C      1  0.5158620000000  0.4725800000000  0.5733240000000 1.0
C      1  0.4831560000000  0.4710680000000  0.5068680000000 1.0
C      1  0.4921440000000  0.5199550000000  0.5203810000000 1.0
C      1  0.4952260000000  0.5100060000000  0.4757170000000 1.0
C      1  0.5171120000000  0.4067370000000  0.5101070000000 1.0
C      1  0.5175410000000  0.5582250000000  0.5742780000000 1.0
C      1  0.5130220000000  0.5330420000000  0.4092560000000 1.0
C      1  0.5129060000000  0.4449290000000  0.5731950000000 1.0
C      1  0.5073080000000  0.5895260000000  0.5110110000000 1.0
C      1  0.5135830000000  0.4625950000000  0.4145270000000 1.0
C      1  0.5127530000000  0.5488930000000  0.4951140000000 1.0
C      1  0.5111320000000  0.4690280000000  0.4593460000000 1.0
C      1  0.5082700000000  0.4812830000000  0.5469080000000 1.0
C      1  0.5052190000000  0.5268010000000  0.5450260000000 1.0
C      1  0.4991520000000  0.5305920000000  0.4560760000000 1.0
C      1  0.5011780000000  0.4502530000000  0.5003580000000 1.0
C      1  0.5743810000000  0.5149200000000  0.4826660000000 1.0
C      1  0.5833800000000  0.4771390000000  0.4945570000000 1.0
C      1  0.5730870000000  0.5107460000000  0.5180620000000 1.0
C      1  0.4528070000000  0.5789400000000  0.5221660000000 1.0
C      1  0.4491580000000  0.4810930000000  0.4170970000000 1.0
C      1  0.4464940000000  0.4378550000000  0.5595670000000 1.0
C      1  0.4636390000000  0.5720220000000  0.4693120000000 1.0
C      1  0.4682060000000  0.4394910000000  0.4541570000000 1.0
C      1  0.4648630000000  0.4923230000000  0.5826170000000 1.0
C      1  0.4345000000000  0.5030820000000  0.4294120000000 1.0
C      1  0.4308880000000  0.4416430000000  0.5352540000000 1.0
C      1  0.4390470000000  0.5570400000000  0.5367430000000 1.0
C      1  0.5637560000000  0.4354970000000  0.4887610000000 1.0
C      1  0.5644290000000  0.5239780000000  0.5572810000000 1.0
C      1  0.5625020000000  0.5445370000000  0.4503810000000 1.0
C      1  0.5814170000000  0.5415430000000  0.4729540000000 1.0
C      1  0.5858600000000  0.4535260000000  0.4801880000000 1.0
C      1  0.5841940000000  0.5051310000000  0.5459020000000 1.0
C      1  0.5178930000000  0.4148540000000  0.4816870000000 1.0
C      1  0.5173400000000  0.5306740000000  0.5843410000000 1.0
C      1  0.5151060000000  0.5562790000000  0.4281450000000 1.0
C      1  0.4907340000000  0.5705130000000  0.5660450000000 1.0
C      1  0.4878790000000  0.5178600000000  0.4090750000000 1.0
C      1  0.4889340000000  0.4077240000000  0.5166770000000 1.0
C      1  0.5493470000000  0.4483610000000  0.5099130000000 1.0
C      1  0.5381630000000  0.5276270000000  0.5432640000000 1.0
C      1  0.5482870000000  0.5191780000000  0.4486200000000 1.0
C      1  0.4727330000000  0.4276530000000  0.5535560000000 1.0
C      1  0.4854100000000  0.5900390000000  0.5459350000000 1.0
C      1  0.4740410000000  0.4909990000000  0.4034910000000 1.0
C      1  0.5831200000000  0.4702710000000  0.4555270000000 1.0
C      1  0.5842690000000  0.4746910000000  0.5452100000000 1.0
C      1  0.5833970000000  0.5547190000000  0.4995840000000 1.0
C      1  0.4218070000000  0.5393070000000  0.5201400000000 1.0
C      1  0.4213570000000  0.4957810000000  0.4539480000000 1.0
C      1  0.4164150000000  0.4676350000000  0.5292390000000 1.0
C      1  0.4511410000000  0.5040220000000  0.4951830000000 1.0
END
