TITL C-2441154-10-1224 0.021472300390124 125000 -11270.6141438563 0 0 83 (C1) n - 1
REM
REM in /home/bkarasulu/work/CARBON/AIRSS/Generating-Clusters/ReaxFF-fromJPCA2015/Units_Real/with-SteepDescent/Higher-Symm
REM
REM
REM
REM
REM
REM ./C.cell (1df0a924f5614ab8850e4351716899ee)
REM
REM compiler GCC version 9.2.1 20190827 (Red Hat 9.2.1-1)
REM options -cpp -mtune=generic -march=x86-64 -g -O0 -fpre-include=/usr/include/finclude/math-vector-fortran.h
REM seed -648551580 -902795683 -1322423718 -778193655 321014590 -381992589 -202724783 -1172985734 291798617 -419894052 -41082238 1966531103 1600578243 -1654556943 1729859855 -579094240 -1031888164 -837225378 -185973463 -368774643 -2061667368 -245809241 680998119 -297805313 336564442 355299207 617772963 443950668 -1310780312 1046807206 198700787 -278698507 -1528465946
REM
CELL 1.54180   50.00000   50.00000   50.00000   90.00000   90.00000   90.00000
LATT -1
SFAC C  
C      1  0.5507560000000  0.4545230000000  0.4340350000000 1.0
C      1  0.5509000000000  0.4667150000000  0.5723580000000 1.0
C      1  0.5523580000000  0.5831560000000  0.4872560000000 1.0
C      1  0.5027090000000  0.4468810000000  0.5619450000000 1.0
C      1  0.5037420000000  0.5816530000000  0.5108290000000 1.0
C      1  0.5041310000000  0.4670600000000  0.4245040000000 1.0
C      1  0.5365940000000  0.4836280000000  0.5393600000000 1.0
C      1  0.5385270000000  0.5484650000000  0.5058280000000 1.0
C      1  0.5348170000000  0.4785690000000  0.4664920000000 1.0
C      1  0.5769900000000  0.5224380000000  0.5191780000000 1.0
C      1  0.5747800000000  0.5042530000000  0.4751200000000 1.0
C      1  0.5738890000000  0.4768600000000  0.5065010000000 1.0
C      1  0.4210500000000  0.5319140000000  0.5081730000000 1.0
C      1  0.4237020000000  0.4902670000000  0.4667780000000 1.0
C      1  0.4207120000000  0.4771720000000  0.5224600000000 1.0
C      1  0.5190110000000  0.5401080000000  0.4479370000000 1.0
C      1  0.5078590000000  0.4302330000000  0.4846990000000 1.0
C      1  0.5193280000000  0.5288240000000  0.5528820000000 1.0
C      1  0.5160420000000  0.5173680000000  0.5246400000000 1.0
C      1  0.5302760000000  0.5178330000000  0.4659780000000 1.0
C      1  0.5287050000000  0.4639710000000  0.5053780000000 1.0
C      1  0.4488980000000  0.5095780000000  0.4401350000000 1.0
C      1  0.4476700000000  0.4441890000000  0.5213830000000 1.0
C      1  0.4474930000000  0.5480590000000  0.5376410000000 1.0
C      1  0.4858360000000  0.5213510000000  0.4731370000000 1.0
C      1  0.4853060000000  0.4697860000000  0.4941080000000 1.0
C      1  0.4760580000000  0.5190190000000  0.5282480000000 1.0
C      1  0.4483420000000  0.5609650000000  0.4850980000000 1.0
C      1  0.4529310000000  0.4584250000000  0.4566780000000 1.0
C      1  0.4480330000000  0.4827520000000  0.5591920000000 1.0
C      1  0.4977050000000  0.4213290000000  0.5126300000000 1.0
C      1  0.4993640000000  0.5514660000000  0.5573230000000 1.0
C      1  0.5008010000000  0.5268340000000  0.4298730000000 1.0
C      1  0.4841380000000  0.4889760000000  0.4255270000000 1.0
C      1  0.4987100000000  0.4326560000000  0.5382770000000 1.0
C      1  0.4945350000000  0.5659420000000  0.5329120000000 1.0
C      1  0.4953750000000  0.5362920000000  0.5176400000000 1.0
C      1  0.4982500000000  0.5033820000000  0.4475020000000 1.0
C      1  0.5030140000000  0.4693370000000  0.5159390000000 1.0
C      1  0.5000580000000  0.4521170000000  0.4492250000000 1.0
C      1  0.4952820000000  0.4750790000000  0.5656300000000 1.0
C      1  0.4959470000000  0.5685470000000  0.4855260000000 1.0
C      1  0.4687980000000  0.4255880000000  0.5104160000000 1.0
C      1  0.4704600000000  0.5461650000000  0.5599450000000 1.0
C      1  0.4704080000000  0.5286250000000  0.4302030000000 1.0
C      1  0.5343860000000  0.4479170000000  0.5591200000000 1.0
C      1  0.5338060000000  0.5783220000000  0.5084700000000 1.0
C      1  0.5330090000000  0.4759400000000  0.4268710000000 1.0
C      1  0.4717030000000  0.5419210000000  0.4557790000000 1.0
C      1  0.4751520000000  0.4421160000000  0.4875100000000 1.0
C      1  0.4738420000000  0.5174180000000  0.5571200000000 1.0
C      1  0.4268890000000  0.4965400000000  0.5421910000000 1.0
C      1  0.4282140000000  0.5387100000000  0.4818920000000 1.0
C      1  0.4292730000000  0.4637980000000  0.4739620000000 1.0
C      1  0.5462200000000  0.5377770000000  0.4568340000000 1.0
C      1  0.5336800000000  0.4425590000000  0.4850960000000 1.0
C      1  0.5474160000000  0.5241920000000  0.5544490000000 1.0
C      1  0.4756800000000  0.4391800000000  0.4599640000000 1.0
C      1  0.4728930000000  0.4918980000000  0.5724720000000 1.0
C      1  0.4721620000000  0.5677290000000  0.4685350000000 1.0
C      1  0.4260830000000  0.5263920000000  0.5348760000000 1.0
C      1  0.4271440000000  0.5166470000000  0.4595340000000 1.0
C      1  0.4261490000000  0.4569730000000  0.5039650000000 1.0
C      1  0.5593130000000  0.4953180000000  0.5535270000000 1.0
C      1  0.5583030000000  0.5495000000000  0.4821330000000 1.0
C      1  0.5556010000000  0.4567930000000  0.4656490000000 1.0
C      1  0.5793670000000  0.4754150000000  0.4777830000000 1.0
C      1  0.5774350000000  0.4950910000000  0.5289950000000 1.0
C      1  0.5784240000000  0.5286040000000  0.4908090000000 1.0
C      1  0.5429830000000  0.4566690000000  0.5312370000000 1.0
C      1  0.5539150000000  0.5380600000000  0.5298130000000 1.0
C      1  0.5405850000000  0.4983940000000  0.4468710000000 1.0
C      1  0.4613410000000  0.4833110000000  0.4447410000000 1.0
C      1  0.4565510000000  0.4650630000000  0.5387540000000 1.0
C      1  0.4521450000000  0.5583210000000  0.5123560000000 1.0
C      1  0.4607740000000  0.4829210000000  0.5027110000000 1.0
C      1  0.4572790000000  0.5100800000000  0.5103810000000 1.0
C      1  0.4632170000000  0.5042570000000  0.4834450000000 1.0
C      1  0.5055310000000  0.4758370000000  0.4668310000000 1.0
C      1  0.5069930000000  0.4855440000000  0.5396180000000 1.0
C      1  0.5023530000000  0.5406990000000  0.4904780000000 1.0
C      1  0.5261280000000  0.5036820000000  0.5003190000000 1.0
C      1  0.5531140000000  0.4981150000000  0.4972060000000 1.0
END
