TITL C-2441157-2117-1061 0.0120524369851055 125000 -11318.6001231482 0 0 83 (C1) n - 1
REM
REM in /home/bkarasulu/work/CARBON/AIRSS/Generating-Clusters/ReaxFF-fromJPCA2015/Units_Real/with-SteepDescent/Higher-Symm
REM
REM
REM
REM
REM
REM ./C.cell (1df0a924f5614ab8850e4351716899ee)
REM
REM compiler GCC version 9.2.1 20190827 (Red Hat 9.2.1-1)
REM options -cpp -mtune=generic -march=x86-64 -g -O0 -fpre-include=/usr/include/finclude/math-vector-fortran.h
REM seed -632870782 1380187176 -1436188830 1978171306 -1498302419 410311837 -1405805016 941933806 -1132927289 1027491846 1293902189 -912313680 746058419 721357102 -484670953 1168005234 998436128 1667031159 1116140342 -949811808 1764962494 -943323940 1245848967 577266962 -1302254154 1837448213 2015947484 625116170 -1186300065 -1776087809 1603707406 1198363930 592408069
REM
CELL 1.54180   50.00000   50.00000   50.00000   90.00000   90.00000   90.00000
LATT -1
SFAC C  
C      1  0.4246970000000  0.4852780000000  0.4929120000000 1.0
C      1  0.4354570000000  0.5133550000000  0.5406540000000 1.0
C      1  0.4798820000000  0.4878070000000  0.5721400000000 1.0
C      1  0.5380040000000  0.5157380000000  0.5634910000000 1.0
C      1  0.5718450000000  0.4866380000000  0.5102570000000 1.0
C      1  0.5648020000000  0.5163950000000  0.4624360000000 1.0
C      1  0.5092690000000  0.4874330000000  0.4295990000000 1.0
C      1  0.4648880000000  0.5157860000000  0.4286050000000 1.0
C      1  0.5159630000000  0.5322550000000  0.5753570000000 1.0
C      1  0.5594090000000  0.4642840000000  0.5442040000000 1.0
C      1  0.5768310000000  0.5326230000000  0.4846860000000 1.0
C      1  0.5432290000000  0.4650550000000  0.4393090000000 1.0
C      1  0.4856400000000  0.5346140000000  0.4229980000000 1.0
C      1  0.4367710000000  0.4679150000000  0.4568260000000 1.0
C      1  0.4237110000000  0.5304210000000  0.5193920000000 1.0
C      1  0.4587980000000  0.4686370000000  0.5661540000000 1.0
C      1  0.5276160000000  0.4571320000000  0.4768860000000 1.0
C      1  0.4984140000000  0.5372150000000  0.4655590000000 1.0
C      1  0.4751410000000  0.4622190000000  0.4819610000000 1.0
C      1  0.4636310000000  0.5341960000000  0.5016330000000 1.0
C      1  0.4734200000000  0.4617450000000  0.5265880000000 1.0
C      1  0.5003700000000  0.5340890000000  0.5344500000000 1.0
C      1  0.5207680000000  0.4603200000000  0.5270160000000 1.0
C      1  0.5333870000000  0.5405510000000  0.4953430000000 1.0
C      1  0.4686480000000  0.5072600000000  0.5545070000000 1.0
C      1  0.5185350000000  0.4938680000000  0.5630280000000 1.0
C      1  0.5557720000000  0.5031360000000  0.5281650000000 1.0
C      1  0.5606780000000  0.4936510000000  0.4813120000000 1.0
C      1  0.5281960000000  0.5030020000000  0.4450370000000 1.0
C      1  0.4800750000000  0.4930610000000  0.4398600000000 1.0
C      1  0.4384510000000  0.5039830000000  0.4759080000000 1.0
C      1  0.4381230000000  0.4909700000000  0.5200380000000 1.0
C      1  0.4648420000000  0.5043700000000  0.5088500000000 1.0
C      1  0.4803710000000  0.4921780000000  0.5302880000000 1.0
C      1  0.5079320000000  0.5039530000000  0.5343100000000 1.0
C      1  0.5299150000000  0.4879440000000  0.5229420000000 1.0
C      1  0.5360760000000  0.5129810000000  0.4914820000000 1.0
C      1  0.5228470000000  0.4841920000000  0.4677250000000 1.0
C      1  0.4899240000000  0.5091700000000  0.4707520000000 1.0
C      1  0.4668170000000  0.4937190000000  0.4808440000000 1.0
C      1  0.5691720000000  0.5294140000000  0.5147640000000 1.0
C      1  0.5634060000000  0.4682530000000  0.4595630000000 1.0
C      1  0.5127230000000  0.5326420000000  0.4394440000000 1.0
C      1  0.4586750000000  0.4701920000000  0.4386070000000 1.0
C      1  0.4357510000000  0.5317250000000  0.4896650000000 1.0
C      1  0.4462380000000  0.4640900000000  0.5376620000000 1.0
C      1  0.4877480000000  0.5337960000000  0.5610420000000 1.0
C      1  0.5391980000000  0.4699180000000  0.5646720000000 1.0
C      1  0.5327720000000  0.4420880000000  0.5681590000000 1.0
C      1  0.5631310000000  0.5557260000000  0.5264850000000 1.0
C      1  0.5674510000000  0.4416500000000  0.4689870000000 1.0
C      1  0.5283780000000  0.5599220000000  0.4360490000000 1.0
C      1  0.4704000000000  0.4426910000000  0.4353700000000 1.0
C      1  0.4346490000000  0.5595710000000  0.4725790000000 1.0
C      1  0.4329360000000  0.4367430000000  0.5256070000000 1.0
C      1  0.4720790000000  0.5618070000000  0.5641370000000 1.0
C      1  0.4865240000000  0.4363540000000  0.5282310000000 1.0
C      1  0.5112240000000  0.5589950000000  0.5265290000000 1.0
C      1  0.5246000000000  0.4360490000000  0.5122250000000 1.0
C      1  0.5268560000000  0.5671860000000  0.4887450000000 1.0
C      1  0.5082840000000  0.4363760000000  0.4729350000000 1.0
C      1  0.4871640000000  0.5626720000000  0.4733170000000 1.0
C      1  0.4701540000000  0.4365680000000  0.4893950000000 1.0
C      1  0.4713660000000  0.5596430000000  0.5123100000000 1.0
C      1  0.5653610000000  0.5463670000000  0.4627210000000 1.0
C      1  0.5172060000000  0.4590720000000  0.4300800000000 1.0
C      1  0.4616210000000  0.5450820000000  0.4337260000000 1.0
C      1  0.4261930000000  0.4584130000000  0.4811750000000 1.0
C      1  0.4337040000000  0.5447310000000  0.5406850000000 1.0
C      1  0.4856380000000  0.4606130000000  0.5693590000000 1.0
C      1  0.5365710000000  0.5443840000000  0.5631750000000 1.0
C      1  0.5669020000000  0.4589870000000  0.5176240000000 1.0
C      1  0.5044090000000  0.4471390000000  0.5501420000000 1.0
C      1  0.5365330000000  0.5607900000000  0.5401650000000 1.0
C      1  0.5484930000000  0.4446020000000  0.4959590000000 1.0
C      1  0.5412970000000  0.5654490000000  0.4612270000000 1.0
C      1  0.4984440000000  0.4405150000000  0.4454580000000 1.0
C      1  0.4595230000000  0.5623180000000  0.4592040000000 1.0
C      1  0.4397320000000  0.4365870000000  0.4981620000000 1.0
C      1  0.4574090000000  0.5636500000000  0.5395790000000 1.0
C      1  0.4980190000000  0.5729240000000  0.5008450000000 1.0
C      1  0.4978760000000  0.4244960000000  0.5031500000000 1.0
C      1  0.5113040000000  0.4995260000000  0.4889150000000 1.0
END
