TITL C-2441154-10-1042 0.0478946715335693 125000 -20449.8225561063 0 0 143 (C1) n - 1
REM
REM in /home/bkarasulu/work/CARBON/AIRSS/Generating-Clusters/ReaxFF-fromJPCA2015/Units_Real/with-SteepDescent/Higher-Symm
REM
REM
REM
REM
REM
REM ./C.cell (1df0a924f5614ab8850e4351716899ee)
REM
REM compiler GCC version 9.2.1 20190827 (Red Hat 9.2.1-1)
REM options -cpp -mtune=generic -march=x86-64 -g -O0 -fpre-include=/usr/include/finclude/math-vector-fortran.h
REM seed -1580163448 -1354209031 -1309587487 1711422800 2056232946 1769972732 -423686621 477579319 2127132722 -372834325 700571148 1330247712 -396551967 -1288872514 -1736670788 1494543181 -1392719672 1677925226 74591120 72497431 -493431383 1928611541 1576182437 1779845740 -804084501 1124647011 1967509715 1987554879 -197644883 240110706 75375142 -949539632 -1761658907
REM
CELL 1.54180   50.00000   50.00000   50.00000   90.00000   90.00000   90.00000
LATT -1
SFAC C  
C      1  0.5458990000000  0.5910590000000  0.4723080000000 1.0
C      1  0.5228040000000  0.5930820000000  0.4519890000000 1.0
C      1  0.4951040000000  0.5854120000000  0.4480190000000 1.0
C      1  0.4696490000000  0.5904320000000  0.4634440000000 1.0
C      1  0.4489750000000  0.5878030000000  0.4870040000000 1.0
C      1  0.4482680000000  0.5797490000000  0.5153510000000 1.0
C      1  0.4624020000000  0.5910900000000  0.5385780000000 1.0
C      1  0.4900730000000  0.5892560000000  0.5485120000000 1.0
C      1  0.5189860000000  0.5894730000000  0.5452720000000 1.0
C      1  0.5435600000000  0.5903020000000  0.5290590000000 1.0
C      1  0.5517240000000  0.5872400000000  0.5006260000000 1.0
C      1  0.4679250000000  0.4191160000000  0.4580780000000 1.0
C      1  0.4541330000000  0.4157640000000  0.4833990000000 1.0
C      1  0.4574020000000  0.4345990000000  0.5078040000000 1.0
C      1  0.4634740000000  0.4210700000000  0.5373180000000 1.0
C      1  0.4878170000000  0.4212280000000  0.5552400000000 1.0
C      1  0.5165380000000  0.4217290000000  0.5508320000000 1.0
C      1  0.5368060000000  0.4160430000000  0.5295650000000 1.0
C      1  0.5490290000000  0.4180520000000  0.5031970000000 1.0
C      1  0.5445270000000  0.4194140000000  0.4756370000000 1.0
C      1  0.5235260000000  0.4190030000000  0.4564260000000 1.0
C      1  0.4958570000000  0.4181330000000  0.4474700000000 1.0
C      1  0.4816310000000  0.4776350000000  0.3897670000000 1.0
C      1  0.4355120000000  0.4760230000000  0.4171540000000 1.0
C      1  0.3932340000000  0.4783780000000  0.4706970000000 1.0
C      1  0.3972600000000  0.4749640000000  0.5225720000000 1.0
C      1  0.4316720000000  0.4735000000000  0.5796390000000 1.0
C      1  0.4836670000000  0.4738530000000  0.6053840000000 1.0
C      1  0.5373670000000  0.4747680000000  0.5990860000000 1.0
C      1  0.5953310000000  0.4770440000000  0.5570670000000 1.0
C      1  0.6004200000000  0.4746110000000  0.5038840000000 1.0
C      1  0.5908260000000  0.4788470000000  0.4395760000000 1.0
C      1  0.5474230000000  0.4749280000000  0.4071180000000 1.0
C      1  0.5879880000000  0.5137720000000  0.4727180000000 1.0
C      1  0.5613170000000  0.5165880000000  0.4267970000000 1.0
C      1  0.5142850000000  0.5126680000000  0.4053910000000 1.0
C      1  0.4621750000000  0.5140410000000  0.4165470000000 1.0
C      1  0.4229930000000  0.5136130000000  0.4512780000000 1.0
C      1  0.4047680000000  0.5169080000000  0.5017200000000 1.0
C      1  0.4213170000000  0.5133090000000  0.5506510000000 1.0
C      1  0.4612030000000  0.5123850000000  0.5830220000000 1.0
C      1  0.5119220000000  0.5108610000000  0.5905660000000 1.0
C      1  0.5607270000000  0.5124500000000  0.5702200000000 1.0
C      1  0.5897400000000  0.5143360000000  0.5252290000000 1.0
C      1  0.5353570000000  0.4309080000000  0.4293540000000 1.0
C      1  0.4915430000000  0.4286490000000  0.4191740000000 1.0
C      1  0.4418990000000  0.4280230000000  0.4462080000000 1.0
C      1  0.4282760000000  0.4234940000000  0.4715660000000 1.0
C      1  0.4275620000000  0.4341840000000  0.5173830000000 1.0
C      1  0.4424360000000  0.4282890000000  0.5552740000000 1.0
C      1  0.4850280000000  0.4345530000000  0.5810880000000 1.0
C      1  0.5391200000000  0.4290210000000  0.5693230000000 1.0
C      1  0.5580170000000  0.4257810000000  0.5480140000000 1.0
C      1  0.5790490000000  0.4286930000000  0.5065990000000 1.0
C      1  0.5720540000000  0.4288470000000  0.4611560000000 1.0
C      1  0.5624550000000  0.5762030000000  0.5439290000000 1.0
C      1  0.5771390000000  0.5737710000000  0.4961880000000 1.0
C      1  0.5661510000000  0.5765340000000  0.4566210000000 1.0
C      1  0.5345850000000  0.5780790000000  0.4313040000000 1.0
C      1  0.4865390000000  0.5726370000000  0.4216690000000 1.0
C      1  0.4531770000000  0.5765210000000  0.4469470000000 1.0
C      1  0.4242370000000  0.5799540000000  0.4742630000000 1.0
C      1  0.4269380000000  0.5606750000000  0.5243190000000 1.0
C      1  0.4450570000000  0.5791150000000  0.5575120000000 1.0
C      1  0.4934280000000  0.5776860000000  0.5755770000000 1.0
C      1  0.5217040000000  0.5780740000000  0.5714250000000 1.0
C      1  0.5520160000000  0.4540560000000  0.5831410000000 1.0
C      1  0.5701150000000  0.4489160000000  0.5309980000000 1.0
C      1  0.5808120000000  0.4581230000000  0.4890330000000 1.0
C      1  0.5609420000000  0.4468890000000  0.4411280000000 1.0
C      1  0.5230170000000  0.4612000000000  0.4208170000000 1.0
C      1  0.4749130000000  0.4523710000000  0.4274800000000 1.0
C      1  0.4313590000000  0.4556490000000  0.4391250000000 1.0
C      1  0.4143560000000  0.4399980000000  0.4927430000000 1.0
C      1  0.4099510000000  0.4514500000000  0.5361090000000 1.0
C      1  0.4554170000000  0.4580340000000  0.5662990000000 1.0
C      1  0.5066590000000  0.4526520000000  0.5763000000000 1.0
C      1  0.4111650000000  0.4697270000000  0.4509360000000 1.0
C      1  0.3965040000000  0.4628650000000  0.4958620000000 1.0
C      1  0.4155670000000  0.4651940000000  0.5585760000000 1.0
C      1  0.4658910000000  0.4539160000000  0.5927390000000 1.0
C      1  0.5109490000000  0.4634970000000  0.6032890000000 1.0
C      1  0.5736310000000  0.4658560000000  0.5707260000000 1.0
C      1  0.5961840000000  0.4636750000000  0.5306380000000 1.0
C      1  0.5935700000000  0.4646030000000  0.4642880000000 1.0
C      1  0.5712670000000  0.4658010000000  0.4214870000000 1.0
C      1  0.5070840000000  0.4683800000000  0.3981640000000 1.0
C      1  0.4595950000000  0.4647510000000  0.4053330000000 1.0
C      1  0.4575240000000  0.5179900000000  0.4976590000000 1.0
C      1  0.4650430000000  0.5078490000000  0.5219970000000 1.0
C      1  0.4789610000000  0.5234630000000  0.5419370000000 1.0
C      1  0.5054490000000  0.5232080000000  0.5448940000000 1.0
C      1  0.5228160000000  0.5079940000000  0.5298920000000 1.0
C      1  0.5416370000000  0.5228400000000  0.5145880000000 1.0
C      1  0.5414350000000  0.5255730000000  0.4868950000000 1.0
C      1  0.5274510000000  0.5075230000000  0.4714800000000 1.0
C      1  0.5069530000000  0.5091970000000  0.4525210000000 1.0
C      1  0.4809590000000  0.5214030000000  0.4583190000000 1.0
C      1  0.4675540000000  0.5037310000000  0.4769060000000 1.0
C      1  0.4302080000000  0.5407840000000  0.4613840000000 1.0
C      1  0.4409280000000  0.5388250000000  0.4889360000000 1.0
C      1  0.4333340000000  0.5400590000000  0.5458890000000 1.0
C      1  0.4672750000000  0.5341950000000  0.5665810000000 1.0
C      1  0.5103710000000  0.5348380000000  0.5748210000000 1.0
C      1  0.5581780000000  0.5416650000000  0.5703310000000 1.0
C      1  0.5690420000000  0.5318390000000  0.5234180000000 1.0
C      1  0.5677610000000  0.5313790000000  0.4779800000000 1.0
C      1  0.5435030000000  0.5322320000000  0.4380840000000 1.0
C      1  0.5165660000000  0.5277180000000  0.4297420000000 1.0
C      1  0.4668800000000  0.5315260000000  0.4359000000000 1.0
C      1  0.4652910000000  0.4803090000000  0.5230680000000 1.0
C      1  0.4748940000000  0.4698450000000  0.5473370000000 1.0
C      1  0.5024860000000  0.4680460000000  0.5513180000000 1.0
C      1  0.5231790000000  0.4800810000000  0.5334430000000 1.0
C      1  0.5448430000000  0.4667430000000  0.5189960000000 1.0
C      1  0.5496790000000  0.4689880000000  0.4923250000000 1.0
C      1  0.5326350000000  0.4804360000000  0.4714660000000 1.0
C      1  0.5112490000000  0.4750660000000  0.4503630000000 1.0
C      1  0.4842110000000  0.4652750000000  0.4534170000000 1.0
C      1  0.4676580000000  0.4755100000000  0.4755910000000 1.0
C      1  0.4624930000000  0.4634420000000  0.5010920000000 1.0
C      1  0.4304440000000  0.5601380000000  0.5658580000000 1.0
C      1  0.4856700000000  0.5502490000000  0.5800990000000 1.0
C      1  0.5327240000000  0.5532950000000  0.5764510000000 1.0
C      1  0.5760650000000  0.5606980000000  0.5581670000000 1.0
C      1  0.5829020000000  0.5510450000000  0.5101390000000 1.0
C      1  0.5790420000000  0.5526870000000  0.4637450000000 1.0
C      1  0.5508180000000  0.5561360000000  0.4263250000000 1.0
C      1  0.5001120000000  0.5488830000000  0.4171000000000 1.0
C      1  0.4608430000000  0.5576480000000  0.4265600000000 1.0
C      1  0.4106010000000  0.5617090000000  0.4605730000000 1.0
C      1  0.4159120000000  0.5438310000000  0.5030870000000 1.0
C      1  0.4061770000000  0.5050720000000  0.4739170000000 1.0
C      1  0.4069520000000  0.5026350000000  0.5271760000000 1.0
C      1  0.4355540000000  0.5024450000000  0.5738200000000 1.0
C      1  0.4852190000000  0.5006490000000  0.5952490000000 1.0
C      1  0.5385810000000  0.5008400000000  0.5870780000000 1.0
C      1  0.5816680000000  0.5029560000000  0.5521730000000 1.0
C      1  0.5953020000000  0.5023470000000  0.4992000000000 1.0
C      1  0.5812900000000  0.5053050000000  0.4455400000000 1.0
C      1  0.5421050000000  0.5029050000000  0.4076880000000 1.0
C      1  0.4861770000000  0.5038700000000  0.4026360000000 1.0
C      1  0.4374330000000  0.5032560000000  0.4275320000000 1.0
END
