TITL C-2441164-471-905 0.0552255192694591 125000 -23669.7198063099 0 0 162 (C1) n - 1
REM
REM in /home/bkarasulu/work/CARBON/AIRSS/Generating-Clusters/ReaxFF-fromJPCA2015/Units_Real/with-SteepDescent/Higher-Symm
REM
REM
REM
REM
REM
REM ./C.cell (1df0a924f5614ab8850e4351716899ee)
REM
REM compiler GCC version 9.2.1 20190827 (Red Hat 9.2.1-1)
REM options -cpp -mtune=generic -march=x86-64 -g -O0 -fpre-include=/usr/include/finclude/math-vector-fortran.h
REM seed -104551118 -482696877 -1358978461 -1082822566 -214454867 324671992 -399971168 -1217444369 341341495 -1494281438 -1223162552 -1340561016 1960955243 773123683 1359325797 81601675 -1907291965 -16356420 -1217545954 1160769999 928366456 489725123 1317141229 585411526 834302102 -103912415 2137892409 622613093 816981919 1475417853 -501383188 -1878725577 -1399829857
REM
CELL 1.54180   50.00000   50.00000   50.00000   90.00000   90.00000   90.00000
LATT -1
SFAC C  
C      1  0.5419260000000  0.5807420000000  0.5267600000000 1.0
C      1  0.5914110000000  0.4856140000000  0.5266680000000 1.0
C      1  0.5128940000000  0.4076390000000  0.5267910000000 1.0
C      1  0.4165670000000  0.4586150000000  0.5268300000000 1.0
C      1  0.4369610000000  0.5660380000000  0.5266850000000 1.0
C      1  0.5434290000000  0.5825050000000  0.4741140000000 1.0
C      1  0.5914300000000  0.4838330000000  0.4749100000000 1.0
C      1  0.5134030000000  0.4073500000000  0.4745880000000 1.0
C      1  0.4166150000000  0.4577860000000  0.4746090000000 1.0
C      1  0.4345060000000  0.5668730000000  0.4745170000000 1.0
C      1  0.5040700000000  0.5609890000000  0.4851070000000 1.0
C      1  0.5623470000000  0.5155230000000  0.4860590000000 1.0
C      1  0.5284850000000  0.4484860000000  0.4890990000000 1.0
C      1  0.4638080000000  0.4578970000000  0.4874430000000 1.0
C      1  0.4455530000000  0.5228950000000  0.4849290000000 1.0
C      1  0.5041970000000  0.5559620000000  0.5146510000000 1.0
C      1  0.5538280000000  0.5116850000000  0.5135220000000 1.0
C      1  0.5326150000000  0.4440770000000  0.5150670000000 1.0
C      1  0.4560530000000  0.4522640000000  0.5133420000000 1.0
C      1  0.4437150000000  0.5246450000000  0.5135230000000 1.0
C      1  0.4855770000000  0.4169470000000  0.5659500000000 1.0
C      1  0.4183620000000  0.4864940000000  0.5655570000000 1.0
C      1  0.4632270000000  0.5745940000000  0.5664290000000 1.0
C      1  0.5586670000000  0.5576200000000  0.5651750000000 1.0
C      1  0.5728230000000  0.4623200000000  0.5652630000000 1.0
C      1  0.4849370000000  0.4182740000000  0.4355000000000 1.0
C      1  0.4168650000000  0.4883480000000  0.4353250000000 1.0
C      1  0.4642610000000  0.5741670000000  0.4353890000000 1.0
C      1  0.5592090000000  0.5581510000000  0.4355100000000 1.0
C      1  0.5737280000000  0.4612470000000  0.4354710000000 1.0
C      1  0.5613580000000  0.4357310000000  0.4461910000000 1.0
C      1  0.4566880000000  0.4212230000000  0.4459740000000 1.0
C      1  0.4128260000000  0.5160150000000  0.4461520000000 1.0
C      1  0.4883740000000  0.5877650000000  0.4457820000000 1.0
C      1  0.5804390000000  0.5394620000000  0.4456820000000 1.0
C      1  0.5619300000000  0.4362370000000  0.5553880000000 1.0
C      1  0.4578250000000  0.4203630000000  0.5548730000000 1.0
C      1  0.4128810000000  0.5140040000000  0.5557100000000 1.0
C      1  0.4879670000000  0.5867850000000  0.5551700000000 1.0
C      1  0.5786270000000  0.5378550000000  0.5541870000000 1.0
C      1  0.4747130000000  0.4931720000000  0.5164030000000 1.0
C      1  0.4865200000000  0.5186310000000  0.5069300000000 1.0
C      1  0.5178390000000  0.5317480000000  0.5067810000000 1.0
C      1  0.5346110000000  0.4905690000000  0.5132360000000 1.0
C      1  0.4947380000000  0.4699170000000  0.5192140000000 1.0
C      1  0.4587010000000  0.4798190000000  0.4730450000000 1.0
C      1  0.4725950000000  0.5294080000000  0.4775970000000 1.0
C      1  0.5214370000000  0.5388730000000  0.4771680000000 1.0
C      1  0.5280050000000  0.4870690000000  0.4832630000000 1.0
C      1  0.5065900000000  0.4645630000000  0.4890080000000 1.0
C      1  0.4825940000000  0.4785250000000  0.5603310000000 1.0
C      1  0.4843720000000  0.5298840000000  0.5520180000000 1.0
C      1  0.5130590000000  0.5257220000000  0.5538500000000 1.0
C      1  0.5252660000000  0.5000940000000  0.5507320000000 1.0
C      1  0.5093320000000  0.4745520000000  0.5490160000000 1.0
C      1  0.4673150000000  0.4734440000000  0.4472560000000 1.0
C      1  0.4826400000000  0.5203970000000  0.4505610000000 1.0
C      1  0.5115970000000  0.5266340000000  0.4508640000000 1.0
C      1  0.5287430000000  0.5010280000000  0.4517760000000 1.0
C      1  0.5133320000000  0.4793570000000  0.4416790000000 1.0
C      1  0.5352290000000  0.4277550000000  0.5633640000000 1.0
C      1  0.4411340000000  0.4430000000000  0.5635010000000 1.0
C      1  0.4275830000000  0.5379050000000  0.5649070000000 1.0
C      1  0.5149580000000  0.5791270000000  0.5641220000000 1.0
C      1  0.5779240000000  0.5099250000000  0.5629870000000 1.0
C      1  0.5345430000000  0.4282010000000  0.4374630000000 1.0
C      1  0.4378820000000  0.4414240000000  0.4354680000000 1.0
C      1  0.4303900000000  0.5378750000000  0.4375620000000 1.0
C      1  0.5151420000000  0.5789530000000  0.4373770000000 1.0
C      1  0.5801620000000  0.5114190000000  0.4376120000000 1.0
C      1  0.5925320000000  0.5134190000000  0.4855730000000 1.0
C      1  0.5414470000000  0.4121650000000  0.4846210000000 1.0
C      1  0.4306940000000  0.4340180000000  0.4845310000000 1.0
C      1  0.4177680000000  0.5437310000000  0.4843340000000 1.0
C      1  0.5158470000000  0.5901510000000  0.4844810000000 1.0
C      1  0.5944830000000  0.5127630000000  0.5163390000000 1.0
C      1  0.5403710000000  0.4164570000000  0.5164670000000 1.0
C      1  0.4321130000000  0.4347340000000  0.5157710000000 1.0
C      1  0.4193430000000  0.5414680000000  0.5162670000000 1.0
C      1  0.5153010000000  0.5890100000000  0.5163790000000 1.0
C      1  0.4561080000000  0.5302440000000  0.4268300000000 1.0
C      1  0.5154940000000  0.5524460000000  0.4259130000000 1.0
C      1  0.5548880000000  0.5025580000000  0.4272750000000 1.0
C      1  0.5194690000000  0.4503220000000  0.4251910000000 1.0
C      1  0.4534750000000  0.4627310000000  0.4233670000000 1.0
C      1  0.4476330000000  0.5334190000000  0.5838130000000 1.0
C      1  0.5156730000000  0.5531590000000  0.5768800000000 1.0
C      1  0.5518950000000  0.5020460000000  0.5732280000000 1.0
C      1  0.5188570000000  0.4492250000000  0.5729560000000 1.0
C      1  0.4571480000000  0.4629280000000  0.5772690000000 1.0
C      1  0.5412370000000  0.5776050000000  0.5534300000000 1.0
C      1  0.5865310000000  0.4849620000000  0.5532510000000 1.0
C      1  0.5125740000000  0.4112850000000  0.5542030000000 1.0
C      1  0.4207660000000  0.4600830000000  0.5534740000000 1.0
C      1  0.4381030000000  0.5640680000000  0.5543830000000 1.0
C      1  0.5416940000000  0.5779730000000  0.4475920000000 1.0
C      1  0.5880000000000  0.4847450000000  0.4473260000000 1.0
C      1  0.5120340000000  0.4118750000000  0.4468150000000 1.0
C      1  0.4184180000000  0.4603360000000  0.4468090000000 1.0
C      1  0.4388390000000  0.5641440000000  0.4471060000000 1.0
C      1  0.4626510000000  0.5762210000000  0.5164850000000 1.0
C      1  0.5603020000000  0.5592610000000  0.5161010000000 1.0
C      1  0.5765850000000  0.4609370000000  0.5164840000000 1.0
C      1  0.4845800000000  0.4153540000000  0.5173570000000 1.0
C      1  0.4173690000000  0.4866300000000  0.5166530000000 1.0
C      1  0.4611710000000  0.5784330000000  0.4850310000000 1.0
C      1  0.5626780000000  0.5625250000000  0.4844310000000 1.0
C      1  0.5758170000000  0.4607230000000  0.4851420000000 1.0
C      1  0.4852790000000  0.4163780000000  0.4846000000000 1.0
C      1  0.4139410000000  0.4879890000000  0.4856660000000 1.0
C      1  0.4940740000000  0.4366710000000  0.5839010000000 1.0
C      1  0.4390890000000  0.4858660000000  0.5840650000000 1.0
C      1  0.4673500000000  0.5548720000000  0.5861650000000 1.0
C      1  0.5422850000000  0.5468900000000  0.5844250000000 1.0
C      1  0.5555090000000  0.4752640000000  0.5822420000000 1.0
C      1  0.4930020000000  0.4379340000000  0.4176750000000 1.0
C      1  0.4370420000000  0.4871880000000  0.4163550000000 1.0
C      1  0.4692230000000  0.5537770000000  0.4178690000000 1.0
C      1  0.5420100000000  0.5463770000000  0.4175060000000 1.0
C      1  0.5576910000000  0.4746020000000  0.4168610000000 1.0
C      1  0.4533160000000  0.4192240000000  0.4736920000000 1.0
C      1  0.4057850000000  0.5178820000000  0.4737850000000 1.0
C      1  0.4877060000000  0.5950840000000  0.4731730000000 1.0
C      1  0.5886040000000  0.5435030000000  0.4729040000000 1.0
C      1  0.5634860000000  0.4291120000000  0.4740000000000 1.0
C      1  0.4552530000000  0.4134870000000  0.5274510000000 1.0
C      1  0.4075710000000  0.5143950000000  0.5277860000000 1.0
C      1  0.4867120000000  0.5906660000000  0.5273380000000 1.0
C      1  0.5848800000000  0.5377670000000  0.5268490000000 1.0
C      1  0.5679430000000  0.4312550000000  0.5278790000000 1.0
C      1  0.4757710000000  0.5039110000000  0.3936260000000 1.0
C      1  0.4966150000000  0.5237190000000  0.3929520000000 1.0
C      1  0.5222960000000  0.5099960000000  0.3931250000000 1.0
C      1  0.5172370000000  0.4816810000000  0.3924480000000 1.0
C      1  0.4882920000000  0.4777890000000  0.3931330000000 1.0
C      1  0.4760340000000  0.5037790000000  0.6061720000000 1.0
C      1  0.4961540000000  0.5238140000000  0.6087850000000 1.0
C      1  0.5215460000000  0.5106160000000  0.6087740000000 1.0
C      1  0.5164820000000  0.4818540000000  0.6081860000000 1.0
C      1  0.4880550000000  0.4772730000000  0.6091560000000 1.0
C      1  0.4933770000000  0.5483060000000  0.5958050000000 1.0
C      1  0.5435510000000  0.5213470000000  0.5940340000000 1.0
C      1  0.5329350000000  0.4647260000000  0.5925640000000 1.0
C      1  0.4765550000000  0.4545540000000  0.5968940000000 1.0
C      1  0.4511910000000  0.5081210000000  0.5947370000000 1.0
C      1  0.4936730000000  0.5483110000000  0.4070230000000 1.0
C      1  0.5442290000000  0.5209570000000  0.4077240000000 1.0
C      1  0.5342620000000  0.4642840000000  0.4054210000000 1.0
C      1  0.4758380000000  0.4561520000000  0.4063070000000 1.0
C      1  0.4527810000000  0.5088620000000  0.4082240000000 1.0
C      1  0.5424300000000  0.5358600000000  0.5212610000000 1.0
C      1  0.5478680000000  0.4668230000000  0.5232730000000 1.0
C      1  0.4805540000000  0.4453100000000  0.5252240000000 1.0
C      1  0.4474620000000  0.4980460000000  0.5232630000000 1.0
C      1  0.4797170000000  0.5424520000000  0.5250990000000 1.0
C      1  0.5490180000000  0.5388900000000  0.4765470000000 1.0
C      1  0.5473620000000  0.4664550000000  0.4773130000000 1.0
C      1  0.4873790000000  0.4449550000000  0.4780620000000 1.0
C      1  0.4393630000000  0.4973050000000  0.4782470000000 1.0
C      1  0.4781680000000  0.5564600000000  0.4775360000000 1.0
C      1  0.4798540000000  0.5051500000000  0.5658240000000 1.0
C      1  0.4883140000000  0.4918180000000  0.4438410000000 1.0
END
