TITL C-2441158-471-194 0.0345496914327284 125000 -15487.9553452813 0 0 108 (C1) n - 1
REM
REM in /home/bkarasulu/work/CARBON/AIRSS/Generating-Clusters/ReaxFF-fromJPCA2015/Units_Real/with-SteepDescent/Higher-Symm
REM
REM
REM
REM
REM
REM ./C.cell (1df0a924f5614ab8850e4351716899ee)
REM
REM compiler GCC version 9.2.1 20190827 (Red Hat 9.2.1-1)
REM options -cpp -mtune=generic -march=x86-64 -g -O0 -fpre-include=/usr/include/finclude/math-vector-fortran.h
REM seed 819386680 415671424 580617128 -1814620812 -66850473 -377979598 -1262782865 1749245006 584948174 -864814040 -1886594685 -596431028 750931218 2071627744 572507496 -1784311614 1629384047 1249578653 -1246055638 1615534949 -1108402983 1235903552 1873728591 1142634641 105637144 -1517158444 1857820407 -1081024825 2060943752 -404547007 -172835299 1303395183 -1736622574
REM
CELL 1.54180   50.00000   50.00000   50.00000   90.00000   90.00000   90.00000
LATT -1
SFAC C  
C      1  0.4369270000000  0.4973730000000  0.4862790000000 1.0
C      1  0.4865780000000  0.4989140000000  0.5546510000000 1.0
C      1  0.5698250000000  0.4965550000000  0.5125440000000 1.0
C      1  0.5127720000000  0.4956620000000  0.4319620000000 1.0
C      1  0.4333520000000  0.5047920000000  0.5123430000000 1.0
C      1  0.4868730000000  0.5040800000000  0.4334580000000 1.0
C      1  0.5702760000000  0.5050860000000  0.4864540000000 1.0
C      1  0.5115190000000  0.5056810000000  0.5664490000000 1.0
C      1  0.5210110000000  0.4360230000000  0.5563380000000 1.0
C      1  0.5569680000000  0.4348780000000  0.4787830000000 1.0
C      1  0.4786220000000  0.4332330000000  0.4416600000000 1.0
C      1  0.4418720000000  0.4347240000000  0.5226120000000 1.0
C      1  0.5195280000000  0.5659890000000  0.4424860000000 1.0
C      1  0.5579980000000  0.5663420000000  0.5217250000000 1.0
C      1  0.4783070000000  0.5682840000000  0.5600670000000 1.0
C      1  0.4395840000000  0.5671550000000  0.4790330000000 1.0
C      1  0.5269180000000  0.5189000000000  0.4324200000000 1.0
C      1  0.4388070000000  0.5205340000000  0.4723010000000 1.0
C      1  0.4711300000000  0.5248690000000  0.5551860000000 1.0
C      1  0.5663190000000  0.5199850000000  0.5265460000000 1.0
C      1  0.5264740000000  0.4823800000000  0.5683750000000 1.0
C      1  0.4320870000000  0.4808160000000  0.5275170000000 1.0
C      1  0.4730030000000  0.4806390000000  0.4360200000000 1.0
C      1  0.5675900000000  0.4812830000000  0.4731080000000 1.0
C      1  0.4431450000000  0.4379170000000  0.5522390000000 1.0
C      1  0.5506790000000  0.4384760000000  0.5567880000000 1.0
C      1  0.5571310000000  0.4378090000000  0.4492080000000 1.0
C      1  0.4488100000000  0.4381940000000  0.4420400000000 1.0
C      1  0.4387950000000  0.5617050000000  0.4493540000000 1.0
C      1  0.5494370000000  0.5630860000000  0.4422800000000 1.0
C      1  0.5580080000000  0.5630950000000  0.5513980000000 1.0
C      1  0.4479190000000  0.5638270000000  0.5571240000000 1.0
C      1  0.5719730000000  0.4689210000000  0.5192140000000 1.0
C      1  0.5189400000000  0.4683290000000  0.4290520000000 1.0
C      1  0.4348900000000  0.4694760000000  0.4804830000000 1.0
C      1  0.4810340000000  0.4725520000000  0.5679500000000 1.0
C      1  0.5715110000000  0.5327830000000  0.4800010000000 1.0
C      1  0.5186780000000  0.5327910000000  0.5714380000000 1.0
C      1  0.4291870000000  0.5319280000000  0.5194400000000 1.0
C      1  0.4806980000000  0.5309610000000  0.4290060000000 1.0
C      1  0.4833870000000  0.4599600000000  0.4898660000000 1.0
C      1  0.4826030000000  0.4668770000000  0.5173460000000 1.0
C      1  0.5228250000000  0.4666450000000  0.5081320000000 1.0
C      1  0.5095580000000  0.4626850000000  0.4816730000000 1.0
C      1  0.4863020000000  0.5428810000000  0.5110260000000 1.0
C      1  0.4768850000000  0.5318570000000  0.4857110000000 1.0
C      1  0.5223750000000  0.5328980000000  0.4904680000000 1.0
C      1  0.5124540000000  0.5370520000000  0.5183040000000 1.0
C      1  0.4318400000000  0.5383750000000  0.5492210000000 1.0
C      1  0.5476270000000  0.5385090000000  0.5646140000000 1.0
C      1  0.5637540000000  0.5387070000000  0.4519460000000 1.0
C      1  0.4520490000000  0.5392100000000  0.4323140000000 1.0
C      1  0.4335370000000  0.4624430000000  0.4474420000000 1.0
C      1  0.5468900000000  0.4626440000000  0.4363480000000 1.0
C      1  0.5637290000000  0.4634150000000  0.5470140000000 1.0
C      1  0.4533510000000  0.4634160000000  0.5640720000000 1.0
C      1  0.4319560000000  0.5419140000000  0.4922070000000 1.0
C      1  0.4923040000000  0.5447700000000  0.5689630000000 1.0
C      1  0.5664520000000  0.5423370000000  0.5075090000000 1.0
C      1  0.5076120000000  0.5412210000000  0.4320250000000 1.0
C      1  0.4323870000000  0.4584690000000  0.5098830000000 1.0
C      1  0.4918080000000  0.4582240000000  0.4342990000000 1.0
C      1  0.5668390000000  0.4588810000000  0.4920020000000 1.0
C      1  0.5075480000000  0.4600540000000  0.5667790000000 1.0
C      1  0.4631760000000  0.5824200000000  0.4904560000000 1.0
C      1  0.4892860000000  0.5863820000000  0.5382320000000 1.0
C      1  0.5361310000000  0.5843490000000  0.5124440000000 1.0
C      1  0.5116500000000  0.5830050000000  0.4664520000000 1.0
C      1  0.4645350000000  0.4175340000000  0.5122230000000 1.0
C      1  0.4889170000000  0.4151550000000  0.4633690000000 1.0
C      1  0.5354400000000  0.4162360000000  0.4879500000000 1.0
C      1  0.5114710000000  0.4171150000000  0.5354360000000 1.0
C      1  0.5292150000000  0.4274170000000  0.4475780000000 1.0
C      1  0.4491180000000  0.4292920000000  0.4699300000000 1.0
C      1  0.4712720000000  0.4286280000000  0.5522580000000 1.0
C      1  0.5507650000000  0.4270960000000  0.5292760000000 1.0
C      1  0.5298020000000  0.5730870000000  0.5523880000000 1.0
C      1  0.4512570000000  0.5678990000000  0.5275700000000 1.0
C      1  0.4780470000000  0.5675530000000  0.4485840000000 1.0
C      1  0.5508780000000  0.5722870000000  0.4706720000000 1.0
C      1  0.5320570000000  0.4079850000000  0.5161630000000 1.0
C      1  0.5170450000000  0.4072250000000  0.4667810000000 1.0
C      1  0.4678610000000  0.4114720000000  0.4835660000000 1.0
C      1  0.4833160000000  0.4085430000000  0.5328380000000 1.0
C      1  0.5329880000000  0.5913520000000  0.4844080000000 1.0
C      1  0.5174210000000  0.5931070000000  0.5335580000000 1.0
C      1  0.4683370000000  0.5901160000000  0.5180080000000 1.0
C      1  0.4826890000000  0.5886050000000  0.4686450000000 1.0
C      1  0.5220420000000  0.5529240000000  0.5359940000000 1.0
C      1  0.5350480000000  0.5513310000000  0.4782140000000 1.0
C      1  0.4747540000000  0.5482130000000  0.4662420000000 1.0
C      1  0.4674170000000  0.5416580000000  0.5298330000000 1.0
C      1  0.5208180000000  0.4474360000000  0.4640910000000 1.0
C      1  0.5363830000000  0.4482850000000  0.5200140000000 1.0
C      1  0.4781750000000  0.4485310000000  0.5351680000000 1.0
C      1  0.4598140000000  0.4555120000000  0.4767210000000 1.0
C      1  0.5606340000000  0.4864460000000  0.4458930000000 1.0
C      1  0.4444420000000  0.4866800000000  0.4363210000000 1.0
C      1  0.4370920000000  0.4866950000000  0.5557660000000 1.0
C      1  0.5542360000000  0.4867150000000  0.5614360000000 1.0
C      1  0.5608600000000  0.5147660000000  0.5544540000000 1.0
C      1  0.4424700000000  0.5147250000000  0.5620240000000 1.0
C      1  0.4390720000000  0.5153500000000  0.4437070000000 1.0
C      1  0.5542740000000  0.5144180000000  0.4389580000000 1.0
C      1  0.4864330000000  0.5041200000000  0.4904020000000 1.0
C      1  0.5148760000000  0.5053160000000  0.4880280000000 1.0
C      1  0.4891590000000  0.4954950000000  0.5192740000000 1.0
C      1  0.5180840000000  0.4945420000000  0.5141780000000 1.0
END
