TITL C-2441159-1093-496 0.292681346533821 125000 -15955.2261764635 0 0 163 (C1) n - 1
REM
REM in /home/bkarasulu/work/CARBON/AIRSS/Generating-Clusters/ReaxFF-fromJPCA2015/Units_Real/with-SteepDescent/Higher-Symm
REM
REM
REM
REM
REM
REM ./C.cell (1df0a924f5614ab8850e4351716899ee)
REM
REM compiler GCC version 9.2.1 20190827 (Red Hat 9.2.1-1)
REM options -cpp -mtune=generic -march=x86-64 -g -O0 -fpre-include=/usr/include/finclude/math-vector-fortran.h
REM seed -515084596 -1704706234 686962042 1521950191 -1002847017 -1248409655 1242077467 1347743065 -2137721155 -1162653721 750321477 1392257899 -366695683 -32519463 -910779722 -507103773 -59141062 -1049709994 1626647939 -1707927638 -927783672 710208744 -393158222 -801580357 -1464749056 -994475563 -312861464 495085589 -264548115 1807676829 -1777576331 -206721142 -329176819
REM
CELL 1.54180   50.00000   50.00000   50.00000   90.00000   90.00000   90.00000
LATT -1
SFAC C  
C      1  0.5709340000000  0.5534480000000  0.5203770000000 1.0
C      1  0.5230500000000  0.5738880000000  0.5538640000000 1.0
C      1  0.5585070000000  0.5207540000000  0.5770180000000 1.0
C      1  0.4221120000000  0.4412630000000  0.5206460000000 1.0
C      1  0.4264620000000  0.5530370000000  0.4802900000000 1.0
C      1  0.5736670000000  0.4457720000000  0.4783690000000 1.0
C      1  0.4789970000000  0.4287400000000  0.5534930000000 1.0
C      1  0.4789890000000  0.5773160000000  0.4412210000000 1.0
C      1  0.5206560000000  0.4261740000000  0.4459580000000 1.0
C      1  0.4462150000000  0.4767320000000  0.5735120000000 1.0
C      1  0.4474080000000  0.5202150000000  0.4267200000000 1.0
C      1  0.5529600000000  0.4792350000000  0.4266050000000 1.0
C      1  0.5585880000000  0.5772900000000  0.5207190000000 1.0
C      1  0.5708980000000  0.5205570000000  0.5532880000000 1.0
C      1  0.5221200000000  0.5534150000000  0.5735400000000 1.0
C      1  0.4459530000000  0.4288510000000  0.5200850000000 1.0
C      1  0.5533520000000  0.4268410000000  0.4804140000000 1.0
C      1  0.4461480000000  0.5732270000000  0.4763930000000 1.0
C      1  0.4264440000000  0.4774400000000  0.5532690000000 1.0
C      1  0.5731440000000  0.4793720000000  0.4469100000000 1.0
C      1  0.4271100000000  0.5211960000000  0.4466380000000 1.0
C      1  0.4790180000000  0.4412480000000  0.5773690000000 1.0
C      1  0.5208240000000  0.4464990000000  0.4261880000000 1.0
C      1  0.4794000000000  0.5534320000000  0.4284880000000 1.0
C      1  0.5270120000000  0.3989080000000  0.5064140000000 1.0
C      1  0.5058890000000  0.5273920000000  0.4027900000000 1.0
C      1  0.4023200000000  0.5061790000000  0.5270030000000 1.0
C      1  0.4723110000000  0.6000720000000  0.5060730000000 1.0
C      1  0.4731880000000  0.4036140000000  0.4941740000000 1.0
C      1  0.5273120000000  0.5976470000000  0.4930760000000 1.0
C      1  0.4936230000000  0.4729110000000  0.3987740000000 1.0
C      1  0.4936320000000  0.5273330000000  0.6012360000000 1.0
C      1  0.5063670000000  0.4731820000000  0.5963330000000 1.0
C      1  0.5989530000000  0.4940060000000  0.5275750000000 1.0
C      1  0.6000700000000  0.5062750000000  0.4728820000000 1.0
C      1  0.3986510000000  0.4936470000000  0.4727640000000 1.0
C      1  0.3982020000000  0.5275890000000  0.5064190000000 1.0
C      1  0.5266660000000  0.5065550000000  0.3990680000000 1.0
C      1  0.5062690000000  0.4032390000000  0.5268140000000 1.0
C      1  0.5993200000000  0.4724830000000  0.5059400000000 1.0
C      1  0.4033490000000  0.4726330000000  0.4929630000000 1.0
C      1  0.5967750000000  0.5272200000000  0.4941030000000 1.0
C      1  0.4730900000000  0.4937050000000  0.4027640000000 1.0
C      1  0.5267190000000  0.4932260000000  0.6007610000000 1.0
C      1  0.4728460000000  0.5065100000000  0.5974670000000 1.0
C      1  0.4937600000000  0.5984660000000  0.5273880000000 1.0
C      1  0.5065090000000  0.6003860000000  0.4724960000000 1.0
C      1  0.4933680000000  0.3991140000000  0.4729970000000 1.0
C      1  0.4424690000000  0.4215880000000  0.4630340000000 1.0
C      1  0.4634670000000  0.4427220000000  0.4222710000000 1.0
C      1  0.4221400000000  0.4632290000000  0.4424030000000 1.0
C      1  0.5581040000000  0.5784720000000  0.4626390000000 1.0
C      1  0.5578180000000  0.4217230000000  0.5368870000000 1.0
C      1  0.4430210000000  0.5772130000000  0.5365090000000 1.0
C      1  0.5367870000000  0.5574630000000  0.4214330000000 1.0
C      1  0.5367400000000  0.4420190000000  0.5782730000000 1.0
C      1  0.4632990000000  0.5573120000000  0.5773540000000 1.0
C      1  0.5776560000000  0.5368510000000  0.4426610000000 1.0
C      1  0.5777700000000  0.4632010000000  0.5569230000000 1.0
C      1  0.4223390000000  0.5365090000000  0.5570670000000 1.0
C      1  0.4216510000000  0.4420310000000  0.4626020000000 1.0
C      1  0.4424670000000  0.4629860000000  0.4217700000000 1.0
C      1  0.4633790000000  0.4225730000000  0.4429620000000 1.0
C      1  0.5785080000000  0.5577660000000  0.4628830000000 1.0
C      1  0.4224030000000  0.5569440000000  0.5367300000000 1.0
C      1  0.5773680000000  0.4432330000000  0.5360630000000 1.0
C      1  0.5569890000000  0.5366110000000  0.4221880000000 1.0
C      1  0.4424820000000  0.5368250000000  0.5776140000000 1.0
C      1  0.5574580000000  0.4627920000000  0.5778130000000 1.0
C      1  0.5371300000000  0.5782420000000  0.4417790000000 1.0
C      1  0.4635030000000  0.5772530000000  0.5567720000000 1.0
C      1  0.5371490000000  0.4211110000000  0.5580330000000 1.0
C      1  0.5203160000000  0.5609590000000  0.4597050000000 1.0
C      1  0.4603370000000  0.5198900000000  0.5597490000000 1.0
C      1  0.5583390000000  0.4612540000000  0.5189380000000 1.0
C      1  0.4802120000000  0.4406040000000  0.4614760000000 1.0
C      1  0.4810980000000  0.5588270000000  0.5387290000000 1.0
C      1  0.5206670000000  0.4389440000000  0.5409540000000 1.0
C      1  0.5397260000000  0.4798710000000  0.5606670000000 1.0
C      1  0.5389610000000  0.5200140000000  0.4403730000000 1.0
C      1  0.4598760000000  0.4797600000000  0.4397450000000 1.0
C      1  0.4401770000000  0.5388450000000  0.5195680000000 1.0
C      1  0.4395010000000  0.4588020000000  0.4798900000000 1.0
C      1  0.5601090000000  0.5405480000000  0.4800510000000 1.0
C      1  0.5597120000000  0.5200790000000  0.4606440000000 1.0
C      1  0.5193380000000  0.4597220000000  0.5600620000000 1.0
C      1  0.4608120000000  0.5591380000000  0.5188350000000 1.0
C      1  0.4400640000000  0.4799120000000  0.4610150000000 1.0
C      1  0.5597190000000  0.4809570000000  0.5398700000000 1.0
C      1  0.4411840000000  0.5188240000000  0.5391100000000 1.0
C      1  0.4804050000000  0.5387480000000  0.5597150000000 1.0
C      1  0.5193150000000  0.5403760000000  0.4396620000000 1.0
C      1  0.4800190000000  0.4609300000000  0.4404100000000 1.0
C      1  0.5396150000000  0.4394650000000  0.5215270000000 1.0
C      1  0.4594990000000  0.4398270000000  0.4809090000000 1.0
C      1  0.5405400000000  0.5608050000000  0.4793950000000 1.0
C      1  0.5987500000000  0.5409970000000  0.5200380000000 1.0
C      1  0.5197120000000  0.5997000000000  0.5413340000000 1.0
C      1  0.5416510000000  0.5201150000000  0.5990570000000 1.0
C      1  0.4002620000000  0.4585610000000  0.5201660000000 1.0
C      1  0.3997360000000  0.5410700000000  0.4799720000000 1.0
C      1  0.5995730000000  0.4591780000000  0.4797790000000 1.0
C      1  0.4801450000000  0.4013100000000  0.5404710000000 1.0
C      1  0.4793760000000  0.5991400000000  0.4582760000000 1.0
C      1  0.5195960000000  0.4001530000000  0.4590010000000 1.0
C      1  0.4588060000000  0.4805860000000  0.5993590000000 1.0
C      1  0.4592430000000  0.5200080000000  0.3999110000000 1.0
C      1  0.5410150000000  0.4801420000000  0.3997740000000 1.0
C      1  0.5415150000000  0.5993040000000  0.5200510000000 1.0
C      1  0.5987500000000  0.5204020000000  0.5405040000000 1.0
C      1  0.5194700000000  0.5413030000000  0.5995010000000 1.0
C      1  0.4595250000000  0.4016920000000  0.5200720000000 1.0
C      1  0.5410580000000  0.4006040000000  0.4803110000000 1.0
C      1  0.4584100000000  0.5992730000000  0.4801440000000 1.0
C      1  0.4003910000000  0.4801210000000  0.5413420000000 1.0
C      1  0.6002760000000  0.4801740000000  0.4588760000000 1.0
C      1  0.4004180000000  0.5194630000000  0.4589340000000 1.0
C      1  0.4798390000000  0.4588230000000  0.5991120000000 1.0
C      1  0.5195660000000  0.4590340000000  0.4000730000000 1.0
C      1  0.4800310000000  0.5407430000000  0.4009000000000 1.0
C      1  0.4468720000000  0.5333150000000  0.4868840000000 1.0
C      1  0.4846430000000  0.4495840000000  0.5309690000000 1.0
C      1  0.5327290000000  0.4861050000000  0.4484830000000 1.0
C      1  0.5531590000000  0.4648220000000  0.4860040000000 1.0
C      1  0.5490250000000  0.5330180000000  0.5134240000000 1.0
C      1  0.4551270000000  0.4765000000000  0.5102480000000 1.0
C      1  0.5119910000000  0.5534980000000  0.5349240000000 1.0
C      1  0.5130400000000  0.4472200000000  0.4649310000000 1.0
C      1  0.4896630000000  0.5444540000000  0.4753770000000 1.0
C      1  0.4673730000000  0.5140690000000  0.4483130000000 1.0
C      1  0.4659880000000  0.4856980000000  0.5530110000000 1.0
C      1  0.5237810000000  0.5103260000000  0.5448810000000 1.0
C      1  0.5303810000000  0.4499110000000  0.4854670000000 1.0
C      1  0.4467480000000  0.4881120000000  0.5345500000000 1.0
C      1  0.4864990000000  0.5331650000000  0.4502530000000 1.0
C      1  0.4653790000000  0.5526610000000  0.4869240000000 1.0
C      1  0.5237750000000  0.5449070000000  0.5101980000000 1.0
C      1  0.4649100000000  0.4510500000000  0.5131180000000 1.0
C      1  0.5488800000000  0.5132080000000  0.5333260000000 1.0
C      1  0.4480920000000  0.5137690000000  0.4673820000000 1.0
C      1  0.5525100000000  0.4853610000000  0.4674210000000 1.0
C      1  0.5130910000000  0.4661410000000  0.4467250000000 1.0
C      1  0.4904670000000  0.4739660000000  0.5431450000000 1.0
C      1  0.5126440000000  0.5344080000000  0.5534450000000 1.0
C      1  0.5813330000000  0.5077660000000  0.5083460000000 1.0
C      1  0.5080670000000  0.5825860000000  0.5078270000000 1.0
C      1  0.5086150000000  0.5087500000000  0.5833620000000 1.0
C      1  0.4178100000000  0.4917920000000  0.5076070000000 1.0
C      1  0.4160210000000  0.5092350000000  0.4919780000000 1.0
C      1  0.5825340000000  0.4917150000000  0.4915190000000 1.0
C      1  0.4922000000000  0.4208120000000  0.5085130000000 1.0
C      1  0.4916200000000  0.5835510000000  0.4913410000000 1.0
C      1  0.5085780000000  0.4168480000000  0.4911810000000 1.0
C      1  0.4915800000000  0.4922820000000  0.5805340000000 1.0
C      1  0.4919230000000  0.5078680000000  0.4196100000000 1.0
C      1  0.5081630000000  0.4918210000000  0.4165650000000 1.0
C      1  0.4714960000000  0.4963540000000  0.4992330000000 1.0
C      1  0.5069050000000  0.4712600000000  0.4984840000000 1.0
C      1  0.4977150000000  0.4956140000000  0.4714660000000 1.0
C      1  0.5273030000000  0.4932730000000  0.4994380000000 1.0
C      1  0.5038350000000  0.5325810000000  0.4957990000000 1.0
C      1  0.5028240000000  0.4967270000000  0.5310490000000 1.0
C      1  0.4943030000000  0.5084420000000  0.5037840000000 1.0
END
