TITL C-2441158-471-1286 0.0265430531170806 125000 -17903.3941622342 0 0 129 (C1) n - 1
REM
REM in /home/bkarasulu/work/CARBON/AIRSS/Generating-Clusters/ReaxFF-fromJPCA2015/Units_Real/with-SteepDescent/Higher-Symm
REM
REM
REM
REM
REM
REM ./C.cell (1df0a924f5614ab8850e4351716899ee)
REM
REM compiler GCC version 9.2.1 20190827 (Red Hat 9.2.1-1)
REM options -cpp -mtune=generic -march=x86-64 -g -O0 -fpre-include=/usr/include/finclude/math-vector-fortran.h
REM seed -1357514576 1715587565 -1208914023 26956408 1849012682 -1364818587 1402666060 -778756476 -223093438 -218868377 98787571 -323405178 1470103406 1543233729 -408062082 238163065 93120997 1983532454 -1669569054 -1407622346 -453010576 1907731569 -1563653468 -874967112 -391297878 -981498248 -1894867840 1022726553 549860536 -588475336 2120919086 375180943 -823307563
REM
CELL 1.54180   50.00000   50.00000   50.00000   90.00000   90.00000   90.00000
LATT -1
SFAC C  
C      1  0.4718450000000  0.5414670000000  0.4859360000000 1.0
C      1  0.4948350000000  0.5524220000000  0.4996830000000 1.0
C      1  0.5243470000000  0.5493950000000  0.4952530000000 1.0
C      1  0.5430050000000  0.5270490000000  0.5020270000000 1.0
C      1  0.5517690000000  0.5003060000000  0.4893080000000 1.0
C      1  0.5453890000000  0.4724680000000  0.5016590000000 1.0
C      1  0.5231930000000  0.4526170000000  0.4905100000000 1.0
C      1  0.4945310000000  0.4471010000000  0.5003070000000 1.0
C      1  0.4676170000000  0.4588570000000  0.4883290000000 1.0
C      1  0.4498450000000  0.4832340000000  0.5000820000000 1.0
C      1  0.4506590000000  0.5170760000000  0.4969460000000 1.0
C      1  0.5406320000000  0.4767330000000  0.4476530000000 1.0
C      1  0.5260440000000  0.4555320000000  0.4605850000000 1.0
C      1  0.5018470000000  0.4466990000000  0.4484860000000 1.0
C      1  0.4727850000000  0.4596400000000  0.4590700000000 1.0
C      1  0.4518500000000  0.4782650000000  0.4472230000000 1.0
C      1  0.4465370000000  0.5064240000000  0.4516600000000 1.0
C      1  0.4586170000000  0.5335690000000  0.4454310000000 1.0
C      1  0.4817330000000  0.5438750000000  0.4595700000000 1.0
C      1  0.5131640000000  0.5461000000000  0.4550700000000 1.0
C      1  0.5386910000000  0.5349120000000  0.4554840000000 1.0
C      1  0.5461440000000  0.5064630000000  0.4614880000000 1.0
C      1  0.4644600000000  0.4318280000000  0.4489580000000 1.0
C      1  0.4284280000000  0.4605960000000  0.4516760000000 1.0
C      1  0.4179030000000  0.5050220000000  0.4535320000000 1.0
C      1  0.4288050000000  0.5527330000000  0.4505360000000 1.0
C      1  0.4851020000000  0.5747580000000  0.4444860000000 1.0
C      1  0.5157100000000  0.5745610000000  0.4456540000000 1.0
C      1  0.5642360000000  0.5543490000000  0.4508310000000 1.0
C      1  0.5726070000000  0.5062680000000  0.4434940000000 1.0
C      1  0.5688830000000  0.4678240000000  0.4447600000000 1.0
C      1  0.5471880000000  0.4330350000000  0.4531290000000 1.0
C      1  0.5082370000000  0.4168040000000  0.4521400000000 1.0
C      1  0.4537880000000  0.4758760000000  0.5285080000000 1.0
C      1  0.4514000000000  0.5182560000000  0.5262690000000 1.0
C      1  0.4658610000000  0.5379570000000  0.5375210000000 1.0
C      1  0.4905330000000  0.5438920000000  0.5264430000000 1.0
C      1  0.5173160000000  0.5463380000000  0.5340310000000 1.0
C      1  0.5389440000000  0.5281060000000  0.5305410000000 1.0
C      1  0.5492300000000  0.5058350000000  0.5444970000000 1.0
C      1  0.5438060000000  0.4785420000000  0.5319570000000 1.0
C      1  0.5280870000000  0.4581720000000  0.5460810000000 1.0
C      1  0.4977240000000  0.4506580000000  0.5301190000000 1.0
C      1  0.4705200000000  0.4562220000000  0.5373640000000 1.0
C      1  0.5664820000000  0.4672500000000  0.5527160000000 1.0
C      1  0.5526560000000  0.4404420000000  0.5510370000000 1.0
C      1  0.5009310000000  0.4290790000000  0.5499380000000 1.0
C      1  0.4597750000000  0.4354770000000  0.5555190000000 1.0
C      1  0.4350900000000  0.4691400000000  0.5493320000000 1.0
C      1  0.4318730000000  0.5094670000000  0.5460670000000 1.0
C      1  0.4436890000000  0.5485130000000  0.5557060000000 1.0
C      1  0.4767380000000  0.5730380000000  0.5554250000000 1.0
C      1  0.5211640000000  0.5700550000000  0.5517820000000 1.0
C      1  0.5586060000000  0.5451810000000  0.5514670000000 1.0
C      1  0.5767860000000  0.5201980000000  0.5481770000000 1.0
C      1  0.5805540000000  0.4454280000000  0.5163040000000 1.0
C      1  0.5364070000000  0.4115640000000  0.5188720000000 1.0
C      1  0.4828500000000  0.4066510000000  0.5189750000000 1.0
C      1  0.4359590000000  0.4313910000000  0.5173220000000 1.0
C      1  0.4064680000000  0.4759820000000  0.5189870000000 1.0
C      1  0.4096990000000  0.5303190000000  0.5192400000000 1.0
C      1  0.4411230000000  0.5729750000000  0.5188820000000 1.0
C      1  0.4899910000000  0.5960060000000  0.5215930000000 1.0
C      1  0.5435160000000  0.5857850000000  0.5203040000000 1.0
C      1  0.5850130000000  0.5528820000000  0.5155480000000 1.0
C      1  0.5944750000000  0.4965290000000  0.5168600000000 1.0
C      1  0.4073900000000  0.5031930000000  0.5316480000000 1.0
C      1  0.4249270000000  0.5527970000000  0.5325240000000 1.0
C      1  0.4647240000000  0.5859230000000  0.5338230000000 1.0
C      1  0.5173540000000  0.5919900000000  0.5330880000000 1.0
C      1  0.5640650000000  0.5673040000000  0.5311800000000 1.0
C      1  0.5942410000000  0.5249300000000  0.5265880000000 1.0
C      1  0.5868850000000  0.4708270000000  0.5301600000000 1.0
C      1  0.5612600000000  0.4250180000000  0.5287230000000 1.0
C      1  0.5096510000000  0.4077640000000  0.5325200000000 1.0
C      1  0.4581280000000  0.4179360000000  0.5320510000000 1.0
C      1  0.4192650000000  0.4521850000000  0.5313340000000 1.0
C      1  0.5394660000000  0.4734540000000  0.4174540000000 1.0
C      1  0.5121200000000  0.4677440000000  0.4089030000000 1.0
C      1  0.4908200000000  0.4486390000000  0.4203990000000 1.0
C      1  0.4706210000000  0.4658840000000  0.4119250000000 1.0
C      1  0.4551960000000  0.4876390000000  0.4087970000000 1.0
C      1  0.4597890000000  0.5131460000000  0.4095260000000 1.0
C      1  0.4685540000000  0.5385200000000  0.4171160000000 1.0
C      1  0.4949970000000  0.5507000000000  0.4173630000000 1.0
C      1  0.5186120000000  0.5369250000000  0.4140180000000 1.0
C      1  0.5394190000000  0.5196800000000  0.4135820000000 1.0
C      1  0.5572590000000  0.4973960000000  0.4174600000000 1.0
C      1  0.5472200000000  0.4812430000000  0.5756850000000 1.0
C      1  0.5257540000000  0.4616350000000  0.5760150000000 1.0
C      1  0.5001270000000  0.4461130000000  0.5740080000000 1.0
C      1  0.4713390000000  0.4522050000000  0.5769160000000 1.0
C      1  0.4516350000000  0.4743880000000  0.5732720000000 1.0
C      1  0.4472360000000  0.5040920000000  0.5715590000000 1.0
C      1  0.4558360000000  0.5316210000000  0.5763130000000 1.0
C      1  0.4807030000000  0.5519170000000  0.5735650000000 1.0
C      1  0.5111720000000  0.5536860000000  0.5745200000000 1.0
C      1  0.5365120000000  0.5379860000000  0.5734740000000 1.0
C      1  0.5454140000000  0.5099280000000  0.5758650000000 1.0
C      1  0.4453850000000  0.4382760000000  0.4906250000000 1.0
C      1  0.4203890000000  0.4784090000000  0.4936050000000 1.0
C      1  0.4220510000000  0.5265400000000  0.4926280000000 1.0
C      1  0.4506190000000  0.5646950000000  0.4922480000000 1.0
C      1  0.4902050000000  0.5854290000000  0.4942660000000 1.0
C      1  0.5372340000000  0.5757470000000  0.4918620000000 1.0
C      1  0.5702820000000  0.5395870000000  0.4947700000000 1.0
C      1  0.5836130000000  0.4986450000000  0.4889700000000 1.0
C      1  0.5686580000000  0.4549180000000  0.4919380000000 1.0
C      1  0.5321040000000  0.4234460000000  0.4929820000000 1.0
C      1  0.4865560000000  0.4184910000000  0.4928960000000 1.0
C      1  0.5332560000000  0.4113310000000  0.4663590000000 1.0
C      1  0.4821250000000  0.4129000000000  0.4642020000000 1.0
C      1  0.4382050000000  0.4348940000000  0.4624350000000 1.0
C      1  0.4110660000000  0.4787280000000  0.4659800000000 1.0
C      1  0.4116430000000  0.5302680000000  0.4659230000000 1.0
C      1  0.4318840000000  0.5714810000000  0.4753450000000 1.0
C      1  0.4852340000000  0.5897570000000  0.4681250000000 1.0
C      1  0.5329710000000  0.5893280000000  0.4662530000000 1.0
C      1  0.5775950000000  0.5549050000000  0.4753230000000 1.0
C      1  0.5922100000000  0.5027380000000  0.4637920000000 1.0
C      1  0.5714790000000  0.4463170000000  0.4635690000000 1.0
C      1  0.5006300000000  0.5002160000000  0.4407150000000 1.0
C      1  0.4987010000000  0.5007610000000  0.5931000000000 1.0
C      1  0.4988640000000  0.4997150000000  0.5424510000000 1.0
C      1  0.4994990000000  0.5003170000000  0.4658950000000 1.0
C      1  0.4991790000000  0.4993860000000  0.5167900000000 1.0
C      1  0.4986890000000  0.5003690000000  0.5684020000000 1.0
C      1  0.5039570000000  0.4978330000000  0.4101650000000 1.0
C      1  0.4993430000000  0.4998350000000  0.4912810000000 1.0
END
