TITL C-2441169-1362-994 0.0299130320141945 125000 -13409.3893265993 0 0 95 (C1) n - 1
REM
REM in /home/bkarasulu/work/CARBON/AIRSS/Generating-Clusters/ReaxFF-fromJPCA2015/Units_Real/with-SteepDescent/Higher-Symm
REM
REM
REM
REM
REM
REM ./C.cell (1df0a924f5614ab8850e4351716899ee)
REM
REM compiler GCC version 9.2.1 20190827 (Red Hat 9.2.1-1)
REM options -cpp -mtune=generic -march=x86-64 -g -O0 -fpre-include=/usr/include/finclude/math-vector-fortran.h
REM seed -2123031508 -1516407499 102211602 -1531927608 -167405835 -308202830 -389392991 1295383942 546795366 -1770034667 158057008 -1419935028 729744774 -1104184833 -1140030812 506939209 -966524618 766628139 72899176 309742716 -377391351 1742117169 1280577288 376525294 -1166059131 180891524 -389196949 1335566971 262018572 57803135 -805457917 -452463500 -1377514354
REM
CELL 1.54180   50.00000   50.00000   50.00000   90.00000   90.00000   90.00000
LATT -1
SFAC C  
C      1  0.5100710000000  0.5332430000000  0.4458410000000 1.0
C      1  0.4616150000000  0.5747030000000  0.5341820000000 1.0
C      1  0.4265370000000  0.5407770000000  0.4808090000000 1.0
C      1  0.4436540000000  0.4422140000000  0.5346710000000 1.0
C      1  0.5597270000000  0.4443380000000  0.4968150000000 1.0
C      1  0.5102300000000  0.4714160000000  0.5786350000000 1.0
C      1  0.4717790000000  0.5208790000000  0.4221480000000 1.0
C      1  0.5347580000000  0.4353920000000  0.4770200000000 1.0
C      1  0.4287320000000  0.4541000000000  0.4860870000000 1.0
C      1  0.5840940000000  0.5289850000000  0.5017040000000 1.0
C      1  0.4652340000000  0.5579520000000  0.5584050000000 1.0
C      1  0.5111710000000  0.5938890000000  0.4790350000000 1.0
C      1  0.4839800000000  0.4670100000000  0.5670700000000 1.0
C      1  0.5805850000000  0.4786960000000  0.4656710000000 1.0
C      1  0.4655380000000  0.5108340000000  0.5067030000000 1.0
C      1  0.5100180000000  0.5205250000000  0.5036410000000 1.0
C      1  0.4550400000000  0.4449410000000  0.4833110000000 1.0
C      1  0.4845770000000  0.5879860000000  0.5231090000000 1.0
C      1  0.4943790000000  0.5591390000000  0.4890020000000 1.0
C      1  0.4742620000000  0.4492860000000  0.4350210000000 1.0
C      1  0.4624920000000  0.4930690000000  0.4225780000000 1.0
C      1  0.4881170000000  0.5876030000000  0.4939830000000 1.0
C      1  0.4653550000000  0.4842980000000  0.5515400000000 1.0
C      1  0.5100880000000  0.4108490000000  0.5217010000000 1.0
C      1  0.5094520000000  0.4877480000000  0.4576990000000 1.0
C      1  0.5153600000000  0.4128620000000  0.4922790000000 1.0
C      1  0.5601770000000  0.5166630000000  0.4988530000000 1.0
C      1  0.4882030000000  0.4209100000000  0.5380980000000 1.0
C      1  0.5627940000000  0.5701520000000  0.4755720000000 1.0
C      1  0.4269430000000  0.4660750000000  0.4587480000000 1.0
C      1  0.5350400000000  0.5830610000000  0.4725030000000 1.0
C      1  0.5648350000000  0.5103440000000  0.5553920000000 1.0
C      1  0.4249330000000  0.4611030000000  0.5386690000000 1.0
C      1  0.4945000000000  0.5439550000000  0.5124510000000 1.0
C      1  0.5271590000000  0.4929420000000  0.5762040000000 1.0
C      1  0.5212280000000  0.4433180000000  0.4497780000000 1.0
C      1  0.5814160000000  0.4971080000000  0.5352520000000 1.0
C      1  0.4951510000000  0.4428550000000  0.5544030000000 1.0
C      1  0.5525250000000  0.4403010000000  0.5238870000000 1.0
C      1  0.4628370000000  0.4245460000000  0.5239410000000 1.0
C      1  0.4748010000000  0.4643690000000  0.4854590000000 1.0
C      1  0.5552040000000  0.4807570000000  0.4556690000000 1.0
C      1  0.4491820000000  0.5606170000000  0.5109440000000 1.0
C      1  0.5155660000000  0.4619680000000  0.5126190000000 1.0
C      1  0.5951160000000  0.5165550000000  0.5199330000000 1.0
C      1  0.4821340000000  0.4722060000000  0.4172090000000 1.0
C      1  0.4307320000000  0.4958210000000  0.4618710000000 1.0
C      1  0.4129920000000  0.4850650000000  0.5247950000000 1.0
C      1  0.4577500000000  0.4941320000000  0.4516370000000 1.0
C      1  0.4282480000000  0.4702230000000  0.5094410000000 1.0
C      1  0.5004530000000  0.5170540000000  0.4243330000000 1.0
C      1  0.4530690000000  0.5360700000000  0.4397380000000 1.0
C      1  0.4897860000000  0.5418970000000  0.4661470000000 1.0
C      1  0.5217240000000  0.4506730000000  0.5633610000000 1.0
C      1  0.5695320000000  0.5494260000000  0.4588800000000 1.0
C      1  0.4879810000000  0.5252530000000  0.5721380000000 1.0
C      1  0.5243720000000  0.4606940000000  0.4869280000000 1.0
C      1  0.4458330000000  0.5062640000000  0.5511330000000 1.0
C      1  0.4908590000000  0.5547110000000  0.5730350000000 1.0
C      1  0.4479960000000  0.4546640000000  0.4436680000000 1.0
C      1  0.4305090000000  0.5241430000000  0.4550680000000 1.0
C      1  0.5447230000000  0.5278600000000  0.5433040000000 1.0
C      1  0.5265260000000  0.4323580000000  0.5210050000000 1.0
C      1  0.5344290000000  0.4814560000000  0.5253170000000 1.0
C      1  0.5352770000000  0.5294010000000  0.4878010000000 1.0
C      1  0.4725100000000  0.4884260000000  0.5241920000000 1.0
C      1  0.4663630000000  0.4228460000000  0.4939950000000 1.0
C      1  0.5221800000000  0.5098970000000  0.5330950000000 1.0
C      1  0.4229800000000  0.5115780000000  0.5308600000000 1.0
C      1  0.4226660000000  0.5280090000000  0.5069250000000 1.0
C      1  0.5345190000000  0.5289190000000  0.4585690000000 1.0
C      1  0.5326780000000  0.4841930000000  0.4735800000000 1.0
C      1  0.4660540000000  0.5373390000000  0.5170630000000 1.0
C      1  0.5449440000000  0.4613260000000  0.5459080000000 1.0
C      1  0.5615240000000  0.4890780000000  0.5119600000000 1.0
C      1  0.5349170000000  0.5703660000000  0.5235210000000 1.0
C      1  0.5608620000000  0.5263720000000  0.4462710000000 1.0
C      1  0.5418750000000  0.5611270000000  0.4961290000000 1.0
C      1  0.5143010000000  0.5652680000000  0.5595540000000 1.0
C      1  0.4817410000000  0.4882310000000  0.4695190000000 1.0
C      1  0.4874570000000  0.4675570000000  0.5106770000000 1.0
C      1  0.5089780000000  0.5089490000000  0.5603170000000 1.0
C      1  0.5527750000000  0.4856380000000  0.5639890000000 1.0
C      1  0.5063270000000  0.5702050000000  0.5312820000000 1.0
C      1  0.5200180000000  0.4704870000000  0.4371500000000 1.0
C      1  0.4464040000000  0.5623390000000  0.4810720000000 1.0
C      1  0.5722540000000  0.4990840000000  0.4463520000000 1.0
C      1  0.5399650000000  0.5558080000000  0.5483300000000 1.0
C      1  0.4607490000000  0.5284870000000  0.5601200000000 1.0
C      1  0.4859990000000  0.5130770000000  0.4862200000000 1.0
C      1  0.4948340000000  0.4343300000000  0.4529360000000 1.0
C      1  0.5738290000000  0.4683040000000  0.4922440000000 1.0
C      1  0.4634820000000  0.5550750000000  0.4586170000000 1.0
C      1  0.4906450000000  0.4199910000000  0.4787790000000 1.0
C      1  0.5067890000000  0.4879880000000  0.4169300000000 1.0
END
