TITL C-2441161-5029-732 0.011896469829551 125000 -5404.100492585 0 0 42 (C1) n - 1
REM
REM in /home/bkarasulu/work/CARBON/AIRSS/Generating-Clusters/ReaxFF-fromJPCA2015/Units_Real/with-SteepDescent/Higher-Symm
REM
REM
REM
REM
REM
REM ./C.cell (1df0a924f5614ab8850e4351716899ee)
REM
REM compiler GCC version 9.2.1 20190827 (Red Hat 9.2.1-1)
REM options -cpp -mtune=generic -march=x86-64 -g -O0 -fpre-include=/usr/include/finclude/math-vector-fortran.h
REM seed -1913676958 1999647016 1255025885 -2088546623 -100391625 -909283266 -113162144 1901619455 -104443356 -1800428161 832811391 -404872025 1005603660 -690532782 1330006797 -1211908201 -1658697978 -336996348 -958057448 -1528650852 1676339563 1430768605 271254872 205469287 24548911 1136509594 1369872209 904073478 -1311815151 1921521242 -1129220777 -63048974 315530242
REM
CELL 1.54180   50.00000   50.00000   50.00000   90.00000   90.00000   90.00000
LATT -1
SFAC C  
C      1  0.5169560000000  0.4810920000000  0.5574160000000 1.0
C      1  0.5276490000000  0.4687440000000  0.4530600000000 1.0
C      1  0.4887780000000  0.5041770000000  0.5394260000000 1.0
C      1  0.5014580000000  0.5229970000000  0.4600760000000 1.0
C      1  0.5297220000000  0.4472550000000  0.5018810000000 1.0
C      1  0.5269060000000  0.4887720000000  0.4976860000000 1.0
C      1  0.4936200000000  0.4419300000000  0.4682510000000 1.0
C      1  0.4937760000000  0.5534830000000  0.5403230000000 1.0
C      1  0.4760330000000  0.4648860000000  0.4669940000000 1.0
C      1  0.4965210000000  0.5474370000000  0.5121280000000 1.0
C      1  0.5440480000000  0.4771190000000  0.5455490000000 1.0
C      1  0.5437220000000  0.4586510000000  0.5234300000000 1.0
C      1  0.5518610000000  0.5047720000000  0.5379630000000 1.0
C      1  0.5444650000000  0.4826380000000  0.4751300000000 1.0
C      1  0.5012470000000  0.5174980000000  0.5158620000000 1.0
C      1  0.4858850000000  0.4987160000000  0.4730820000000 1.0
C      1  0.4813010000000  0.5071050000000  0.4983570000000 1.0
C      1  0.4961320000000  0.4753010000000  0.5361470000000 1.0
C      1  0.4448230000000  0.5336660000000  0.5037180000000 1.0
C      1  0.5382400000000  0.5295620000000  0.5406200000000 1.0
C      1  0.4655050000000  0.5500070000000  0.5389040000000 1.0
C      1  0.4817580000000  0.4536530000000  0.4928010000000 1.0
C      1  0.4605250000000  0.4865780000000  0.5032820000000 1.0
C      1  0.4618420000000  0.5006540000000  0.4545340000000 1.0
C      1  0.5051790000000  0.4798990000000  0.4388280000000 1.0
C      1  0.4441470000000  0.5418230000000  0.5288750000000 1.0
C      1  0.4836470000000  0.5458910000000  0.4640190000000 1.0
C      1  0.5364370000000  0.5235470000000  0.4412990000000 1.0
C      1  0.5681850000000  0.5000470000000  0.4771550000000 1.0
C      1  0.5140510000000  0.5358220000000  0.5546950000000 1.0
C      1  0.5224170000000  0.4468380000000  0.4714130000000 1.0
C      1  0.4435160000000  0.4804280000000  0.5401810000000 1.0
C      1  0.4634530000000  0.4695580000000  0.5283340000000 1.0
C      1  0.5069310000000  0.4681340000000  0.5065700000000 1.0
C      1  0.5602840000000  0.5213720000000  0.4739620000000 1.0
C      1  0.4443730000000  0.4927300000000  0.4786340000000 1.0
C      1  0.4264000000000  0.5130300000000  0.4898290000000 1.0
C      1  0.5060430000000  0.5083940000000  0.5620590000000 1.0
C      1  0.5358240000000  0.5121940000000  0.5132190000000 1.0
C      1  0.4739290000000  0.5432150000000  0.4932000000000 1.0
C      1  0.5325090000000  0.5312920000000  0.4661380000000 1.0
C      1  0.4799010000000  0.4890920000000  0.4349670000000 1.0
END
