TITL C-2441164-471-824 0.0301884745839548 125000 -14857.5329304461 0 0 108 (C1) n - 1
REM
REM in /home/bkarasulu/work/CARBON/AIRSS/Generating-Clusters/ReaxFF-fromJPCA2015/Units_Real/with-SteepDescent/Higher-Symm
REM
REM
REM
REM
REM
REM ./C.cell (1df0a924f5614ab8850e4351716899ee)
REM
REM compiler GCC version 9.2.1 20190827 (Red Hat 9.2.1-1)
REM options -cpp -mtune=generic -march=x86-64 -g -O0 -fpre-include=/usr/include/finclude/math-vector-fortran.h
REM seed -1322561937 -1917868053 587781289 -786439282 -524976564 -2045787581 -540697662 526624683 -115043189 -1233599207 -1749633628 -1325559846 -1064993619 370151739 162315151 870888331 -726694870 -460986395 149191921 -418246622 743075052 31335725 -1930697494 1416204496 367029868 2113723826 1868612873 1798632289 -154802441 -817854046 1616703513 470583470 -2006095093
REM
CELL 1.54180   50.00000   50.00000   50.00000   90.00000   90.00000   90.00000
LATT -1
SFAC C  
C      1  0.5075120000000  0.5129480000000  0.4428650000000 1.0
C      1  0.4932190000000  0.4877390000000  0.4433910000000 1.0
C      1  0.5067460000000  0.5126990000000  0.5564850000000 1.0
C      1  0.4922450000000  0.4883890000000  0.5568330000000 1.0
C      1  0.4834100000000  0.4210610000000  0.4660400000000 1.0
C      1  0.5173360000000  0.5856170000000  0.4640030000000 1.0
C      1  0.4843450000000  0.4166830000000  0.5348790000000 1.0
C      1  0.5174940000000  0.5852690000000  0.5356920000000 1.0
C      1  0.5837550000000  0.5200830000000  0.5359540000000 1.0
C      1  0.4175430000000  0.4761140000000  0.5346460000000 1.0
C      1  0.5843220000000  0.5223610000000  0.4629790000000 1.0
C      1  0.4172770000000  0.4747820000000  0.4664350000000 1.0
C      1  0.5160290000000  0.5377250000000  0.4852280000000 1.0
C      1  0.4865670000000  0.4675870000000  0.4827430000000 1.0
C      1  0.5156620000000  0.5367980000000  0.5154550000000 1.0
C      1  0.4855850000000  0.4621010000000  0.5118380000000 1.0
C      1  0.5706880000000  0.4753750000000  0.5460910000000 1.0
C      1  0.4293510000000  0.5265450000000  0.5409460000000 1.0
C      1  0.5712220000000  0.4749920000000  0.4564470000000 1.0
C      1  0.4308500000000  0.5241040000000  0.4607930000000 1.0
C      1  0.4611390000000  0.4801050000000  0.4831390000000 1.0
C      1  0.5438560000000  0.5258650000000  0.4853280000000 1.0
C      1  0.4555730000000  0.4720670000000  0.5093920000000 1.0
C      1  0.5435990000000  0.5252750000000  0.5150090000000 1.0
C      1  0.5015300000000  0.5691520000000  0.4833670000000 1.0
C      1  0.5039300000000  0.4219900000000  0.4842090000000 1.0
C      1  0.5017740000000  0.5686090000000  0.5164350000000 1.0
C      1  0.5006410000000  0.4310240000000  0.5143450000000 1.0
C      1  0.5632220000000  0.5674860000000  0.5348320000000 1.0
C      1  0.4383700000000  0.4326370000000  0.5341110000000 1.0
C      1  0.5630010000000  0.5682470000000  0.4648580000000 1.0
C      1  0.4366610000000  0.4322690000000  0.4672510000000 1.0
C      1  0.5562700000000  0.4610340000000  0.4345310000000 1.0
C      1  0.4434070000000  0.5370440000000  0.4378600000000 1.0
C      1  0.5556120000000  0.4615460000000  0.5670620000000 1.0
C      1  0.4426540000000  0.5394300000000  0.5638720000000 1.0
C      1  0.5487140000000  0.4557800000000  0.5134080000000 1.0
C      1  0.4565920000000  0.5489890000000  0.5147910000000 1.0
C      1  0.5423230000000  0.4530890000000  0.4854540000000 1.0
C      1  0.4574130000000  0.5491640000000  0.4864240000000 1.0
C      1  0.5402980000000  0.5729950000000  0.5524570000000 1.0
C      1  0.4614050000000  0.4276090000000  0.5519190000000 1.0
C      1  0.5401050000000  0.5733290000000  0.4471900000000 1.0
C      1  0.4616600000000  0.4282510000000  0.4491290000000 1.0
C      1  0.4484220000000  0.4993610000000  0.4576150000000 1.0
C      1  0.5508630000000  0.4984230000000  0.4558060000000 1.0
C      1  0.4465100000000  0.5030980000000  0.5461280000000 1.0
C      1  0.5497990000000  0.4977490000000  0.5444290000000 1.0
C      1  0.5381440000000  0.4844570000000  0.4319740000000 1.0
C      1  0.4615520000000  0.5144630000000  0.4345540000000 1.0
C      1  0.5369080000000  0.4842210000000  0.5690260000000 1.0
C      1  0.4591590000000  0.5158950000000  0.5694300000000 1.0
C      1  0.4328100000000  0.4801480000000  0.5593190000000 1.0
C      1  0.5662210000000  0.5172590000000  0.5597840000000 1.0
C      1  0.4327720000000  0.4796010000000  0.4409990000000 1.0
C      1  0.5664790000000  0.5179910000000  0.4397580000000 1.0
C      1  0.4486410000000  0.4179650000000  0.5138470000000 1.0
C      1  0.5515840000000  0.5807410000000  0.5131080000000 1.0
C      1  0.4491690000000  0.4172050000000  0.4869040000000 1.0
C      1  0.5512230000000  0.5810580000000  0.4866980000000 1.0
C      1  0.5847510000000  0.4751780000000  0.4811920000000 1.0
C      1  0.4145430000000  0.5251720000000  0.4846440000000 1.0
C      1  0.5791370000000  0.4705210000000  0.5189430000000 1.0
C      1  0.4143570000000  0.5259670000000  0.5163470000000 1.0
C      1  0.5298450000000  0.5498310000000  0.5681720000000 1.0
C      1  0.4711830000000  0.4507280000000  0.5685770000000 1.0
C      1  0.5299250000000  0.5500740000000  0.4313480000000 1.0
C      1  0.4704480000000  0.4504450000000  0.4310740000000 1.0
C      1  0.4835950000000  0.5604960000000  0.4450570000000 1.0
C      1  0.5162010000000  0.4394790000000  0.4458000000000 1.0
C      1  0.4839210000000  0.5607260000000  0.5544580000000 1.0
C      1  0.5167270000000  0.4419880000000  0.5521430000000 1.0
C      1  0.4973170000000  0.4602440000000  0.5608040000000 1.0
C      1  0.5030750000000  0.5415630000000  0.5606420000000 1.0
C      1  0.4969770000000  0.4593720000000  0.4379370000000 1.0
C      1  0.5033510000000  0.5416910000000  0.4391760000000 1.0
C      1  0.5878580000000  0.4984350000000  0.5148870000000 1.0
C      1  0.4085000000000  0.4974000000000  0.5160140000000 1.0
C      1  0.5910330000000  0.5018440000000  0.4850040000000 1.0
C      1  0.4088720000000  0.4970680000000  0.4860340000000 1.0
C      1  0.4788280000000  0.4968580000000  0.5808450000000 1.0
C      1  0.5197860000000  0.5046920000000  0.5813880000000 1.0
C      1  0.4793530000000  0.4963290000000  0.4197240000000 1.0
C      1  0.5203900000000  0.5039420000000  0.4184860000000 1.0
C      1  0.5426990000000  0.5252710000000  0.4232460000000 1.0
C      1  0.4561960000000  0.4746260000000  0.4243020000000 1.0
C      1  0.5427670000000  0.5251820000000  0.5763480000000 1.0
C      1  0.4570920000000  0.4748260000000  0.5756270000000 1.0
C      1  0.5676960000000  0.5403950000000  0.5234730000000 1.0
C      1  0.4292090000000  0.4562660000000  0.5155000000000 1.0
C      1  0.5676170000000  0.5412600000000  0.4765570000000 1.0
C      1  0.4229130000000  0.4523740000000  0.4825010000000 1.0
C      1  0.4959750000000  0.5128510000000  0.5153590000000 1.0
C      1  0.5036660000000  0.4842750000000  0.5208610000000 1.0
C      1  0.4962380000000  0.5148580000000  0.4849470000000 1.0
C      1  0.5053860000000  0.4884390000000  0.4762210000000 1.0
C      1  0.5306150000000  0.4303410000000  0.4718660000000 1.0
C      1  0.4701870000000  0.5697360000000  0.4686990000000 1.0
C      1  0.5320910000000  0.4346780000000  0.5292930000000 1.0
C      1  0.4703360000000  0.5691310000000  0.5307320000000 1.0
C      1  0.5431910000000  0.4368210000000  0.4415940000000 1.0
C      1  0.4571200000000  0.5621860000000  0.4422460000000 1.0
C      1  0.5427470000000  0.4375320000000  0.5572350000000 1.0
C      1  0.4577300000000  0.5634380000000  0.5581600000000 1.0
C      1  0.4654020000000  0.5207350000000  0.5155290000000 1.0
C      1  0.5321100000000  0.4808070000000  0.5140900000000 1.0
C      1  0.4678930000000  0.5225350000000  0.4865020000000 1.0
C      1  0.5319880000000  0.4797980000000  0.4849200000000 1.0
END
