TITL C-2441156-4686-1366 0.0797624439461267 125000 -16257.3890686131 0 0 123 (C1) n - 1
REM
REM in /home/bkarasulu/work/CARBON/AIRSS/Generating-Clusters/ReaxFF-fromJPCA2015/Units_Real/with-SteepDescent/Higher-Symm
REM
REM
REM
REM
REM
REM ./C.cell (1df0a924f5614ab8850e4351716899ee)
REM
REM compiler GCC version 9.2.1 20190827 (Red Hat 9.2.1-1)
REM options -cpp -mtune=generic -march=x86-64 -g -O0 -fpre-include=/usr/include/finclude/math-vector-fortran.h
REM seed -1738019851 379199715 2034737648 -1629101185 1920042264 -1673991459 226163823 -930553212 -1703505399 -619479354 -1808314711 -1681992088 1797920010 -376328694 1574026360 1357905694 619785940 1686916575 1330778288 504123001 -1201047401 -2028583267 1009735236 -888541201 166720005 -2122865444 1085835097 159673281 -997095303 1700359224 -1905018313 401987971 1856422210
REM
CELL 1.54180   50.00000   50.00000   50.00000   90.00000   90.00000   90.00000
LATT -1
SFAC C  
C      1  0.4973160000000  0.4148310000000  0.5511660000000 1.0
C      1  0.4676270000000  0.4320590000000  0.4597200000000 1.0
C      1  0.4890340000000  0.5518930000000  0.5262740000000 1.0
C      1  0.5226970000000  0.4108760000000  0.5363380000000 1.0
C      1  0.4893020000000  0.4560750000000  0.5324090000000 1.0
C      1  0.5469050000000  0.4188240000000  0.4916210000000 1.0
C      1  0.4532830000000  0.5616620000000  0.4512550000000 1.0
C      1  0.4552690000000  0.5598110000000  0.5540450000000 1.0
C      1  0.4378000000000  0.4625710000000  0.5393370000000 1.0
C      1  0.5179560000000  0.4597040000000  0.5294470000000 1.0
C      1  0.4102000000000  0.4753850000000  0.5123290000000 1.0
C      1  0.4122880000000  0.5180780000000  0.4780400000000 1.0
C      1  0.5251840000000  0.5865330000000  0.4621030000000 1.0
C      1  0.4668760000000  0.4608240000000  0.4670510000000 1.0
C      1  0.4979840000000  0.5554350000000  0.4308800000000 1.0
C      1  0.5267900000000  0.4923280000000  0.4288780000000 1.0
C      1  0.4991690000000  0.4934470000000  0.4295050000000 1.0
C      1  0.4762890000000  0.4603090000000  0.5085860000000 1.0
C      1  0.5590060000000  0.4417170000000  0.5439600000000 1.0
C      1  0.5896820000000  0.4932120000000  0.5338360000000 1.0
C      1  0.5782590000000  0.4948840000000  0.4514940000000 1.0
C      1  0.4713220000000  0.5132510000000  0.4681340000000 1.0
C      1  0.4267600000000  0.5177050000000  0.4524520000000 1.0
C      1  0.4785930000000  0.5740380000000  0.4445230000000 1.0
C      1  0.5593700000000  0.4903760000000  0.4924530000000 1.0
C      1  0.4830080000000  0.4789570000000  0.4114130000000 1.0
C      1  0.5146990000000  0.4133840000000  0.4639210000000 1.0
C      1  0.4632420000000  0.5037980000000  0.5791760000000 1.0
C      1  0.4459010000000  0.5363140000000  0.4390340000000 1.0
C      1  0.5022280000000  0.4959030000000  0.5417650000000 1.0
C      1  0.5709060000000  0.5524470000000  0.5059270000000 1.0
C      1  0.4969860000000  0.4473900000000  0.4342740000000 1.0
C      1  0.5332150000000  0.4361560000000  0.5373000000000 1.0
C      1  0.5623700000000  0.5323430000000  0.5557090000000 1.0
C      1  0.5398690000000  0.5501990000000  0.4707760000000 1.0
C      1  0.4565810000000  0.4189270000000  0.4846700000000 1.0
C      1  0.4282910000000  0.4891890000000  0.4462520000000 1.0
C      1  0.4599550000000  0.4961390000000  0.4142470000000 1.0
C      1  0.4890130000000  0.5886130000000  0.4921280000000 1.0
C      1  0.4652410000000  0.5242260000000  0.4195370000000 1.0
C      1  0.4426060000000  0.4592030000000  0.4818240000000 1.0
C      1  0.4799290000000  0.5268760000000  0.5770690000000 1.0
C      1  0.5912130000000  0.5168080000000  0.5227030000000 1.0
C      1  0.4091180000000  0.5386680000000  0.4997920000000 1.0
C      1  0.5337920000000  0.5355150000000  0.5177830000000 1.0
C      1  0.5100230000000  0.5374970000000  0.4511920000000 1.0
C      1  0.5678480000000  0.4546220000000  0.5198880000000 1.0
C      1  0.5429750000000  0.5503770000000  0.5641470000000 1.0
C      1  0.5236960000000  0.5286110000000  0.4108490000000 1.0
C      1  0.4110890000000  0.4760770000000  0.5401870000000 1.0
C      1  0.5533340000000  0.4827670000000  0.4636920000000 1.0
C      1  0.4626350000000  0.5819980000000  0.5026660000000 1.0
C      1  0.5037940000000  0.5458850000000  0.5473450000000 1.0
C      1  0.4227890000000  0.5640730000000  0.4986380000000 1.0
C      1  0.4511730000000  0.5327130000000  0.5113470000000 1.0
C      1  0.4172060000000  0.5045620000000  0.5466710000000 1.0
C      1  0.5407220000000  0.5480970000000  0.4242060000000 1.0
C      1  0.5019160000000  0.5912520000000  0.5173090000000 1.0
C      1  0.5225260000000  0.4602990000000  0.5000550000000 1.0
C      1  0.4405520000000  0.5070340000000  0.5060170000000 1.0
C      1  0.4811690000000  0.4815180000000  0.5882410000000 1.0
C      1  0.5210230000000  0.5046230000000  0.4932750000000 1.0
C      1  0.4459530000000  0.4747460000000  0.4282490000000 1.0
C      1  0.5262030000000  0.5332600000000  0.5813160000000 1.0
C      1  0.5658280000000  0.5389210000000  0.4808360000000 1.0
C      1  0.4676230000000  0.5718620000000  0.5301980000000 1.0
C      1  0.4438220000000  0.5107440000000  0.5572570000000 1.0
C      1  0.5132160000000  0.5838000000000  0.5421860000000 1.0
C      1  0.4680510000000  0.4887510000000  0.5064020000000 1.0
C      1  0.4877220000000  0.5055260000000  0.5195890000000 1.0
C      1  0.5098430000000  0.4841640000000  0.4757520000000 1.0
C      1  0.4792960000000  0.4085770000000  0.5300840000000 1.0
C      1  0.5536130000000  0.4825260000000  0.5559200000000 1.0
C      1  0.4815490000000  0.4774090000000  0.5492220000000 1.0
C      1  0.4961180000000  0.4477710000000  0.4921270000000 1.0
C      1  0.5353030000000  0.5739930000000  0.4864870000000 1.0
C      1  0.5790250000000  0.5228390000000  0.4611250000000 1.0
C      1  0.4428930000000  0.4365870000000  0.5303770000000 1.0
C      1  0.4737620000000  0.4544040000000  0.5733820000000 1.0
C      1  0.5650830000000  0.4818870000000  0.5317050000000 1.0
C      1  0.5420030000000  0.5071250000000  0.5130130000000 1.0
C      1  0.5688050000000  0.5044570000000  0.4251580000000 1.0
C      1  0.5548430000000  0.5062940000000  0.5691470000000 1.0
C      1  0.4962290000000  0.5881350000000  0.4628460000000 1.0
C      1  0.5573510000000  0.5267070000000  0.4408100000000 1.0
C      1  0.5254810000000  0.4072750000000  0.5081280000000 1.0
C      1  0.4927460000000  0.4215350000000  0.4472250000000 1.0
C      1  0.5417700000000  0.4247980000000  0.4627040000000 1.0
C      1  0.5154090000000  0.4619180000000  0.4530830000000 1.0
C      1  0.4763270000000  0.5552960000000  0.5739080000000 1.0
C      1  0.5356080000000  0.5063830000000  0.4531240000000 1.0
C      1  0.5508810000000  0.4471950000000  0.4976560000000 1.0
C      1  0.5431060000000  0.5059070000000  0.4102250000000 1.0
C      1  0.5311030000000  0.5053290000000  0.5864140000000 1.0
C      1  0.4899210000000  0.5324170000000  0.5064370000000 1.0
C      1  0.5365030000000  0.5637290000000  0.5362860000000 1.0
C      1  0.4420950000000  0.4372090000000  0.5011400000000 1.0
C      1  0.5510000000000  0.5730170000000  0.5112160000000 1.0
C      1  0.4926510000000  0.5340380000000  0.4119480000000 1.0
C      1  0.4701290000000  0.4562560000000  0.4254650000000 1.0
C      1  0.4158780000000  0.5149750000000  0.5190220000000 1.0
C      1  0.5014290000000  0.5684250000000  0.5650830000000 1.0
C      1  0.5393790000000  0.5669840000000  0.4460480000000 1.0
C      1  0.5490990000000  0.4566740000000  0.5672550000000 1.0
C      1  0.4495990000000  0.5346610000000  0.5408580000000 1.0
C      1  0.5417610000000  0.4528490000000  0.4541890000000 1.0
C      1  0.5772440000000  0.5388580000000  0.5308660000000 1.0
C      1  0.4738670000000  0.4045420000000  0.5033140000000 1.0
C      1  0.5158590000000  0.5318520000000  0.4953170000000 1.0
C      1  0.5849330000000  0.4830960000000  0.4891600000000 1.0
C      1  0.4922830000000  0.5143860000000  0.4488280000000 1.0
C      1  0.4497390000000  0.4454640000000  0.5569790000000 1.0
C      1  0.4071170000000  0.4891350000000  0.4878030000000 1.0
C      1  0.5018560000000  0.4159820000000  0.4919060000000 1.0
C      1  0.4790460000000  0.4868620000000  0.4766420000000 1.0
C      1  0.5201080000000  0.4563370000000  0.5770740000000 1.0
C      1  0.6026410000000  0.4933250000000  0.5083840000000 1.0
C      1  0.5043460000000  0.5215220000000  0.5607490000000 1.0
C      1  0.4672380000000  0.5349330000000  0.4875080000000 1.0
C      1  0.4212250000000  0.4729770000000  0.4689460000000 1.0
C      1  0.5109850000000  0.4823410000000  0.5870580000000 1.0
C      1  0.4493300000000  0.5640100000000  0.4816480000000 1.0
C      1  0.4985790000000  0.4381340000000  0.5703570000000 1.0
END
