TITL C-2441154-10-1134 0.22925521009448 125000 -14786.0937353804 0 0 151 (C1) n - 1
REM
REM in /home/bkarasulu/work/CARBON/AIRSS/Generating-Clusters/ReaxFF-fromJPCA2015/Units_Real/with-SteepDescent/Higher-Symm
REM
REM
REM
REM
REM
REM ./C.cell (1df0a924f5614ab8850e4351716899ee)
REM
REM compiler GCC version 9.2.1 20190827 (Red Hat 9.2.1-1)
REM options -cpp -mtune=generic -march=x86-64 -g -O0 -fpre-include=/usr/include/finclude/math-vector-fortran.h
REM seed 2068180593 -1563797631 617555 302656999 -2079480542 -179191420 -1341552208 1522779246 -342030262 933090543 -1086256782 664388875 1579779981 2003566468 1615690745 -2105394268 -1338339060 -65215331 105985295 -1970622387 52180561 1994611451 -1452557628 -438161040 713775230 -1180016007 719430482 210584604 -1926287686 -399759732 1230201877 1495544507 -2087016793
REM
CELL 1.54180   50.00000   50.00000   50.00000   90.00000   90.00000   90.00000
LATT -1
SFAC C  
C      1  0.4300170000000  0.4791360000000  0.5593620000000 1.0
C      1  0.4290930000000  0.4375680000000  0.5109510000000 1.0
C      1  0.4293220000000  0.4593530000000  0.4507120000000 1.0
C      1  0.4266670000000  0.5221710000000  0.4402710000000 1.0
C      1  0.4299590000000  0.5625610000000  0.4886640000000 1.0
C      1  0.4290080000000  0.5408130000000  0.5487930000000 1.0
C      1  0.5734370000000  0.4777340000000  0.5590130000000 1.0
C      1  0.5710840000000  0.4375930000000  0.5108790000000 1.0
C      1  0.5730080000000  0.4600950000000  0.4510260000000 1.0
C      1  0.5732540000000  0.5213780000000  0.4398600000000 1.0
C      1  0.5712760000000  0.5628910000000  0.4888300000000 1.0
C      1  0.5715470000000  0.5403580000000  0.5485550000000 1.0
C      1  0.5099090000000  0.4486630000000  0.5477210000000 1.0
C      1  0.5146400000000  0.4293900000000  0.4861940000000 1.0
C      1  0.5092700000000  0.4821060000000  0.4355200000000 1.0
C      1  0.5166550000000  0.5447710000000  0.4478780000000 1.0
C      1  0.5082570000000  0.5660870000000  0.5206610000000 1.0
C      1  0.5145400000000  0.5219180000000  0.5665530000000 1.0
C      1  0.4868080000000  0.4529060000000  0.5496580000000 1.0
C      1  0.4925940000000  0.4327290000000  0.4793400000000 1.0
C      1  0.4848710000000  0.4777630000000  0.4352490000000 1.0
C      1  0.4939530000000  0.5497110000000  0.4534540000000 1.0
C      1  0.4851430000000  0.5680710000000  0.5127440000000 1.0
C      1  0.4907550000000  0.5172730000000  0.5660150000000 1.0
C      1  0.5437950000000  0.5112270000000  0.5873410000000 1.0
C      1  0.5437940000000  0.4306970000000  0.5557410000000 1.0
C      1  0.5432670000000  0.4190440000000  0.4646110000000 1.0
C      1  0.5420880000000  0.4889570000000  0.4114200000000 1.0
C      1  0.5452920000000  0.5690290000000  0.4432730000000 1.0
C      1  0.5433280000000  0.5817170000000  0.5340360000000 1.0
C      1  0.4582730000000  0.5132350000000  0.5873770000000 1.0
C      1  0.4562740000000  0.4307990000000  0.5560300000000 1.0
C      1  0.4574950000000  0.4182470000000  0.4660610000000 1.0
C      1  0.4581870000000  0.4904050000000  0.4121570000000 1.0
C      1  0.4583510000000  0.5692250000000  0.4430910000000 1.0
C      1  0.4575200000000  0.5809340000000  0.5346090000000 1.0
C      1  0.4840270000000  0.5380540000000  0.5868870000000 1.0
C      1  0.4813470000000  0.4437240000000  0.5756160000000 1.0
C      1  0.4853610000000  0.4064510000000  0.4888620000000 1.0
C      1  0.4863150000000  0.4605090000000  0.4126810000000 1.0
C      1  0.4812430000000  0.5571870000000  0.4282420000000 1.0
C      1  0.4850830000000  0.5957710000000  0.5092100000000 1.0
C      1  0.5155620000000  0.5403180000000  0.5878110000000 1.0
C      1  0.5206750000000  0.4434270000000  0.5737840000000 1.0
C      1  0.5158910000000  0.4018290000000  0.4908830000000 1.0
C      1  0.5162640000000  0.4630780000000  0.4127730000000 1.0
C      1  0.5212760000000  0.5573400000000  0.4234240000000 1.0
C      1  0.5155730000000  0.5933810000000  0.5102370000000 1.0
C      1  0.5273620000000  0.5285790000000  0.5447720000000 1.0
C      1  0.5351280000000  0.4823830000000  0.5483370000000 1.0
C      1  0.5349190000000  0.4505640000000  0.5077820000000 1.0
C      1  0.5318530000000  0.4654870000000  0.4550380000000 1.0
C      1  0.5304850000000  0.5202700000000  0.4529980000000 1.0
C      1  0.5320950000000  0.5518210000000  0.4906280000000 1.0
C      1  0.4685730000000  0.5344670000000  0.5406170000000 1.0
C      1  0.4691090000000  0.4837630000000  0.5438490000000 1.0
C      1  0.4656730000000  0.4512770000000  0.5071730000000 1.0
C      1  0.4700130000000  0.4707240000000  0.4584510000000 1.0
C      1  0.4653520000000  0.5200350000000  0.4521620000000 1.0
C      1  0.4748650000000  0.5507660000000  0.4946430000000 1.0
C      1  0.5526680000000  0.5794740000000  0.4701310000000 1.0
C      1  0.5534040000000  0.5644630000000  0.5546720000000 1.0
C      1  0.5545100000000  0.4846900000000  0.5833050000000 1.0
C      1  0.5528440000000  0.4204970000000  0.5289460000000 1.0
C      1  0.5575190000000  0.4357460000000  0.4453850000000 1.0
C      1  0.5537870000000  0.5152120000000  0.4162340000000 1.0
C      1  0.4486950000000  0.5786970000000  0.4710690000000 1.0
C      1  0.4467730000000  0.5644670000000  0.5552890000000 1.0
C      1  0.4489450000000  0.4863410000000  0.5833140000000 1.0
C      1  0.4486260000000  0.4208750000000  0.5294020000000 1.0
C      1  0.4483820000000  0.4349810000000  0.4447510000000 1.0
C      1  0.4448210000000  0.5157580000000  0.4173210000000 1.0
C      1  0.4721680000000  0.5298330000000  0.4151690000000 1.0
C      1  0.4711830000000  0.5940290000000  0.4818920000000 1.0
C      1  0.4725130000000  0.5616960000000  0.5709710000000 1.0
C      1  0.4718380000000  0.4683070000000  0.5898990000000 1.0
C      1  0.4724300000000  0.4084380000000  0.5175860000000 1.0
C      1  0.4727490000000  0.4371310000000  0.4275780000000 1.0
C      1  0.5298690000000  0.5321880000000  0.4095880000000 1.0
C      1  0.5289210000000  0.5924140000000  0.4820110000000 1.0
C      1  0.5294380000000  0.5631520000000  0.5730190000000 1.0
C      1  0.5292250000000  0.4679220000000  0.5884640000000 1.0
C      1  0.5300290000000  0.4052400000000  0.5180130000000 1.0
C      1  0.5302750000000  0.4392750000000  0.4302740000000 1.0
C      1  0.5533480000000  0.5233470000000  0.5629750000000 1.0
C      1  0.5528610000000  0.4584810000000  0.5506320000000 1.0
C      1  0.5514840000000  0.4341400000000  0.4895420000000 1.0
C      1  0.5517580000000  0.4771400000000  0.4374850000000 1.0
C      1  0.5555860000000  0.5424640000000  0.4475690000000 1.0
C      1  0.5517900000000  0.5660840000000  0.5106720000000 1.0
C      1  0.4493660000000  0.5239130000000  0.5616700000000 1.0
C      1  0.4472470000000  0.4576670000000  0.5517810000000 1.0
C      1  0.4489960000000  0.4347510000000  0.4892000000000 1.0
C      1  0.4474380000000  0.4764140000000  0.4359650000000 1.0
C      1  0.4466970000000  0.5422190000000  0.4492100000000 1.0
C      1  0.4470290000000  0.5668930000000  0.5114920000000 1.0
C      1  0.4216770000000  0.4663260000000  0.5084400000000 1.0
C      1  0.4217480000000  0.4754020000000  0.4748920000000 1.0
C      1  0.4199940000000  0.5092490000000  0.4661100000000 1.0
C      1  0.4205480000000  0.5334380000000  0.4907480000000 1.0
C      1  0.4210620000000  0.5247360000000  0.5251290000000 1.0
C      1  0.4220490000000  0.4912100000000  0.5331300000000 1.0
C      1  0.5791080000000  0.4667810000000  0.5098140000000 1.0
C      1  0.5793870000000  0.4757480000000  0.4755600000000 1.0
C      1  0.5803000000000  0.5095290000000  0.4664960000000 1.0
C      1  0.5803860000000  0.5349590000000  0.4903330000000 1.0
C      1  0.5807010000000  0.5249930000000  0.5240520000000 1.0
C      1  0.5805200000000  0.4896670000000  0.5329070000000 1.0
C      1  0.4872410000000  0.4111030000000  0.5402680000000 1.0
C      1  0.4869390000000  0.4195180000000  0.4442920000000 1.0
C      1  0.4870050000000  0.5078160000000  0.4036320000000 1.0
C      1  0.4866190000000  0.5906730000000  0.4587720000000 1.0
C      1  0.4869660000000  0.5801180000000  0.5559240000000 1.0
C      1  0.4869450000000  0.4904000000000  0.6001730000000 1.0
C      1  0.5152460000000  0.4089970000000  0.5412850000000 1.0
C      1  0.5157920000000  0.4191430000000  0.4455860000000 1.0
C      1  0.5154630000000  0.5089020000000  0.4003250000000 1.0
C      1  0.5144880000000  0.5895230000000  0.4588890000000 1.0
C      1  0.5158370000000  0.5824030000000  0.5574430000000 1.0
C      1  0.5155100000000  0.4913330000000  0.5965150000000 1.0
C      1  0.5504490000000  0.4797170000000  0.4802390000000 1.0
C      1  0.5517160000000  0.5054410000000  0.4729970000000 1.0
C      1  0.5516980000000  0.5265580000000  0.4908630000000 1.0
C      1  0.5546030000000  0.5185430000000  0.5155780000000 1.0
C      1  0.5519860000000  0.4949200000000  0.5264760000000 1.0
C      1  0.5497500000000  0.4741560000000  0.5068520000000 1.0
C      1  0.4507000000000  0.4816460000000  0.4805560000000 1.0
C      1  0.4479950000000  0.5068480000000  0.4730490000000 1.0
C      1  0.4480460000000  0.5249150000000  0.4925920000000 1.0
C      1  0.4501060000000  0.5213010000000  0.5191670000000 1.0
C      1  0.4506150000000  0.4948640000000  0.5252210000000 1.0
C      1  0.4493020000000  0.4743750000000  0.5071750000000 1.0
C      1  0.4858790000000  0.5167680000000  0.4673890000000 1.0
C      1  0.4892380000000  0.5269820000000  0.5055860000000 1.0
C      1  0.4875950000000  0.5150020000000  0.5286150000000 1.0
C      1  0.4908870000000  0.4767280000000  0.5268170000000 1.0
C      1  0.4867260000000  0.4660130000000  0.5044380000000 1.0
C      1  0.4903800000000  0.4926440000000  0.4658610000000 1.0
C      1  0.5099370000000  0.5236800000000  0.4760770000000 1.0
C      1  0.5152390000000  0.5301540000000  0.5007440000000 1.0
C      1  0.5141050000000  0.5111050000000  0.5283260000000 1.0
C      1  0.5151960000000  0.4865390000000  0.5283080000000 1.0
C      1  0.5079230000000  0.4651850000000  0.4872280000000 1.0
C      1  0.5134730000000  0.4898000000000  0.4794050000000 1.0
C      1  0.5120100000000  0.5075020000000  0.4392240000000 1.0
C      1  0.5129180000000  0.4430840000000  0.5211670000000 1.0
C      1  0.4987720000000  0.5594580000000  0.4786030000000 1.0
C      1  0.4917650000000  0.4899260000000  0.5608640000000 1.0
C      1  0.4991760000000  0.4541350000000  0.4632840000000 1.0
C      1  0.5049160000000  0.5485030000000  0.5402810000000 1.0
C      1  0.4985090000000  0.4980520000000  0.4986160000000 1.0
END
