TITL C-2441163-1170-463 -2.41971964085206e-10 125000 -385.378545474871 0 0 5 (Td) n - 1
REM
REM in /home/bkarasulu/work/CARBON/AIRSS/Generating-Clusters/ReaxFF-fromJPCA2015/Units_Real/with-SteepDescent/Higher-Symm
REM
REM
REM
REM
REM
REM ./C.cell (1df0a924f5614ab8850e4351716899ee)
REM
REM compiler GCC version 9.2.1 20190827 (Red Hat 9.2.1-1)
REM options -cpp -mtune=generic -march=x86-64 -g -O0 -fpre-include=/usr/include/finclude/math-vector-fortran.h
REM seed 1584360422 -1711197088 -1785876681 1912510811 -1440938474 212606223 909917699 -925563177 -780709432 -133254423 -4186066 1931947060 1758497696 528750744 1470532054 1915327905 -1820256080 1805891548 -1489506690 -1953757588 -2021733959 599649483 147325768 -1797670224 -984221271 -659837284 -1444896059 2077129042 -1327462810 643179310 798965756 2134763195 968600818
REM
CELL 1.54180   50.00000   50.00000   50.00000   90.00000   90.00000   90.00000
LATT -1
SFAC C  
C      1  0.5184390000000  0.4818380000000  0.4814540000000 1.0
C      1  0.4818530000000  0.5184240000000  0.4814540000000 1.0
C      1  0.4818530000000  0.4818380000000  0.5180400000000 1.0
C      1  0.5184390000000  0.5184240000000  0.5180400000000 1.0
C      1  0.5001460000000  0.5001310000000  0.4997470000000 1.0
END
