TITL C-2441166-8118-120 0.0757776863200317 125000 -24856.9837908866 0 0 179 (C1) n - 1
REM
REM in /home/bkarasulu/work/CARBON/AIRSS/Generating-Clusters/ReaxFF-fromJPCA2015/Units_Real/with-SteepDescent/Higher-Symm
REM
REM
REM
REM
REM
REM ./C.cell (1df0a924f5614ab8850e4351716899ee)
REM
REM compiler GCC version 9.2.1 20190827 (Red Hat 9.2.1-1)
REM options -cpp -mtune=generic -march=x86-64 -g -O0 -fpre-include=/usr/include/finclude/math-vector-fortran.h
REM seed -1316022828 -1341002849 -1336254178 137447378 586268956 2022178450 2105210310 -1928538872 -928761025 -1246111567 -554175874 -1539530685 -1725254153 1033693195 -1759857248 -1468099997 1552920181 1111095891 -937522934 -2086760152 1968785008 1445839294 -698165747 -325356745 -318665430 132469107 606979364 219497515 1171128315 1079133921 -1075602889 1422722414 1103906446
REM
CELL 1.54180   50.00000   50.00000   50.00000   90.00000   90.00000   90.00000
LATT -1
SFAC C  
C      1  0.5701350000000  0.5393240000000  0.5360080000000 1.0
C      1  0.4798680000000  0.5336030000000  0.4799570000000 1.0
C      1  0.5988980000000  0.5098380000000  0.4759680000000 1.0
C      1  0.5462850000000  0.4902280000000  0.4830290000000 1.0
C      1  0.4764310000000  0.4782000000000  0.5451160000000 1.0
C      1  0.4393760000000  0.4693180000000  0.4931170000000 1.0
C      1  0.4544370000000  0.5118860000000  0.4406720000000 1.0
C      1  0.4832550000000  0.5081520000000  0.5978400000000 1.0
C      1  0.4089930000000  0.5078050000000  0.4514220000000 1.0
C      1  0.5774320000000  0.4948860000000  0.4294870000000 1.0
C      1  0.5264260000000  0.5142060000000  0.5863640000000 1.0
C      1  0.4983830000000  0.4135060000000  0.5094240000000 1.0
C      1  0.4355450000000  0.4538500000000  0.5671250000000 1.0
C      1  0.5013880000000  0.3856510000000  0.5403100000000 1.0
C      1  0.5339560000000  0.5605070000000  0.5848170000000 1.0
C      1  0.4266140000000  0.5292940000000  0.5797200000000 1.0
C      1  0.4667800000000  0.4795180000000  0.4048510000000 1.0
C      1  0.4478980000000  0.4547250000000  0.4407400000000 1.0
C      1  0.5011970000000  0.6045890000000  0.4712840000000 1.0
C      1  0.4757590000000  0.5779690000000  0.5656830000000 1.0
C      1  0.4236840000000  0.4805830000000  0.5689150000000 1.0
C      1  0.4180200000000  0.5750300000000  0.4635200000000 1.0
C      1  0.4888230000000  0.5820160000000  0.5051040000000 1.0
C      1  0.5604720000000  0.4601570000000  0.5956720000000 1.0
C      1  0.4673940000000  0.5261290000000  0.3965060000000 1.0
C      1  0.5793570000000  0.5535150000000  0.4449550000000 1.0
C      1  0.5497610000000  0.5945190000000  0.5319290000000 1.0
C      1  0.5523270000000  0.4635560000000  0.5283670000000 1.0
C      1  0.4539170000000  0.5509760000000  0.4545400000000 1.0
C      1  0.5290870000000  0.5040200000000  0.4396560000000 1.0
C      1  0.5539650000000  0.5156620000000  0.5445090000000 1.0
C      1  0.5729660000000  0.4966170000000  0.5549970000000 1.0
C      1  0.5219240000000  0.3964930000000  0.5200860000000 1.0
C      1  0.4111980000000  0.5580900000000  0.5089090000000 1.0
C      1  0.4944860000000  0.4485980000000  0.4474690000000 1.0
C      1  0.5367950000000  0.4524890000000  0.4127000000000 1.0
C      1  0.5076640000000  0.4642260000000  0.4907860000000 1.0
C      1  0.4052150000000  0.5363140000000  0.5297200000000 1.0
C      1  0.4334420000000  0.4247470000000  0.4782570000000 1.0
C      1  0.6006950000000  0.5595340000000  0.5010000000000 1.0
C      1  0.5514720000000  0.5314080000000  0.4905690000000 1.0
C      1  0.5367510000000  0.4749920000000  0.4472250000000 1.0
C      1  0.4546500000000  0.5279750000000  0.4681930000000 1.0
C      1  0.5081480000000  0.4830680000000  0.3978900000000 1.0
C      1  0.4685600000000  0.4970000000000  0.5102180000000 1.0
C      1  0.4753670000000  0.3969200000000  0.5007650000000 1.0
C      1  0.4322300000000  0.5563830000000  0.5695130000000 1.0
C      1  0.5995390000000  0.4852880000000  0.5377140000000 1.0
C      1  0.4984540000000  0.4528840000000  0.5936090000000 1.0
C      1  0.5031810000000  0.5704060000000  0.4441860000000 1.0
C      1  0.4052690000000  0.5267470000000  0.4742070000000 1.0
C      1  0.5342810000000  0.4403160000000  0.5201080000000 1.0
C      1  0.5071450000000  0.3983910000000  0.4628510000000 1.0
C      1  0.4504520000000  0.5351820000000  0.4189060000000 1.0
C      1  0.5081640000000  0.4917120000000  0.5913610000000 1.0
C      1  0.5917830000000  0.4401210000000  0.5019650000000 1.0
C      1  0.5442360000000  0.5866140000000  0.4569100000000 1.0
C      1  0.5032080000000  0.5488070000000  0.4650500000000 1.0
C      1  0.4855790000000  0.5623760000000  0.5888310000000 1.0
C      1  0.4268260000000  0.4696460000000  0.4245200000000 1.0
C      1  0.5698220000000  0.4444570000000  0.5458050000000 1.0
C      1  0.5797490000000  0.4253510000000  0.5245190000000 1.0
C      1  0.4289550000000  0.5196570000000  0.4906800000000 1.0
C      1  0.4928820000000  0.4340240000000  0.4217580000000 1.0
C      1  0.4802960000000  0.5771250000000  0.4271600000000 1.0
C      1  0.5992970000000  0.4660880000000  0.5149790000000 1.0
C      1  0.4606790000000  0.5997290000000  0.4651400000000 1.0
C      1  0.5299270000000  0.5747720000000  0.4342240000000 1.0
C      1  0.5378260000000  0.4170070000000  0.5366020000000 1.0
C      1  0.4348880000000  0.4960150000000  0.4553950000000 1.0
C      1  0.5662310000000  0.4069090000000  0.5056600000000 1.0
C      1  0.4562400000000  0.5888830000000  0.4382600000000 1.0
C      1  0.5994420000000  0.5071060000000  0.4464860000000 1.0
C      1  0.5690670000000  0.5358290000000  0.5860390000000 1.0
C      1  0.4935960000000  0.5024630000000  0.5483500000000 1.0
C      1  0.4289290000000  0.4526990000000  0.4669650000000 1.0
C      1  0.5158440000000  0.4156250000000  0.4395100000000 1.0
C      1  0.5619360000000  0.5413200000000  0.4238410000000 1.0
C      1  0.5273890000000  0.5180170000000  0.5563940000000 1.0
C      1  0.5093150000000  0.4546790000000  0.4047030000000 1.0
C      1  0.5381420000000  0.6007210000000  0.5061730000000 1.0
C      1  0.4005580000000  0.4632210000000  0.4629660000000 1.0
C      1  0.4783000000000  0.5335080000000  0.5838760000000 1.0
C      1  0.5815170000000  0.4388040000000  0.4733160000000 1.0
C      1  0.4624700000000  0.4303300000000  0.4307080000000 1.0
C      1  0.5597990000000  0.4251210000000  0.4577580000000 1.0
C      1  0.4364470000000  0.5015300000000  0.5840320000000 1.0
C      1  0.4051420000000  0.5063330000000  0.5267400000000 1.0
C      1  0.4818510000000  0.4260970000000  0.5660040000000 1.0
C      1  0.4349210000000  0.5675250000000  0.4397020000000 1.0
C      1  0.5777960000000  0.5722630000000  0.4908420000000 1.0
C      1  0.4958780000000  0.5282210000000  0.4055990000000 1.0
C      1  0.4144240000000  0.4919310000000  0.5020600000000 1.0
C      1  0.5637590000000  0.5709420000000  0.5456630000000 1.0
C      1  0.5869120000000  0.5186340000000  0.5711540000000 1.0
C      1  0.5242530000000  0.5639700000000  0.5392330000000 1.0
C      1  0.4038540000000  0.4574110000000  0.5358360000000 1.0
C      1  0.4386420000000  0.4788140000000  0.3995000000000 1.0
C      1  0.5376620000000  0.5531830000000  0.4142280000000 1.0
C      1  0.5653150000000  0.4695040000000  0.4395910000000 1.0
C      1  0.4852070000000  0.4340920000000  0.4697650000000 1.0
C      1  0.5705070000000  0.5761820000000  0.4610610000000 1.0
C      1  0.4049810000000  0.4848080000000  0.5465910000000 1.0
C      1  0.4374280000000  0.4246430000000  0.5249350000000 1.0
C      1  0.3956640000000  0.4713650000000  0.4902390000000 1.0
C      1  0.4610160000000  0.4328100000000  0.4845810000000 1.0
C      1  0.5984210000000  0.5303350000000  0.5478120000000 1.0
C      1  0.4527010000000  0.4911230000000  0.5342680000000 1.0
C      1  0.4741010000000  0.5248940000000  0.5561740000000 1.0
C      1  0.4782230000000  0.3946680000000  0.4707370000000 1.0
C      1  0.5044420000000  0.5579750000000  0.5007870000000 1.0
C      1  0.4576300000000  0.4999020000000  0.3875890000000 1.0
C      1  0.6013080000000  0.5271200000000  0.5023140000000 1.0
C      1  0.5101580000000  0.4523830000000  0.5307940000000 1.0
C      1  0.5496260000000  0.4090700000000  0.4804030000000 1.0
C      1  0.4930860000000  0.5091390000000  0.5198990000000 1.0
C      1  0.5105080000000  0.5760030000000  0.5869650000000 1.0
C      1  0.5818060000000  0.4647630000000  0.4631250000000 1.0
C      1  0.4706090000000  0.5500390000000  0.4330790000000 1.0
C      1  0.4779890000000  0.5946950000000  0.5277810000000 1.0
C      1  0.5081000000000  0.4321130000000  0.5769850000000 1.0
C      1  0.4914940000000  0.5386510000000  0.5209130000000 1.0
C      1  0.5240440000000  0.5306250000000  0.4007750000000 1.0
C      1  0.5617430000000  0.5622850000000  0.5729710000000 1.0
C      1  0.5286590000000  0.6028230000000  0.4783880000000 1.0
C      1  0.4361020000000  0.5897170000000  0.4800330000000 1.0
C      1  0.4818260000000  0.5957790000000  0.4821370000000 1.0
C      1  0.4873100000000  0.4816200000000  0.4756780000000 1.0
C      1  0.5982740000000  0.5339400000000  0.4548700000000 1.0
C      1  0.4719510000000  0.4628910000000  0.5966280000000 1.0
C      1  0.4572360000000  0.4492310000000  0.5091160000000 1.0
C      1  0.5041820000000  0.4351590000000  0.4906940000000 1.0
C      1  0.6089090000000  0.5112450000000  0.5296270000000 1.0
C      1  0.4606730000000  0.4911220000000  0.5975780000000 1.0
C      1  0.5314160000000  0.5102590000000  0.4940720000000 1.0
C      1  0.5363360000000  0.4255430000000  0.5644030000000 1.0
C      1  0.4947460000000  0.5961030000000  0.5517580000000 1.0
C      1  0.5511620000000  0.4800530000000  0.5751660000000 1.0
C      1  0.5323710000000  0.4685730000000  0.4752060000000 1.0
C      1  0.5727150000000  0.5287480000000  0.5086720000000 1.0
C      1  0.5518900000000  0.5155830000000  0.5999840000000 1.0
C      1  0.5252120000000  0.3949320000000  0.4847230000000 1.0
C      1  0.5299160000000  0.5581370000000  0.5121710000000 1.0
C      1  0.5729430000000  0.4763340000000  0.5095630000000 1.0
C      1  0.4780680000000  0.4708750000000  0.4498590000000 1.0
C      1  0.5319280000000  0.5000550000000  0.3947190000000 1.0
C      1  0.5481070000000  0.4784500000000  0.4044790000000 1.0
C      1  0.5601810000000  0.4400650000000  0.5728310000000 1.0
C      1  0.4504450000000  0.5853380000000  0.5288650000000 1.0
C      1  0.5217790000000  0.4772680000000  0.5690250000000 1.0
C      1  0.5013330000000  0.5025210000000  0.4206570000000 1.0
C      1  0.4096930000000  0.5418580000000  0.5584890000000 1.0
C      1  0.5739730000000  0.4870520000000  0.4827540000000 1.0
C      1  0.5159720000000  0.5235160000000  0.4582660000000 1.0
C      1  0.4826970000000  0.4596030000000  0.5238060000000 1.0
C      1  0.4514660000000  0.5712270000000  0.5530380000000 1.0
C      1  0.4238790000000  0.4401370000000  0.5462540000000 1.0
C      1  0.5405600000000  0.4295540000000  0.4361290000000 1.0
C      1  0.4491990000000  0.5192730000000  0.5410900000000 1.0
C      1  0.4592080000000  0.4030080000000  0.5241880000000 1.0
C      1  0.5213880000000  0.5465600000000  0.5607280000000 1.0
C      1  0.5033070000000  0.5093610000000  0.4801790000000 1.0
C      1  0.4595700000000  0.4886040000000  0.4846430000000 1.0
C      1  0.4039470000000  0.5553020000000  0.4806580000000 1.0
C      1  0.4318760000000  0.5792580000000  0.5071930000000 1.0
C      1  0.5241020000000  0.5925500000000  0.5473620000000 1.0
C      1  0.4677260000000  0.5425360000000  0.5052430000000 1.0
C      1  0.4773270000000  0.4908520000000  0.4307250000000 1.0
C      1  0.4174440000000  0.4261910000000  0.5024070000000 1.0
C      1  0.4022160000000  0.4802310000000  0.4393610000000 1.0
C      1  0.5252990000000  0.4745810000000  0.5410070000000 1.0
C      1  0.4610580000000  0.4080490000000  0.4498880000000 1.0
C      1  0.4780140000000  0.4024840000000  0.5467500000000 1.0
C      1  0.3994220000000  0.4485440000000  0.5083260000000 1.0
C      1  0.5500190000000  0.5593170000000  0.4931920000000 1.0
C      1  0.4610610000000  0.4440400000000  0.5770220000000 1.0
C      1  0.5556180000000  0.5133340000000  0.4278120000000 1.0
C      1  0.5585010000000  0.4871190000000  0.6046970000000 1.0
C      1  0.4435000000000  0.5314250000000  0.5147780000000 1.0
END
