TITL C-2441164-471-1403 0.125791244239579 125000 -26727.8217505556 0 0 199 (C1) n - 1
REM
REM in /home/bkarasulu/work/CARBON/AIRSS/Generating-Clusters/ReaxFF-fromJPCA2015/Units_Real/with-SteepDescent/Higher-Symm
REM
REM
REM
REM
REM
REM ./C.cell (1df0a924f5614ab8850e4351716899ee)
REM
REM compiler GCC version 9.2.1 20190827 (Red Hat 9.2.1-1)
REM options -cpp -mtune=generic -march=x86-64 -g -O0 -fpre-include=/usr/include/finclude/math-vector-fortran.h
REM seed -1139926752 1700161110 -726347268 1126194637 899051654 442082286 -1169695435 137873729 1394119274 -1200471946 -1903370088 754304737 -1338203968 -348843038 986219165 1118171711 -1921016655 -1361684032 1364897337 201051644 2028932791 667296999 1911321034 549896499 1405283027 -587582938 -791649196 161575086 946149850 -231397297 -1520838825 1017339827 -445109715
REM
CELL 1.54180   50.00000   50.00000   50.00000   90.00000   90.00000   90.00000
LATT -1
SFAC C  
C      1  0.5590340000000  0.5083970000000  0.5960650000000 1.0
C      1  0.5979240000000  0.5125430000000  0.5362100000000 1.0
C      1  0.5966500000000  0.5132950000000  0.4659400000000 1.0
C      1  0.5528850000000  0.5141660000000  0.4085870000000 1.0
C      1  0.4800260000000  0.5132920000000  0.3928590000000 1.0
C      1  0.4110530000000  0.5101180000000  0.4313430000000 1.0
C      1  0.3869510000000  0.5123720000000  0.5052880000000 1.0
C      1  0.4143610000000  0.5037280000000  0.5750500000000 1.0
C      1  0.4815750000000  0.5167710000000  0.6031380000000 1.0
C      1  0.6128920000000  0.5291290000000  0.4895120000000 1.0
C      1  0.5781960000000  0.5281980000000  0.4176390000000 1.0
C      1  0.5057990000000  0.5295150000000  0.3893780000000 1.0
C      1  0.4284050000000  0.5258710000000  0.4091680000000 1.0
C      1  0.3844600000000  0.5260390000000  0.4779550000000 1.0
C      1  0.3973520000000  0.5228650000000  0.5586600000000 1.0
C      1  0.4531440000000  0.5289720000000  0.6017690000000 1.0
C      1  0.5378420000000  0.5244210000000  0.6099070000000 1.0
C      1  0.5915800000000  0.5279120000000  0.5605770000000 1.0
C      1  0.5367260000000  0.5669860000000  0.4176200000000 1.0
C      1  0.4821090000000  0.5543140000000  0.4248520000000 1.0
C      1  0.4388170000000  0.5543670000000  0.4530880000000 1.0
C      1  0.4190860000000  0.5554950000000  0.5050540000000 1.0
C      1  0.4400540000000  0.5570310000000  0.5584340000000 1.0
C      1  0.4905020000000  0.5567910000000  0.5784130000000 1.0
C      1  0.5491570000000  0.5574550000000  0.5687100000000 1.0
C      1  0.5828810000000  0.5580820000000  0.5216420000000 1.0
C      1  0.5764530000000  0.5538070000000  0.4655240000000 1.0
C      1  0.4338060000000  0.4333020000000  0.5444700000000 1.0
C      1  0.4897640000000  0.4270340000000  0.5779420000000 1.0
C      1  0.5437830000000  0.4353810000000  0.5813410000000 1.0
C      1  0.5731320000000  0.4330380000000  0.5331160000000 1.0
C      1  0.5897660000000  0.4355080000000  0.4681980000000 1.0
C      1  0.5378510000000  0.4395970000000  0.4308620000000 1.0
C      1  0.4814370000000  0.4391150000000  0.4173620000000 1.0
C      1  0.4308220000000  0.4370160000000  0.4438140000000 1.0
C      1  0.4252240000000  0.4277990000000  0.4965450000000 1.0
C      1  0.3872250000000  0.4888340000000  0.4915940000000 1.0
C      1  0.4113560000000  0.4774350000000  0.5637540000000 1.0
C      1  0.4706620000000  0.4903930000000  0.6126440000000 1.0
C      1  0.5457640000000  0.4836830000000  0.5959170000000 1.0
C      1  0.5951240000000  0.4840010000000  0.5433860000000 1.0
C      1  0.6093670000000  0.4858020000000  0.4716720000000 1.0
C      1  0.5602290000000  0.4863590000000  0.4108420000000 1.0
C      1  0.4900000000000  0.4863130000000  0.3958870000000 1.0
C      1  0.4202830000000  0.4856530000000  0.4219640000000 1.0
C      1  0.4280500000000  0.4523970000000  0.5666440000000 1.0
C      1  0.4847600000000  0.4675300000000  0.6031230000000 1.0
C      1  0.5579210000000  0.4562660000000  0.5950520000000 1.0
C      1  0.5937650000000  0.4537640000000  0.5315530000000 1.0
C      1  0.5953090000000  0.4645980000000  0.4596460000000 1.0
C      1  0.5538510000000  0.4555030000000  0.4109760000000 1.0
C      1  0.4869430000000  0.4568310000000  0.3933180000000 1.0
C      1  0.4173730000000  0.4559730000000  0.4253060000000 1.0
C      1  0.3845500000000  0.4623970000000  0.4981150000000 1.0
C      1  0.5612150000000  0.5362730000000  0.5284540000000 1.0
C      1  0.5722190000000  0.5257740000000  0.4776060000000 1.0
C      1  0.5383260000000  0.5136940000000  0.4474820000000 1.0
C      1  0.4999710000000  0.5352860000000  0.4392740000000 1.0
C      1  0.4636300000000  0.5388630000000  0.4566560000000 1.0
C      1  0.4359440000000  0.5360880000000  0.4901970000000 1.0
C      1  0.4474390000000  0.5367690000000  0.5371890000000 1.0
C      1  0.4874380000000  0.5275030000000  0.5721770000000 1.0
C      1  0.5263480000000  0.5338030000000  0.5602120000000 1.0
C      1  0.5037510000000  0.5905840000000  0.5427150000000 1.0
C      1  0.5312280000000  0.5890730000000  0.5300320000000 1.0
C      1  0.5447410000000  0.5904120000000  0.5021320000000 1.0
C      1  0.5365300000000  0.5896870000000  0.4744790000000 1.0
C      1  0.5104240000000  0.5855340000000  0.4560280000000 1.0
C      1  0.4796110000000  0.5907610000000  0.4608190000000 1.0
C      1  0.4588770000000  0.5912170000000  0.4816430000000 1.0
C      1  0.4560940000000  0.5912310000000  0.5115510000000 1.0
C      1  0.4746840000000  0.5911340000000  0.5353670000000 1.0
C      1  0.6060470000000  0.5547510000000  0.4995810000000 1.0
C      1  0.5818990000000  0.5512920000000  0.4341890000000 1.0
C      1  0.5191340000000  0.5549660000000  0.3958530000000 1.0
C      1  0.4399380000000  0.5492450000000  0.4102260000000 1.0
C      1  0.3956560000000  0.5485230000000  0.4698870000000 1.0
C      1  0.4019990000000  0.5465420000000  0.5462510000000 1.0
C      1  0.4466110000000  0.5537000000000  0.5891900000000 1.0
C      1  0.5260810000000  0.5484370000000  0.6041470000000 1.0
C      1  0.5798670000000  0.5541160000000  0.5662520000000 1.0
C      1  0.5145490000000  0.4332290000000  0.4139050000000 1.0
C      1  0.4518110000000  0.4323490000000  0.4226780000000 1.0
C      1  0.4161800000000  0.4349760000000  0.4699230000000 1.0
C      1  0.4147610000000  0.4361100000000  0.5227570000000 1.0
C      1  0.4645690000000  0.4376750000000  0.5840100000000 1.0
C      1  0.5157720000000  0.4367000000000  0.5897350000000 1.0
C      1  0.5671030000000  0.4339120000000  0.5611530000000 1.0
C      1  0.5914710000000  0.4345170000000  0.4965800000000 1.0
C      1  0.5739440000000  0.4338060000000  0.4436550000000 1.0
C      1  0.3955780000000  0.4805910000000  0.5403430000000 1.0
C      1  0.4451810000000  0.4816970000000  0.6041620000000 1.0
C      1  0.5216990000000  0.4850920000000  0.6120040000000 1.0
C      1  0.5886210000000  0.4819210000000  0.5699070000000 1.0
C      1  0.6163330000000  0.4829210000000  0.4985690000000 1.0
C      1  0.5841580000000  0.4844710000000  0.4246270000000 1.0
C      1  0.5195950000000  0.4874260000000  0.4003480000000 1.0
C      1  0.4463070000000  0.4847140000000  0.4074910000000 1.0
C      1  0.3981690000000  0.4839380000000  0.4663410000000 1.0
C      1  0.4368550000000  0.4757020000000  0.5206180000000 1.0
C      1  0.4666030000000  0.4721120000000  0.5540700000000 1.0
C      1  0.5098120000000  0.4685210000000  0.5608840000000 1.0
C      1  0.5490870000000  0.4726140000000  0.5404310000000 1.0
C      1  0.5653630000000  0.4728380000000  0.4972330000000 1.0
C      1  0.5474390000000  0.4619850000000  0.4560900000000 1.0
C      1  0.5086640000000  0.4713010000000  0.4401350000000 1.0
C      1  0.4799160000000  0.4635620000000  0.4364970000000 1.0
C      1  0.4369880000000  0.4768720000000  0.4712150000000 1.0
C      1  0.5311850000000  0.5443740000000  0.4899040000000 1.0
C      1  0.5351590000000  0.5406290000000  0.4604580000000 1.0
C      1  0.5155840000000  0.5551430000000  0.4514930000000 1.0
C      1  0.4796940000000  0.5510280000000  0.4763690000000 1.0
C      1  0.4594170000000  0.5524360000000  0.4942040000000 1.0
C      1  0.4657800000000  0.5515810000000  0.5206620000000 1.0
C      1  0.4937600000000  0.5489550000000  0.5204310000000 1.0
C      1  0.5155490000000  0.5494850000000  0.5386040000000 1.0
C      1  0.5386700000000  0.5523620000000  0.5215570000000 1.0
C      1  0.4586700000000  0.4210220000000  0.5334410000000 1.0
C      1  0.4907930000000  0.4201690000000  0.5474970000000 1.0
C      1  0.5198710000000  0.4199760000000  0.5396320000000 1.0
C      1  0.5438250000000  0.4215440000000  0.5215480000000 1.0
C      1  0.5415840000000  0.4259050000000  0.4888050000000 1.0
C      1  0.5249060000000  0.4219310000000  0.4637370000000 1.0
C      1  0.4962140000000  0.4191910000000  0.4595590000000 1.0
C      1  0.4695350000000  0.4182680000000  0.4715730000000 1.0
C      1  0.4538370000000  0.4199830000000  0.4980170000000 1.0
C      1  0.4426990000000  0.4536590000000  0.5917140000000 1.0
C      1  0.5110920000000  0.4579250000000  0.6097230000000 1.0
C      1  0.5799250000000  0.4555600000000  0.5771810000000 1.0
C      1  0.6090590000000  0.4541490000000  0.5073050000000 1.0
C      1  0.5805270000000  0.4527200000000  0.4227910000000 1.0
C      1  0.5157950000000  0.4536670000000  0.3939040000000 1.0
C      1  0.4389710000000  0.4524420000000  0.4060330000000 1.0
C      1  0.3947960000000  0.4546020000000  0.4719310000000 1.0
C      1  0.3947300000000  0.4571460000000  0.5241560000000 1.0
C      1  0.5341200000000  0.4846600000000  0.5623220000000 1.0
C      1  0.5665940000000  0.4875190000000  0.5224770000000 1.0
C      1  0.5697910000000  0.4742960000000  0.4687670000000 1.0
C      1  0.5234280000000  0.4935350000000  0.4305600000000 1.0
C      1  0.4645880000000  0.4857400000000  0.4288260000000 1.0
C      1  0.4517770000000  0.4936680000000  0.4522660000000 1.0
C      1  0.4312810000000  0.4901970000000  0.4966810000000 1.0
C      1  0.4464700000000  0.4896480000000  0.5438740000000 1.0
C      1  0.4860170000000  0.4735790000000  0.5748940000000 1.0
C      1  0.4810950000000  0.4604850000000  0.4671150000000 1.0
C      1  0.4596870000000  0.4621580000000  0.4832900000000 1.0
C      1  0.4600840000000  0.4624880000000  0.5107930000000 1.0
C      1  0.4790700000000  0.4629780000000  0.5301130000000 1.0
C      1  0.5059120000000  0.4621550000000  0.5340450000000 1.0
C      1  0.5301400000000  0.4629840000000  0.5227070000000 1.0
C      1  0.5403280000000  0.4590850000000  0.4982370000000 1.0
C      1  0.5275710000000  0.4721560000000  0.4764110000000 1.0
C      1  0.5077140000000  0.4616290000000  0.4659870000000 1.0
C      1  0.5434340000000  0.3962770000000  0.4894460000000 1.0
C      1  0.5264260000000  0.3925520000000  0.4659420000000 1.0
C      1  0.4978220000000  0.3904880000000  0.4599730000000 1.0
C      1  0.4714920000000  0.3897190000000  0.4733200000000 1.0
C      1  0.4577240000000  0.3896910000000  0.4991430000000 1.0
C      1  0.4644410000000  0.3927870000000  0.5274280000000 1.0
C      1  0.4900800000000  0.3912840000000  0.5407910000000 1.0
C      1  0.5183980000000  0.3922300000000  0.5354850000000 1.0
C      1  0.5414110000000  0.3922620000000  0.5177810000000 1.0
C      1  0.4299130000000  0.5792710000000  0.5181920000000 1.0
C      1  0.4589480000000  0.5816470000000  0.5580180000000 1.0
C      1  0.5058280000000  0.5803990000000  0.5701920000000 1.0
C      1  0.5519490000000  0.5813890000000  0.5503650000000 1.0
C      1  0.5720530000000  0.5812700000000  0.5056730000000 1.0
C      1  0.5577130000000  0.5780150000000  0.4596780000000 1.0
C      1  0.5160830000000  0.5851430000000  0.4246790000000 1.0
C      1  0.4696980000000  0.5794620000000  0.4360990000000 1.0
C      1  0.4348930000000  0.5794170000000  0.4683040000000 1.0
C      1  0.5467050000000  0.5175890000000  0.4909870000000 1.0
C      1  0.5238240000000  0.5039930000000  0.4722360000000 1.0
C      1  0.4980360000000  0.5139170000000  0.4595310000000 1.0
C      1  0.4691110000000  0.5111220000000  0.4684280000000 1.0
C      1  0.4508620000000  0.5115930000000  0.4986570000000 1.0
C      1  0.4617960000000  0.5117360000000  0.5318910000000 1.0
C      1  0.4917210000000  0.5145570000000  0.5466980000000 1.0
C      1  0.5218330000000  0.5094340000000  0.5444040000000 1.0
C      1  0.5488260000000  0.5113400000000  0.5202880000000 1.0
C      1  0.5901240000000  0.5732410000000  0.4846510000000 1.0
C      1  0.5614890000000  0.5714540000000  0.4316990000000 1.0
C      1  0.4972140000000  0.5722950000000  0.4059450000000 1.0
C      1  0.4414040000000  0.5710180000000  0.4276040000000 1.0
C      1  0.4087600000000  0.5702810000000  0.4808120000000 1.0
C      1  0.4146720000000  0.5709750000000  0.5428270000000 1.0
C      1  0.4673240000000  0.5742330000000  0.5851950000000 1.0
C      1  0.5289860000000  0.5711560000000  0.5886250000000 1.0
C      1  0.5798260000000  0.5747080000000  0.5456410000000 1.0
C      1  0.4509470000000  0.5135920000000  0.3948360000000 1.0
C      1  0.3942700000000  0.5108100000000  0.4541230000000 1.0
C      1  0.3902590000000  0.5088930000000  0.5333630000000 1.0
C      1  0.4338910000000  0.5070740000000  0.5960650000000 1.0
C      1  0.5117290000000  0.5116770000000  0.6141650000000 1.0
C      1  0.5816100000000  0.5075510000000  0.5794680000000 1.0
C      1  0.6135300000000  0.5094930000000  0.5113180000000 1.0
C      1  0.5932640000000  0.5099350000000  0.4338880000000 1.0
C      1  0.5300810000000  0.5143130000000  0.3900280000000 1.0
C      1  0.5018270000000  0.5463530000000  0.4939570000000 1.0
END
