TITL C-2441165-58-1286 0.0355508126197525 125000 -13288.7443611614 0 0 97 (C1) n - 1
REM
REM in /home/bkarasulu/work/CARBON/AIRSS/Generating-Clusters/ReaxFF-fromJPCA2015/Units_Real/with-SteepDescent/Higher-Symm
REM
REM
REM
REM
REM
REM ./C.cell (1df0a924f5614ab8850e4351716899ee)
REM
REM compiler GCC version 9.2.1 20190827 (Red Hat 9.2.1-1)
REM options -cpp -mtune=generic -march=x86-64 -g -O0 -fpre-include=/usr/include/finclude/math-vector-fortran.h
REM seed 1438393242 1824594517 -1599289736 -1555854521 505979119 -1243728908 -1093901311 -1071929290 1622602371 1944809295 1436785092 -1741858028 -1204995299 -110281690 -1392256874 -1104580527 592373239 224093137 -1132753913 133247978 194366214 2069118559 -60450129 58522266 -915883159 1566373486 1714695318 979933728 -2030916196 -1412454391 2116243674 125831962 -80024103
REM
CELL 1.54180   50.00000   50.00000   50.00000   90.00000   90.00000   90.00000
LATT -1
SFAC C  
C      1  0.4742150000000  0.4591570000000  0.4741450000000 1.0
C      1  0.4580800000000  0.4420200000000  0.5556030000000 1.0
C      1  0.5627760000000  0.4812650000000  0.5579880000000 1.0
C      1  0.4393450000000  0.4344960000000  0.5074580000000 1.0
C      1  0.4929760000000  0.5064450000000  0.4123500000000 1.0
C      1  0.5381460000000  0.5424390000000  0.5167650000000 1.0
C      1  0.4730840000000  0.5534870000000  0.5526910000000 1.0
C      1  0.5387120000000  0.4513710000000  0.4520020000000 1.0
C      1  0.4835850000000  0.4964870000000  0.5390390000000 1.0
C      1  0.4380980000000  0.4452370000000  0.5343220000000 1.0
C      1  0.4305220000000  0.4836230000000  0.5099380000000 1.0
C      1  0.5150630000000  0.4875450000000  0.4465120000000 1.0
C      1  0.4350630000000  0.5283330000000  0.4991660000000 1.0
C      1  0.5558920000000  0.4438690000000  0.5314830000000 1.0
C      1  0.4800390000000  0.4834140000000  0.5643200000000 1.0
C      1  0.5120510000000  0.4411190000000  0.4448890000000 1.0
C      1  0.5214240000000  0.5093180000000  0.4107410000000 1.0
C      1  0.4293420000000  0.4731570000000  0.5368360000000 1.0
C      1  0.5013790000000  0.4855000000000  0.4999810000000 1.0
C      1  0.4975240000000  0.4228540000000  0.4631640000000 1.0
C      1  0.5153060000000  0.5689890000000  0.4491030000000 1.0
C      1  0.4467190000000  0.5140080000000  0.5652450000000 1.0
C      1  0.5655350000000  0.4981940000000  0.4518450000000 1.0
C      1  0.5542530000000  0.4735580000000  0.4389830000000 1.0
C      1  0.4659760000000  0.5676480000000  0.5020820000000 1.0
C      1  0.4713470000000  0.4732630000000  0.4252710000000 1.0
C      1  0.4668180000000  0.5026560000000  0.4192730000000 1.0
C      1  0.4434760000000  0.4901050000000  0.4521230000000 1.0
C      1  0.5395370000000  0.5350880000000  0.5668980000000 1.0
C      1  0.5103970000000  0.5409050000000  0.4481040000000 1.0
C      1  0.4786770000000  0.4813850000000  0.5152090000000 1.0
C      1  0.5707430000000  0.4404390000000  0.5087080000000 1.0
C      1  0.5340260000000  0.4868780000000  0.5254970000000 1.0
C      1  0.4113560000000  0.4742160000000  0.4765110000000 1.0
C      1  0.4979750000000  0.4439890000000  0.4832410000000 1.0
C      1  0.5097830000000  0.5378760000000  0.5288110000000 1.0
C      1  0.4585200000000  0.4926480000000  0.4992820000000 1.0
C      1  0.5599720000000  0.4737350000000  0.5297680000000 1.0
C      1  0.5302250000000  0.4840740000000  0.5553510000000 1.0
C      1  0.5239290000000  0.5868630000000  0.4686160000000 1.0
C      1  0.4802110000000  0.4234060000000  0.5489180000000 1.0
C      1  0.4555730000000  0.5258980000000  0.4373780000000 1.0
C      1  0.5431980000000  0.5685270000000  0.4580490000000 1.0
C      1  0.4408980000000  0.5407020000000  0.4583340000000 1.0
C      1  0.4639390000000  0.4856030000000  0.4721080000000 1.0
C      1  0.4595700000000  0.4682340000000  0.5705770000000 1.0
C      1  0.5589550000000  0.5040590000000  0.4794060000000 1.0
C      1  0.5602690000000  0.5318010000000  0.4916990000000 1.0
C      1  0.5926390000000  0.4988540000000  0.5020160000000 1.0
C      1  0.4568200000000  0.5610070000000  0.5285040000000 1.0
C      1  0.5846580000000  0.5244470000000  0.5103410000000 1.0
C      1  0.4541240000000  0.5642840000000  0.4743680000000 1.0
C      1  0.5416220000000  0.5692230000000  0.5228640000000 1.0
C      1  0.4631060000000  0.4207820000000  0.4988510000000 1.0
C      1  0.4244160000000  0.4586370000000  0.4951910000000 1.0
C      1  0.4730030000000  0.5294860000000  0.5700800000000 1.0
C      1  0.5322280000000  0.4841750000000  0.4235160000000 1.0
C      1  0.5131130000000  0.5422480000000  0.5768880000000 1.0
C      1  0.5218580000000  0.4666650000000  0.5069810000000 1.0
C      1  0.5313380000000  0.5284660000000  0.4311060000000 1.0
C      1  0.5319250000000  0.4927630000000  0.4745210000000 1.0
C      1  0.4390620000000  0.5202160000000  0.5396380000000 1.0
C      1  0.5770200000000  0.5286010000000  0.5374930000000 1.0
C      1  0.5086120000000  0.4385800000000  0.5096910000000 1.0
C      1  0.4550340000000  0.4429110000000  0.4593190000000 1.0
C      1  0.4971420000000  0.4658340000000  0.4390660000000 1.0
C      1  0.4162490000000  0.4984430000000  0.4629640000000 1.0
C      1  0.4856340000000  0.4233280000000  0.5191580000000 1.0
C      1  0.4975300000000  0.5183660000000  0.5827820000000 1.0
C      1  0.5719030000000  0.4542360000000  0.4839440000000 1.0
C      1  0.5075970000000  0.5352800000000  0.4820410000000 1.0
C      1  0.5749610000000  0.5083460000000  0.5586710000000 1.0
C      1  0.5520260000000  0.5121660000000  0.5758400000000 1.0
C      1  0.5423470000000  0.4612720000000  0.4789860000000 1.0
C      1  0.4211160000000  0.5262410000000  0.4737660000000 1.0
C      1  0.4382140000000  0.4856690000000  0.5616530000000 1.0
C      1  0.5298700000000  0.4324630000000  0.5465250000000 1.0
C      1  0.5543990000000  0.5487270000000  0.5413460000000 1.0
C      1  0.4756340000000  0.5646980000000  0.4556790000000 1.0
C      1  0.4961290000000  0.5647490000000  0.5000240000000 1.0
C      1  0.4873760000000  0.5209340000000  0.5237900000000 1.0
C      1  0.4329130000000  0.5429620000000  0.5243540000000 1.0
C      1  0.5168930000000  0.5087040000000  0.4948930000000 1.0
C      1  0.4481540000000  0.4634770000000  0.4394240000000 1.0
C      1  0.4807050000000  0.5305020000000  0.4742050000000 1.0
C      1  0.5590060000000  0.5453160000000  0.4647820000000 1.0
C      1  0.4664470000000  0.5250660000000  0.4987340000000 1.0
C      1  0.5152310000000  0.4948620000000  0.5802630000000 1.0
C      1  0.5163230000000  0.4554010000000  0.5575040000000 1.0
C      1  0.5576230000000  0.5255330000000  0.4433360000000 1.0
C      1  0.4797550000000  0.5429720000000  0.4371290000000 1.0
C      1  0.5164930000000  0.5806200000000  0.5167920000000 1.0
C      1  0.5086420000000  0.5886620000000  0.4910470000000 1.0
C      1  0.4688170000000  0.4189340000000  0.4696010000000 1.0
C      1  0.5885020000000  0.4739430000000  0.4948180000000 1.0
C      1  0.5019500000000  0.5549590000000  0.5520810000000 1.0
C      1  0.4993410000000  0.4701070000000  0.5776510000000 1.0
END
