TITL C-2441159-1093-596 0.00209488868861125 125000 -6017.77137875203 0 0 43 (C1) n - 1
REM
REM in /home/bkarasulu/work/CARBON/AIRSS/Generating-Clusters/ReaxFF-fromJPCA2015/Units_Real/with-SteepDescent/Higher-Symm
REM
REM
REM
REM
REM
REM ./C.cell (1df0a924f5614ab8850e4351716899ee)
REM
REM compiler GCC version 9.2.1 20190827 (Red Hat 9.2.1-1)
REM options -cpp -mtune=generic -march=x86-64 -g -O0 -fpre-include=/usr/include/finclude/math-vector-fortran.h
REM seed 1294644343 1216314808 -1112397755 -1570132770 1593915448 835822384 -1154300774 -1374488608 29374734 436652815 232864808 -1489388827 -974801615 980740864 -1475562867 1454234954 1764181638 -1857553046 -1689497893 -1591721881 1876640113 760040307 849686353 -1801649756 1129179609 387292505 1640315752 1765266358 -1968875546 -574995109 -1259168054 -2015843040 140784787
REM
CELL 1.54180   50.00000   50.00000   50.00000   90.00000   90.00000   90.00000
LATT -1
SFAC C  
C      1  0.4950820000000  0.5294730000000  0.4605260000000 1.0
C      1  0.4797160000000  0.4801400000000  0.4581550000000 1.0
C      1  0.5270980000000  0.4883870000000  0.4587590000000 1.0
C      1  0.4809580000000  0.5474000000000  0.5182660000000 1.0
C      1  0.4683770000000  0.4632020000000  0.5190900000000 1.0
C      1  0.5497230000000  0.4941090000000  0.5203420000000 1.0
C      1  0.5153090000000  0.5450520000000  0.4775350000000 1.0
C      1  0.4582560000000  0.5110830000000  0.4943990000000 1.0
C      1  0.5311730000000  0.4643550000000  0.4774200000000 1.0
C      1  0.4435960000000  0.5235530000000  0.4740050000000 1.0
C      1  0.5133640000000  0.4452270000000  0.4681220000000 1.0
C      1  0.5414280000000  0.5395720000000  0.4692250000000 1.0
C      1  0.5508300000000  0.4681560000000  0.5314850000000 1.0
C      1  0.5014770000000  0.5624000000000  0.5299570000000 1.0
C      1  0.4447120000000  0.4745950000000  0.5296700000000 1.0
C      1  0.4654750000000  0.4645760000000  0.5466150000000 1.0
C      1  0.5486890000000  0.4913690000000  0.5480630000000 1.0
C      1  0.4819690000000  0.5490280000000  0.5458740000000 1.0
C      1  0.5294970000000  0.5080870000000  0.5073510000000 1.0
C      1  0.4807740000000  0.5215710000000  0.5071860000000 1.0
C      1  0.4920870000000  0.4720050000000  0.5072960000000 1.0
C      1  0.5131890000000  0.4774340000000  0.4333060000000 1.0
C      1  0.5127460000000  0.5236220000000  0.4357200000000 1.0
C      1  0.4716740000000  0.5010060000000  0.4389290000000 1.0
C      1  0.5291690000000  0.5532180000000  0.5276520000000 1.0
C      1  0.4350640000000  0.5029150000000  0.5264790000000 1.0
C      1  0.5293660000000  0.4486330000000  0.5276480000000 1.0
C      1  0.5134100000000  0.4534600000000  0.5000410000000 1.0
C      1  0.5333150000000  0.5358980000000  0.5007790000000 1.0
C      1  0.4317080000000  0.5152280000000  0.4991060000000 1.0
C      1  0.5370160000000  0.5185870000000  0.4502900000000 1.0
C      1  0.4649850000000  0.5243030000000  0.4545490000000 1.0
C      1  0.4968330000000  0.4579730000000  0.4477740000000 1.0
C      1  0.4913810000000  0.4726100000000  0.5593000000000 1.0
C      1  0.5273790000000  0.5089820000000  0.5598980000000 1.0
C      1  0.4773750000000  0.5215390000000  0.5574520000000 1.0
C      1  0.4544700000000  0.5118430000000  0.5441470000000 1.0
C      1  0.5113180000000  0.4572750000000  0.5461520000000 1.0
C      1  0.5305440000000  0.5335210000000  0.5463440000000 1.0
C      1  0.5011350000000  0.4998630000000  0.5040360000000 1.0
C      1  0.4987910000000  0.5011950000000  0.5610500000000 1.0
C      1  0.4980790000000  0.5010210000000  0.4248600000000 1.0
C      1  0.4996210000000  0.4983270000000  0.4708680000000 1.0
END
