TITL C-2441168-9922-780 7.74641809999954e-08 125000 -5695.07482859699 0 0 40 (C2) n - 1
REM
REM in /home/bkarasulu/work/CARBON/AIRSS/Generating-Clusters/ReaxFF-fromJPCA2015/Units_Real/with-SteepDescent/Higher-Symm
REM
REM
REM
REM
REM
REM ./C.cell (1df0a924f5614ab8850e4351716899ee)
REM
REM compiler GCC version 9.2.1 20190827 (Red Hat 9.2.1-1)
REM options -cpp -mtune=generic -march=x86-64 -g -O0 -fpre-include=/usr/include/finclude/math-vector-fortran.h
REM seed -1696256027 -1454158305 1189493043 1079597607 -435437434 1083000611 -496724258 -235527454 -663919429 -1893759763 -638707577 1483395283 -1317921955 -233374930 1866670223 -1988298813 556077544 -1461069910 -1591070272 -1436643696 166878325 -1815008803 475709044 1549845035 -2019548878 -417584868 619909844 -844692971 261369799 -1904793353 163451040 1742464712 -1747831985
REM
CELL 1.54180   50.00000   50.00000   50.00000   90.00000   90.00000   90.00000
LATT -1
SFAC C  
C      1  0.4498540000000  0.5027540000000  0.4639910000000 1.0
C      1  0.4891830000000  0.4733570000000  0.4585790000000 1.0
C      1  0.4651430000000  0.4427830000000  0.4882540000000 1.0
C      1  0.4490070000000  0.5006120000000  0.5382300000000 1.0
C      1  0.5521110000000  0.5027590000000  0.5367360000000 1.0
C      1  0.5529580000000  0.5005910000000  0.4624970000000 1.0
C      1  0.4834450000000  0.5344210000000  0.5552380000000 1.0
C      1  0.5127770000000  0.4733700000000  0.5421580000000 1.0
C      1  0.5185240000000  0.5343990000000  0.4454770000000 1.0
C      1  0.4670960000000  0.5566310000000  0.5152090000000 1.0
C      1  0.5368130000000  0.4427820000000  0.5124940000000 1.0
C      1  0.5348770000000  0.5566200000000  0.4854990000000 1.0
C      1  0.4504850000000  0.4647880000000  0.5022710000000 1.0
C      1  0.4838670000000  0.4474830000000  0.4676650000000 1.0
C      1  0.4683820000000  0.4879090000000  0.4459490000000 1.0
C      1  0.4484220000000  0.5389570000000  0.5002350000000 1.0
C      1  0.5535480000000  0.5389490000000  0.5004790000000 1.0
C      1  0.5514740000000  0.4647800000000  0.4984690000000 1.0
C      1  0.4881620000000  0.5437230000000  0.5293000000000 1.0
C      1  0.5138090000000  0.5437100000000  0.4714120000000 1.0
C      1  0.5180900000000  0.4474920000000  0.5330810000000 1.0
C      1  0.4639690000000  0.5146260000000  0.5599830000000 1.0
C      1  0.5379970000000  0.5145990000000  0.4407390000000 1.0
C      1  0.5335810000000  0.4879230000000  0.5547830000000 1.0
C      1  0.4936210000000  0.5652070000000  0.5122470000000 1.0
C      1  0.5107380000000  0.4326070000000  0.5104370000000 1.0
C      1  0.5083540000000  0.5652020000000  0.4884570000000 1.0
C      1  0.5613260000000  0.4913010000000  0.5100320000000 1.0
C      1  0.4904600000000  0.5108230000000  0.5688300000000 1.0
C      1  0.4912170000000  0.4326050000000  0.4903140000000 1.0
C      1  0.5620660000000  0.5118920000000  0.4893730000000 1.0
C      1  0.4406370000000  0.4913060000000  0.4906990000000 1.0
C      1  0.4399000000000  0.5119050000000  0.5113500000000 1.0
C      1  0.4945970000000  0.4887670000000  0.4360610000000 1.0
C      1  0.5115060000000  0.5107970000000  0.4318940000000 1.0
C      1  0.5073660000000  0.4887890000000  0.5646700000000 1.0
C      1  0.5488380000000  0.4757550000000  0.4735300000000 1.0
C      1  0.4531230000000  0.4757720000000  0.5272060000000 1.0
C      1  0.4522240000000  0.5279980000000  0.4750280000000 1.0
C      1  0.5497450000000  0.5280000000000  0.5256900000000 1.0
END
