TITL C-2441167-4473-1439 0.0427336898840615 125000 -25279.0639972175 0 0 177 (C1) n - 1
REM
REM in /home/bkarasulu/work/CARBON/AIRSS/Generating-Clusters/ReaxFF-fromJPCA2015/Units_Real/with-SteepDescent/Higher-Symm
REM
REM
REM
REM
REM
REM ./C.cell (1df0a924f5614ab8850e4351716899ee)
REM
REM compiler GCC version 9.2.1 20190827 (Red Hat 9.2.1-1)
REM options -cpp -mtune=generic -march=x86-64 -g -O0 -fpre-include=/usr/include/finclude/math-vector-fortran.h
REM seed -1544273486 916894288 823101658 804624423 -354025858 1092757505 912687731 1829482761 -293412110 1875558969 -1843836940 -1835936427 -297589190 1163083704 373389381 58753673 -2049209543 1179748436 -102571913 1091478443 620926782 1109227522 1252067156 1288051924 -1005742947 220282958 -1731817780 158196382 1526512504 -540238801 -1232737709 557424942 1425952641
REM
CELL 1.54180   50.00000   50.00000   50.00000   90.00000   90.00000   90.00000
LATT -1
SFAC C  
C      1  0.5364990000000  0.3998190000000  0.4874930000000 1.0
C      1  0.4745130000000  0.4074470000000  0.4433850000000 1.0
C      1  0.4085680000000  0.5092390000000  0.5468370000000 1.0
C      1  0.4488100000000  0.5231100000000  0.4459210000000 1.0
C      1  0.4066210000000  0.5437070000000  0.5167630000000 1.0
C      1  0.5105020000000  0.6001280000000  0.5304820000000 1.0
C      1  0.5031340000000  0.5341950000000  0.5241270000000 1.0
C      1  0.5262370000000  0.4863920000000  0.5847080000000 1.0
C      1  0.5430480000000  0.5077310000000  0.5503830000000 1.0
C      1  0.4589320000000  0.4230790000000  0.5189010000000 1.0
C      1  0.4628840000000  0.4898110000000  0.4087850000000 1.0
C      1  0.4824430000000  0.4902060000000  0.5482960000000 1.0
C      1  0.4658510000000  0.4603460000000  0.5245260000000 1.0
C      1  0.5213650000000  0.4093090000000  0.4608400000000 1.0
C      1  0.4990240000000  0.5686600000000  0.4146440000000 1.0
C      1  0.4310480000000  0.4547720000000  0.4307720000000 1.0
C      1  0.5656700000000  0.4490020000000  0.5516500000000 1.0
C      1  0.5234860000000  0.5300220000000  0.6045660000000 1.0
C      1  0.5787130000000  0.4552790000000  0.4428880000000 1.0
C      1  0.5073610000000  0.4399460000000  0.4961900000000 1.0
C      1  0.5647190000000  0.5326630000000  0.5053570000000 1.0
C      1  0.5251510000000  0.4511070000000  0.5214010000000 1.0
C      1  0.4081960000000  0.5721620000000  0.5074690000000 1.0
C      1  0.4777290000000  0.3916980000000  0.4872930000000 1.0
C      1  0.5053530000000  0.4839880000000  0.6073340000000 1.0
C      1  0.5272840000000  0.5531060000000  0.5293650000000 1.0
C      1  0.4528450000000  0.5312050000000  0.5458700000000 1.0
C      1  0.4157250000000  0.4593640000000  0.5312490000000 1.0
C      1  0.4930080000000  0.3838380000000  0.5098280000000 1.0
C      1  0.5370080000000  0.5504360000000  0.5872640000000 1.0
C      1  0.4492850000000  0.5722240000000  0.5262570000000 1.0
C      1  0.5642260000000  0.5412860000000  0.5809520000000 1.0
C      1  0.4921640000000  0.5058150000000  0.4492950000000 1.0
C      1  0.5480600000000  0.5337550000000  0.5300300000000 1.0
C      1  0.5696750000000  0.4364390000000  0.5032960000000 1.0
C      1  0.5038080000000  0.4183460000000  0.5731850000000 1.0
C      1  0.3901900000000  0.4656690000000  0.4817220000000 1.0
C      1  0.5667330000000  0.4983070000000  0.5678640000000 1.0
C      1  0.4401760000000  0.4174680000000  0.5433270000000 1.0
C      1  0.5411030000000  0.5073490000000  0.6045480000000 1.0
C      1  0.5160260000000  0.4033790000000  0.5516630000000 1.0
C      1  0.5668250000000  0.5143130000000  0.5922190000000 1.0
C      1  0.3989700000000  0.5265120000000  0.4942060000000 1.0
C      1  0.5411710000000  0.4697100000000  0.5084620000000 1.0
C      1  0.5702680000000  0.5043510000000  0.5105800000000 1.0
C      1  0.5722360000000  0.4277820000000  0.4538780000000 1.0
C      1  0.4026000000000  0.4879660000000  0.5302140000000 1.0
C      1  0.5370070000000  0.4825560000000  0.4818410000000 1.0
C      1  0.5189790000000  0.4965160000000  0.3916660000000 1.0
C      1  0.5673690000000  0.5845120000000  0.4730130000000 1.0
C      1  0.4521320000000  0.4841500000000  0.4794510000000 1.0
C      1  0.4080480000000  0.5376290000000  0.5476120000000 1.0
C      1  0.3945850000000  0.4997150000000  0.5033170000000 1.0
C      1  0.4109450000000  0.4387970000000  0.5037770000000 1.0
C      1  0.6058390000000  0.5173980000000  0.4787850000000 1.0
C      1  0.4372250000000  0.5792050000000  0.4609970000000 1.0
C      1  0.4577270000000  0.5942350000000  0.4720370000000 1.0
C      1  0.4991810000000  0.5122980000000  0.6101510000000 1.0
C      1  0.5804000000000  0.5770810000000  0.5184790000000 1.0
C      1  0.5179940000000  0.5014090000000  0.4383580000000 1.0
C      1  0.5377020000000  0.5581830000000  0.4652010000000 1.0
C      1  0.4465660000000  0.4176270000000  0.4433770000000 1.0
C      1  0.4385720000000  0.4819490000000  0.4233340000000 1.0
C      1  0.4863920000000  0.4261890000000  0.5265280000000 1.0
C      1  0.4685500000000  0.5173740000000  0.4025800000000 1.0
C      1  0.4316950000000  0.5010140000000  0.4431270000000 1.0
C      1  0.5274770000000  0.5734800000000  0.4268970000000 1.0
C      1  0.5813330000000  0.5585770000000  0.4635330000000 1.0
C      1  0.4746420000000  0.5724440000000  0.4310720000000 1.0
C      1  0.4201150000000  0.5807340000000  0.5322780000000 1.0
C      1  0.5288330000000  0.5263720000000  0.4291480000000 1.0
C      1  0.5307400000000  0.4567260000000  0.5751540000000 1.0
C      1  0.4791760000000  0.5876930000000  0.4544380000000 1.0
C      1  0.5807390000000  0.4516780000000  0.5264530000000 1.0
C      1  0.5816370000000  0.5477090000000  0.5571780000000 1.0
C      1  0.4425020000000  0.5426670000000  0.5218790000000 1.0
C      1  0.5713740000000  0.5725410000000  0.5450960000000 1.0
C      1  0.5846110000000  0.4995030000000  0.4669380000000 1.0
C      1  0.5362190000000  0.4464950000000  0.5483580000000 1.0
C      1  0.5556110000000  0.4682220000000  0.4262380000000 1.0
C      1  0.5042010000000  0.5862630000000  0.5587710000000 1.0
C      1  0.4630250000000  0.5939340000000  0.5044470000000 1.0
C      1  0.4542760000000  0.4975380000000  0.5058020000000 1.0
C      1  0.5569730000000  0.4403990000000  0.4764550000000 1.0
C      1  0.4891100000000  0.5331400000000  0.4591530000000 1.0
C      1  0.6183870000000  0.4949360000000  0.4889980000000 1.0
C      1  0.4608790000000  0.5366480000000  0.5930770000000 1.0
C      1  0.4941400000000  0.4192220000000  0.4239600000000 1.0
C      1  0.4794210000000  0.5739890000000  0.5686690000000 1.0
C      1  0.4616820000000  0.5333440000000  0.4692010000000 1.0
C      1  0.5948900000000  0.5510880000000  0.5114910000000 1.0
C      1  0.5804180000000  0.4731690000000  0.5628870000000 1.0
C      1  0.4285770000000  0.4422340000000  0.5544240000000 1.0
C      1  0.4162670000000  0.5697900000000  0.4791790000000 1.0
C      1  0.5314740000000  0.4497200000000  0.4158280000000 1.0
C      1  0.5182390000000  0.5576040000000  0.4832480000000 1.0
C      1  0.4854630000000  0.4604750000000  0.4400040000000 1.0
C      1  0.4520610000000  0.4908090000000  0.5975310000000 1.0
C      1  0.4696120000000  0.5129690000000  0.6065740000000 1.0
C      1  0.4294210000000  0.4923400000000  0.4673400000000 1.0
C      1  0.5138920000000  0.4705060000000  0.4027150000000 1.0
C      1  0.4232610000000  0.5631050000000  0.5564840000000 1.0
C      1  0.5726820000000  0.5471460000000  0.4316230000000 1.0
C      1  0.4766920000000  0.4423710000000  0.4857260000000 1.0
C      1  0.5414350000000  0.5740090000000  0.5455640000000 1.0
C      1  0.4610470000000  0.4632430000000  0.5942860000000 1.0
C      1  0.4403810000000  0.5294080000000  0.5722010000000 1.0
C      1  0.5250990000000  0.4348520000000  0.4711820000000 1.0
C      1  0.5104930000000  0.5327750000000  0.4794910000000 1.0
C      1  0.6003390000000  0.5456120000000  0.4827620000000 1.0
C      1  0.4948380000000  0.4874070000000  0.4947950000000 1.0
C      1  0.4053230000000  0.4890010000000  0.4792360000000 1.0
C      1  0.4894300000000  0.4793990000000  0.4176070000000 1.0
C      1  0.4969720000000  0.5184060000000  0.3922730000000 1.0
C      1  0.4994560000000  0.5445960000000  0.4005260000000 1.0
C      1  0.5215900000000  0.4261400000000  0.4291110000000 1.0
C      1  0.4543050000000  0.4865520000000  0.5545040000000 1.0
C      1  0.4166990000000  0.5482330000000  0.4424070000000 1.0
C      1  0.4778150000000  0.4842610000000  0.5174980000000 1.0
C      1  0.4362750000000  0.4990090000000  0.5741060000000 1.0
C      1  0.4759470000000  0.4415120000000  0.4186350000000 1.0
C      1  0.5610920000000  0.5902850000000  0.5010750000000 1.0
C      1  0.5442710000000  0.4937180000000  0.5238520000000 1.0
C      1  0.4814760000000  0.5449280000000  0.5082980000000 1.0
C      1  0.5275120000000  0.5740150000000  0.5714810000000 1.0
C      1  0.4626510000000  0.4026130000000  0.5535570000000 1.0
C      1  0.4318780000000  0.4402170000000  0.4579480000000 1.0
C      1  0.4021400000000  0.4414520000000  0.4752230000000 1.0
C      1  0.5429850000000  0.5344620000000  0.4050830000000 1.0
C      1  0.4854150000000  0.5489150000000  0.5832450000000 1.0
C      1  0.5218440000000  0.3847890000000  0.5076980000000 1.0
C      1  0.5639160000000  0.4947300000000  0.4136200000000 1.0
C      1  0.5948550000000  0.4758240000000  0.5374080000000 1.0
C      1  0.5736040000000  0.5179290000000  0.4293980000000 1.0
C      1  0.4895430000000  0.4604960000000  0.6013200000000 1.0
C      1  0.5462880000000  0.5067180000000  0.3944420000000 1.0
C      1  0.4736930000000  0.4260800000000  0.5672620000000 1.0
C      1  0.5098940000000  0.4421860000000  0.5884280000000 1.0
C      1  0.4518990000000  0.4043830000000  0.4971680000000 1.0
C      1  0.4524550000000  0.5725570000000  0.5564720000000 1.0
C      1  0.5539320000000  0.4122210000000  0.5077220000000 1.0
C      1  0.5643160000000  0.5161410000000  0.4568270000000 1.0
C      1  0.5209580000000  0.5501120000000  0.4430770000000 1.0
C      1  0.4882480000000  0.3964330000000  0.5376170000000 1.0
C      1  0.4864010000000  0.6090420000000  0.5187030000000 1.0
C      1  0.5289380000000  0.5113800000000  0.4868630000000 1.0
C      1  0.4062080000000  0.5431860000000  0.4699120000000 1.0
C      1  0.5348690000000  0.3999300000000  0.5295800000000 1.0
C      1  0.4821110000000  0.5718600000000  0.5006190000000 1.0
C      1  0.5251740000000  0.6016380000000  0.4812420000000 1.0
C      1  0.4486500000000  0.4441450000000  0.5753540000000 1.0
C      1  0.4926860000000  0.3996830000000  0.4635520000000 1.0
C      1  0.6150750000000  0.4671150000000  0.4839980000000 1.0
C      1  0.5120160000000  0.4573970000000  0.4553040000000 1.0
C      1  0.5329250000000  0.6004350000000  0.5084980000000 1.0
C      1  0.5422140000000  0.5893420000000  0.4602260000000 1.0
C      1  0.5958470000000  0.5327660000000  0.5365810000000 1.0
C      1  0.5155920000000  0.5052150000000  0.5632280000000 1.0
C      1  0.4534990000000  0.4512430000000  0.4777300000000 1.0
C      1  0.5523500000000  0.5603940000000  0.4157120000000 1.0
C      1  0.5925430000000  0.4727530000000  0.4621510000000 1.0
C      1  0.5155050000000  0.5072420000000  0.5120420000000 1.0
C      1  0.5932550000000  0.5044380000000  0.5283890000000 1.0
C      1  0.4830300000000  0.4485610000000  0.5443640000000 1.0
C      1  0.4803160000000  0.4874900000000  0.4676680000000 1.0
C      1  0.4270750000000  0.4175230000000  0.4952520000000 1.0
C      1  0.5011820000000  0.5807220000000  0.4790550000000 1.0
C      1  0.5596400000000  0.5397420000000  0.4726360000000 1.0
C      1  0.5005920000000  0.5291600000000  0.5681230000000 1.0
C      1  0.4539470000000  0.5373380000000  0.4207400000000 1.0
C      1  0.5331830000000  0.4782060000000  0.4480860000000 1.0
C      1  0.4577330000000  0.5274930000000  0.4993020000000 1.0
C      1  0.4419600000000  0.4751040000000  0.5303670000000 1.0
C      1  0.4476580000000  0.4339720000000  0.4196190000000 1.0
C      1  0.4812050000000  0.5213600000000  0.5472950000000 1.0
C      1  0.5108210000000  0.4677510000000  0.4849610000000 1.0
C      1  0.4412870000000  0.5628980000000  0.4302830000000 1.0
END
