TITL C-2441154-10-848 -0.00161869079156778 125000 -12538.5812909775 0 0 82 (C1) n - 1
REM
REM in /home/bkarasulu/work/CARBON/AIRSS/Generating-Clusters/ReaxFF-fromJPCA2015/Units_Real/with-SteepDescent/Higher-Symm
REM
REM
REM
REM
REM
REM ./C.cell (1df0a924f5614ab8850e4351716899ee)
REM
REM compiler GCC version 9.2.1 20190827 (Red Hat 9.2.1-1)
REM options -cpp -mtune=generic -march=x86-64 -g -O0 -fpre-include=/usr/include/finclude/math-vector-fortran.h
REM seed 1470506983 1802126966 1102139082 -1022781971 1470086492 1219392210 1503638654 1143079964 -1174758320 -881597645 1250536131 1596251976 -619429417 -660209987 757247697 830805764 777156611 1156219377 203328251 -1945325108 -1445516265 -873243259 -1607817007 531280929 -1117066240 1037209315 582902773 278522864 -673171217 -950603379 237974702 511077917 -1441192369
REM
CELL 1.54180   50.00000   50.00000   50.00000   90.00000   90.00000   90.00000
LATT -1
SFAC C  
C      1  0.5436640000000  0.4509210000000  0.5495890000000 1.0
C      1  0.5651220000000  0.4497300000000  0.5109830000000 1.0
C      1  0.5567920000000  0.4508890000000  0.4662080000000 1.0
C      1  0.5222050000000  0.4523920000000  0.4378880000000 1.0
C      1  0.4766340000000  0.4527240000000  0.4384810000000 1.0
C      1  0.4427260000000  0.4524300000000  0.4679740000000 1.0
C      1  0.4359410000000  0.4515390000000  0.5128100000000 1.0
C      1  0.4589850000000  0.4489550000000  0.5506990000000 1.0
C      1  0.5015220000000  0.4487090000000  0.5659880000000 1.0
C      1  0.5691110000000  0.5160070000000  0.5525680000000 1.0
C      1  0.5791010000000  0.5272400000000  0.5009720000000 1.0
C      1  0.5683130000000  0.5188380000000  0.4470670000000 1.0
C      1  0.5103440000000  0.5171810000000  0.4112740000000 1.0
C      1  0.4513870000000  0.5178160000000  0.4211950000000 1.0
C      1  0.4208190000000  0.5192510000000  0.4811290000000 1.0
C      1  0.4185360000000  0.5143220000000  0.5378990000000 1.0
C      1  0.4615990000000  0.5258310000000  0.5702340000000 1.0
C      1  0.5137630000000  0.5149050000000  0.5797800000000 1.0
C      1  0.5663730000000  0.5489650000000  0.4887190000000 1.0
C      1  0.5553990000000  0.5421980000000  0.4622740000000 1.0
C      1  0.4963050000000  0.5398580000000  0.4276930000000 1.0
C      1  0.4678600000000  0.5403700000000  0.4339080000000 1.0
C      1  0.4395800000000  0.5378110000000  0.4983880000000 1.0
C      1  0.4380910000000  0.5350760000000  0.5268340000000 1.0
C      1  0.4599460000000  0.5413880000000  0.5450360000000 1.0
C      1  0.5236620000000  0.5380220000000  0.5638940000000 1.0
C      1  0.5476700000000  0.5377720000000  0.5468180000000 1.0
C      1  0.4659030000000  0.4849210000000  0.5211510000000 1.0
C      1  0.4872110000000  0.4834550000000  0.5382940000000 1.0
C      1  0.5144260000000  0.4837170000000  0.5380550000000 1.0
C      1  0.5353650000000  0.4849780000000  0.5198900000000 1.0
C      1  0.5400210000000  0.4844300000000  0.4928750000000 1.0
C      1  0.5261280000000  0.4855930000000  0.4689630000000 1.0
C      1  0.4998890000000  0.4865380000000  0.4594640000000 1.0
C      1  0.4741010000000  0.4864150000000  0.4696310000000 1.0
C      1  0.4606730000000  0.4857090000000  0.4940040000000 1.0
C      1  0.4291360000000  0.5100370000000  0.4564590000000 1.0
C      1  0.4090010000000  0.4993910000000  0.5166160000000 1.0
C      1  0.4451510000000  0.5011030000000  0.5731860000000 1.0
C      1  0.4847070000000  0.5122050000000  0.5833410000000 1.0
C      1  0.5546930000000  0.5001530000000  0.5698740000000 1.0
C      1  0.5904480000000  0.5043500000000  0.5124130000000 1.0
C      1  0.5814570000000  0.5022210000000  0.4642280000000 1.0
C      1  0.5332160000000  0.5067400000000  0.4218540000000 1.0
C      1  0.4710610000000  0.5012040000000  0.4099530000000 1.0
C      1  0.4326560000000  0.4679580000000  0.4896960000000 1.0
C      1  0.4415570000000  0.4668940000000  0.5366910000000 1.0
C      1  0.4775730000000  0.4645040000000  0.5659080000000 1.0
C      1  0.5245490000000  0.4653930000000  0.5649520000000 1.0
C      1  0.5610810000000  0.4675350000000  0.5332740000000 1.0
C      1  0.5681710000000  0.4655950000000  0.4878950000000 1.0
C      1  0.5440920000000  0.4681610000000  0.4473160000000 1.0
C      1  0.4994400000000  0.4685210000000  0.4313400000000 1.0
C      1  0.4552180000000  0.4690090000000  0.4484520000000 1.0
C      1  0.5369250000000  0.4335590000000  0.4777300000000 1.0
C      1  0.5142740000000  0.4346030000000  0.4590780000000 1.0
C      1  0.4848240000000  0.4348130000000  0.4594080000000 1.0
C      1  0.4625640000000  0.4344780000000  0.4785840000000 1.0
C      1  0.4580290000000  0.4339630000000  0.5076190000000 1.0
C      1  0.4734210000000  0.4321300000000  0.5326330000000 1.0
C      1  0.5011420000000  0.4320160000000  0.5426670000000 1.0
C      1  0.5286760000000  0.4333290000000  0.5325370000000 1.0
C      1  0.5425580000000  0.4325570000000  0.5066660000000 1.0
C      1  0.5787520000000  0.4933880000000  0.5371540000000 1.0
C      1  0.5900940000000  0.4886940000000  0.4864480000000 1.0
C      1  0.5550070000000  0.4959330000000  0.4324830000000 1.0
C      1  0.4964220000000  0.4907820000000  0.4078110000000 1.0
C      1  0.4391130000000  0.4950010000000  0.4361040000000 1.0
C      1  0.4109940000000  0.4923810000000  0.4900860000000 1.0
C      1  0.4281880000000  0.4907900000000  0.5522650000000 1.0
C      1  0.4687360000000  0.4876460000000  0.5840020000000 1.0
C      1  0.5317180000000  0.4915360000000  0.5820560000000 1.0
C      1  0.5330760000000  0.5511670000000  0.5249670000000 1.0
C      1  0.5367410000000  0.5597310000000  0.4966910000000 1.0
C      1  0.5282230000000  0.5486460000000  0.4697120000000 1.0
C      1  0.5031620000000  0.5504910000000  0.4540270000000 1.0
C      1  0.4734560000000  0.5502370000000  0.4613800000000 1.0
C      1  0.4611960000000  0.5530500000000  0.4874580000000 1.0
C      1  0.4811390000000  0.5679410000000  0.5063430000000 1.0
C      1  0.4818960000000  0.5571610000000  0.5347270000000 1.0
C      1  0.5093150000000  0.5543570000000  0.5432420000000 1.0
C      1  0.5053260000000  0.5795790000000  0.4974940000000 1.0
END
