TITL C-2441167-4473-1126 0.0553198433212545 125000 -9584.97076732409 0 0 79 (C1) n - 1
REM
REM in /home/bkarasulu/work/CARBON/AIRSS/Generating-Clusters/ReaxFF-fromJPCA2015/Units_Real/with-SteepDescent/Higher-Symm
REM
REM
REM
REM
REM
REM ./C.cell (1df0a924f5614ab8850e4351716899ee)
REM
REM compiler GCC version 9.2.1 20190827 (Red Hat 9.2.1-1)
REM options -cpp -mtune=generic -march=x86-64 -g -O0 -fpre-include=/usr/include/finclude/math-vector-fortran.h
REM seed -1230404379 631201239 -1616183938 1254977169 416928340 -1916315295 -1048014451 -746691092 -964533353 -639932169 1106392724 1870834180 1704248083 -659645556 -627070863 -1895177789 2104034949 -110787430 2111325456 1380808829 -1652339340 283614891 -1034982462 687467837 625249736 1070796222 1650466429 -1256400510 336477369 -800613824 448677482 621632747 365308184
REM
CELL 1.54180   50.00000   50.00000   50.00000   90.00000   90.00000   90.00000
LATT -1
SFAC C  
C      1  0.4392200000000  0.5280010000000  0.4764810000000 1.0
C      1  0.4546450000000  0.4533450000000  0.4773050000000 1.0
C      1  0.5308000000000  0.4426120000000  0.4767640000000 1.0
C      1  0.5624670000000  0.5109160000000  0.4765890000000 1.0
C      1  0.5054940000000  0.5664900000000  0.4760400000000 1.0
C      1  0.4478820000000  0.5449470000000  0.5460850000000 1.0
C      1  0.4381930000000  0.4651030000000  0.5461110000000 1.0
C      1  0.5146550000000  0.4342370000000  0.5455800000000 1.0
C      1  0.5681770000000  0.4917550000000  0.5456460000000 1.0
C      1  0.5268030000000  0.5602470000000  0.5462270000000 1.0
C      1  0.5070590000000  0.5744520000000  0.5288590000000 1.0
C      1  0.4304710000000  0.5304490000000  0.5283420000000 1.0
C      1  0.4459150000000  0.4423310000000  0.5281560000000 1.0
C      1  0.5364040000000  0.4331940000000  0.5280840000000 1.0
C      1  0.5739060000000  0.5151380000000  0.5282160000000 1.0
C      1  0.5700180000000  0.5149440000000  0.4481450000000 1.0
C      1  0.5027370000000  0.5694490000000  0.4469960000000 1.0
C      1  0.4339410000000  0.5279520000000  0.4472640000000 1.0
C      1  0.4506680000000  0.4453110000000  0.4492750000000 1.0
C      1  0.5359290000000  0.4379750000000  0.4482620000000 1.0
C      1  0.5108650000000  0.4604880000000  0.5139340000000 1.0
C      1  0.5424600000000  0.4972610000000  0.5116870000000 1.0
C      1  0.5137320000000  0.5384410000000  0.5085000000000 1.0
C      1  0.4669040000000  0.5237930000000  0.5110980000000 1.0
C      1  0.4629300000000  0.4745200000000  0.5132930000000 1.0
C      1  0.4802370000000  0.4399550000000  0.4816510000000 1.0
C      1  0.5499960000000  0.4639060000000  0.4818430000000 1.0
C      1  0.5499860000000  0.5376870000000  0.4798830000000 1.0
C      1  0.4777170000000  0.5588950000000  0.4791520000000 1.0
C      1  0.4376840000000  0.4993210000000  0.4833160000000 1.0
C      1  0.4698570000000  0.5500700000000  0.5236000000000 1.0
C      1  0.4408120000000  0.4872000000000  0.5241790000000 1.0
C      1  0.4936550000000  0.4387760000000  0.5249120000000 1.0
C      1  0.5536200000000  0.4742390000000  0.5236410000000 1.0
C      1  0.5377890000000  0.5423230000000  0.5227870000000 1.0
C      1  0.5309230000000  0.5125190000000  0.5325250000000 1.0
C      1  0.4973080000000  0.5357120000000  0.5322810000000 1.0
C      1  0.4612900000000  0.5060370000000  0.5319330000000 1.0
C      1  0.4791570000000  0.4638350000000  0.5330480000000 1.0
C      1  0.5271060000000  0.4706750000000  0.5335380000000 1.0
C      1  0.5485750000000  0.4908440000000  0.5672140000000 1.0
C      1  0.5210190000000  0.5405810000000  0.5677620000000 1.0
C      1  0.4652490000000  0.5337170000000  0.5676600000000 1.0
C      1  0.4540270000000  0.4774150000000  0.5673560000000 1.0
C      1  0.5037030000000  0.4642940000000  0.5691080000000 1.0
C      1  0.5482200000000  0.5363270000000  0.4476880000000 1.0
C      1  0.4748290000000  0.5612060000000  0.4493400000000 1.0
C      1  0.4420660000000  0.4989010000000  0.4468630000000 1.0
C      1  0.4813610000000  0.4415150000000  0.4479870000000 1.0
C      1  0.5476740000000  0.4665890000000  0.4470140000000 1.0
C      1  0.5304870000000  0.5120910000000  0.4440710000000 1.0
C      1  0.5068050000000  0.5277240000000  0.4478320000000 1.0
C      1  0.4702610000000  0.5102060000000  0.4427480000000 1.0
C      1  0.4797390000000  0.4707540000000  0.4417040000000 1.0
C      1  0.5192260000000  0.4732400000000  0.4397010000000 1.0
C      1  0.4850390000000  0.5729050000000  0.5101460000000 1.0
C      1  0.4241900000000  0.5096670000000  0.5095240000000 1.0
C      1  0.4648510000000  0.4315720000000  0.5090870000000 1.0
C      1  0.5535280000000  0.4462480000000  0.5095010000000 1.0
C      1  0.5648030000000  0.5351800000000  0.5092080000000 1.0
C      1  0.5386420000000  0.5172500000000  0.5618760000000 1.0
C      1  0.4925700000000  0.5431290000000  0.5627810000000 1.0
C      1  0.4563390000000  0.5065630000000  0.5608150000000 1.0
C      1  0.4758790000000  0.4590000000000  0.5613420000000 1.0
C      1  0.5317990000000  0.4660260000000  0.5615370000000 1.0
C      1  0.4631570000000  0.4816920000000  0.4852190000000 1.0
C      1  0.5056020000000  0.4580520000000  0.4851960000000 1.0
C      1  0.5398510000000  0.4923260000000  0.4836700000000 1.0
C      1  0.5175940000000  0.5392680000000  0.4804660000000 1.0
C      1  0.4673520000000  0.5309420000000  0.4841060000000 1.0
C      1  0.5103650000000  0.4460820000000  0.4369170000000 1.0
C      1  0.5527210000000  0.4947470000000  0.4364560000000 1.0
C      1  0.5207850000000  0.5498580000000  0.4358820000000 1.0
C      1  0.4609420000000  0.5370110000000  0.4388250000000 1.0
C      1  0.4520640000000  0.4720600000000  0.4377960000000 1.0
C      1  0.4979740000000  0.4898630000000  0.4517470000000 1.0
C      1  0.5015900000000  0.5066280000000  0.5371170000000 1.0
C      1  0.4983590000000  0.4940920000000  0.5626080000000 1.0
C      1  0.4974300000000  0.4903180000000  0.4842010000000 1.0
END
