TITL C-2441159-1093-1181 0.168753777654694 125000 -20970.3802055202 0 0 166 (C1) n - 1
REM
REM in /home/bkarasulu/work/CARBON/AIRSS/Generating-Clusters/ReaxFF-fromJPCA2015/Units_Real/with-SteepDescent/Higher-Symm
REM
REM
REM
REM
REM
REM ./C.cell (1df0a924f5614ab8850e4351716899ee)
REM
REM compiler GCC version 9.2.1 20190827 (Red Hat 9.2.1-1)
REM options -cpp -mtune=generic -march=x86-64 -g -O0 -fpre-include=/usr/include/finclude/math-vector-fortran.h
REM seed 2038799684 1616229090 1600553375 -676762594 1101023029 2183074 1708301903 -2006665405 568063348 -2017546017 -1161587188 1269054185 1820467033 -989484795 -694204661 -1711948050 1826455418 -1360632391 982790014 885365597 -571965903 1232672083 -920659963 1755766026 -600274404 -841403085 470413817 -172122296 -1272583648 -1417839736 -1392744714 -1156660717 435150837
REM
CELL 1.54180   50.00000   50.00000   50.00000   90.00000   90.00000   90.00000
LATT -1
SFAC C  
C      1  0.5149460000000  0.4085220000000  0.5471160000000 1.0
C      1  0.4852290000000  0.4081130000000  0.4527530000000 1.0
C      1  0.5153340000000  0.4076040000000  0.4528930000000 1.0
C      1  0.4850840000000  0.4086440000000  0.5467760000000 1.0
C      1  0.5825280000000  0.4317280000000  0.4861990000000 1.0
C      1  0.4160680000000  0.4344500000000  0.5156730000000 1.0
C      1  0.5837360000000  0.4299030000000  0.5150010000000 1.0
C      1  0.4163390000000  0.4336690000000  0.4863080000000 1.0
C      1  0.4878850000000  0.4848230000000  0.5129090000000 1.0
C      1  0.5135030000000  0.4896980000000  0.4842540000000 1.0
C      1  0.4876530000000  0.4917280000000  0.4860310000000 1.0
C      1  0.5172290000000  0.4865640000000  0.5122420000000 1.0
C      1  0.5493200000000  0.5205650000000  0.4741690000000 1.0
C      1  0.4508640000000  0.5211830000000  0.5248460000000 1.0
C      1  0.5478000000000  0.5211990000000  0.5245840000000 1.0
C      1  0.4500650000000  0.5206060000000  0.4740830000000 1.0
C      1  0.5411800000000  0.5178860000000  0.5717680000000 1.0
C      1  0.4574360000000  0.5205640000000  0.4241210000000 1.0
C      1  0.5433650000000  0.5201870000000  0.4242830000000 1.0
C      1  0.4575380000000  0.5225980000000  0.5762200000000 1.0
C      1  0.5488970000000  0.4624210000000  0.5125400000000 1.0
C      1  0.4482890000000  0.4655490000000  0.4863600000000 1.0
C      1  0.5456650000000  0.4612000000000  0.4838480000000 1.0
C      1  0.4491950000000  0.4646800000000  0.5137350000000 1.0
C      1  0.5145950000000  0.4396120000000  0.4075200000000 1.0
C      1  0.4864960000000  0.4388680000000  0.5928270000000 1.0
C      1  0.5149740000000  0.4385940000000  0.5925930000000 1.0
C      1  0.4861860000000  0.4393990000000  0.4070000000000 1.0
C      1  0.4327390000000  0.5756110000000  0.5142160000000 1.0
C      1  0.5667910000000  0.5750780000000  0.4857800000000 1.0
C      1  0.4333760000000  0.5757050000000  0.4860230000000 1.0
C      1  0.5669780000000  0.5750200000000  0.5137560000000 1.0
C      1  0.4226640000000  0.5334700000000  0.4826630000000 1.0
C      1  0.5760700000000  0.5330900000000  0.5172640000000 1.0
C      1  0.4225260000000  0.5329670000000  0.5173300000000 1.0
C      1  0.5772140000000  0.5332120000000  0.4832460000000 1.0
C      1  0.4747870000000  0.5340880000000  0.5132230000000 1.0
C      1  0.5225370000000  0.5334320000000  0.4847350000000 1.0
C      1  0.4763390000000  0.5332210000000  0.4838370000000 1.0
C      1  0.5202030000000  0.5322330000000  0.5169070000000 1.0
C      1  0.4206320000000  0.5565870000000  0.5319060000000 1.0
C      1  0.5795990000000  0.5572700000000  0.4680650000000 1.0
C      1  0.4209600000000  0.5577620000000  0.4683060000000 1.0
C      1  0.5788570000000  0.5569990000000  0.5326290000000 1.0
C      1  0.3928480000000  0.4955860000000  0.5356100000000 1.0
C      1  0.6044470000000  0.4956340000000  0.4699690000000 1.0
C      1  0.3935310000000  0.4972950000000  0.4663340000000 1.0
C      1  0.5998750000000  0.4973230000000  0.5355830000000 1.0
C      1  0.4535440000000  0.5914830000000  0.4726950000000 1.0
C      1  0.5468060000000  0.5900820000000  0.5283130000000 1.0
C      1  0.4535130000000  0.5912170000000  0.5278970000000 1.0
C      1  0.5465900000000  0.5910430000000  0.4729920000000 1.0
C      1  0.5817070000000  0.4503570000000  0.4494950000000 1.0
C      1  0.4193280000000  0.4499890000000  0.5540590000000 1.0
C      1  0.5793920000000  0.4503660000000  0.5508310000000 1.0
C      1  0.4200070000000  0.4486850000000  0.4470710000000 1.0
C      1  0.4086960000000  0.4838550000000  0.4873490000000 1.0
C      1  0.5780330000000  0.4915220000000  0.5147660000000 1.0
C      1  0.4111150000000  0.4836360000000  0.5142780000000 1.0
C      1  0.5822680000000  0.4853200000000  0.4881300000000 1.0
C      1  0.5968720000000  0.4576540000000  0.4865850000000 1.0
C      1  0.4015840000000  0.4586300000000  0.5204600000000 1.0
C      1  0.6040840000000  0.4506930000000  0.5158510000000 1.0
C      1  0.3999180000000  0.4576840000000  0.4806380000000 1.0
C      1  0.4861630000000  0.5609760000000  0.4777780000000 1.0
C      1  0.5125680000000  0.5602680000000  0.5225250000000 1.0
C      1  0.4853510000000  0.5599560000000  0.5219650000000 1.0
C      1  0.5131070000000  0.5613410000000  0.4784190000000 1.0
C      1  0.5208170000000  0.5884530000000  0.4860150000000 1.0
C      1  0.4793260000000  0.5879380000000  0.5148190000000 1.0
C      1  0.5208750000000  0.5873530000000  0.5151720000000 1.0
C      1  0.4793590000000  0.5883580000000  0.4856300000000 1.0
C      1  0.5284720000000  0.5376060000000  0.4075900000000 1.0
C      1  0.4712030000000  0.5374890000000  0.5930730000000 1.0
C      1  0.5286080000000  0.5356580000000  0.5902650000000 1.0
C      1  0.4714330000000  0.5379820000000  0.4069840000000 1.0
C      1  0.5279330000000  0.4638290000000  0.6002030000000 1.0
C      1  0.4740340000000  0.4656320000000  0.4001100000000 1.0
C      1  0.5268240000000  0.4656040000000  0.4008490000000 1.0
C      1  0.4731150000000  0.4640190000000  0.6006470000000 1.0
C      1  0.5458130000000  0.5346160000000  0.4489580000000 1.0
C      1  0.4538740000000  0.5346000000000  0.5517620000000 1.0
C      1  0.5449410000000  0.5342020000000  0.5493380000000 1.0
C      1  0.4535150000000  0.5340970000000  0.4486400000000 1.0
C      1  0.4250530000000  0.4696990000000  0.5746760000000 1.0
C      1  0.5767090000000  0.4662470000000  0.4259050000000 1.0
C      1  0.4262420000000  0.4664520000000  0.4246250000000 1.0
C      1  0.5753400000000  0.4681960000000  0.5732270000000 1.0
C      1  0.5144230000000  0.5177920000000  0.3927060000000 1.0
C      1  0.4859810000000  0.5177140000000  0.6085400000000 1.0
C      1  0.5153010000000  0.5175440000000  0.6071300000000 1.0
C      1  0.4855170000000  0.5179460000000  0.3924150000000 1.0
C      1  0.4862890000000  0.4395880000000  0.4848640000000 1.0
C      1  0.5148900000000  0.4365740000000  0.5138050000000 1.0
C      1  0.4863930000000  0.4365530000000  0.5130910000000 1.0
C      1  0.5169340000000  0.4401830000000  0.4848330000000 1.0
C      1  0.5143680000000  0.4895220000000  0.5979950000000 1.0
C      1  0.4853070000000  0.4920570000000  0.4061950000000 1.0
C      1  0.5140680000000  0.4916780000000  0.4059810000000 1.0
C      1  0.4859190000000  0.4900330000000  0.5974670000000 1.0
C      1  0.5258170000000  0.4243420000000  0.4311570000000 1.0
C      1  0.4749250000000  0.4247440000000  0.5690970000000 1.0
C      1  0.5263750000000  0.4253980000000  0.5683050000000 1.0
C      1  0.4747030000000  0.4233080000000  0.4301040000000 1.0
C      1  0.5158520000000  0.5799890000000  0.5642880000000 1.0
C      1  0.4851720000000  0.5815670000000  0.4347180000000 1.0
C      1  0.5152910000000  0.5811880000000  0.4350070000000 1.0
C      1  0.4851890000000  0.5801270000000  0.5641780000000 1.0
C      1  0.3977360000000  0.4656870000000  0.4533480000000 1.0
C      1  0.6022530000000  0.4649080000000  0.5406260000000 1.0
C      1  0.3965080000000  0.4650640000000  0.5461990000000 1.0
C      1  0.6033230000000  0.4667980000000  0.4577770000000 1.0
C      1  0.4273360000000  0.5136990000000  0.4219040000000 1.0
C      1  0.5722690000000  0.5190980000000  0.5717300000000 1.0
C      1  0.4314000000000  0.5205080000000  0.5697200000000 1.0
C      1  0.5740380000000  0.5162820000000  0.4210790000000 1.0
C      1  0.4575310000000  0.5806130000000  0.5542580000000 1.0
C      1  0.5424620000000  0.5825580000000  0.4457630000000 1.0
C      1  0.4579740000000  0.5825310000000  0.4456480000000 1.0
C      1  0.5431520000000  0.5786860000000  0.5544300000000 1.0
C      1  0.5465870000000  0.4676620000000  0.5782650000000 1.0
C      1  0.4528080000000  0.4609960000000  0.4186950000000 1.0
C      1  0.5479570000000  0.4635700000000  0.4204450000000 1.0
C      1  0.4528800000000  0.4631660000000  0.5801980000000 1.0
C      1  0.5245250000000  0.4931840000000  0.4591890000000 1.0
C      1  0.4786380000000  0.4951230000000  0.5383150000000 1.0
C      1  0.5197220000000  0.5004610000000  0.5518600000000 1.0
C      1  0.4756740000000  0.4914000000000  0.4612120000000 1.0
C      1  0.4866040000000  0.4677300000000  0.4491840000000 1.0
C      1  0.5137920000000  0.4718090000000  0.5527130000000 1.0
C      1  0.4861020000000  0.4699860000000  0.5500690000000 1.0
C      1  0.5141310000000  0.4690380000000  0.4486320000000 1.0
C      1  0.4449920000000  0.4915440000000  0.5324590000000 1.0
C      1  0.5526920000000  0.4914840000000  0.4661230000000 1.0
C      1  0.4469030000000  0.4911840000000  0.4671430000000 1.0
C      1  0.5515200000000  0.4892050000000  0.5256720000000 1.0
C      1  0.5617350000000  0.5552530000000  0.5559940000000 1.0
C      1  0.4401100000000  0.5594210000000  0.4463490000000 1.0
C      1  0.5602820000000  0.5593460000000  0.4462510000000 1.0
C      1  0.4378120000000  0.5584680000000  0.5551180000000 1.0
C      1  0.5992100000000  0.5253680000000  0.5320900000000 1.0
C      1  0.4011490000000  0.5231000000000  0.4669790000000 1.0
C      1  0.5983990000000  0.5220540000000  0.4676310000000 1.0
C      1  0.4017440000000  0.5211200000000  0.5332440000000 1.0
C      1  0.4674010000000  0.4511030000000  0.5585940000000 1.0
C      1  0.5335080000000  0.4504870000000  0.4416490000000 1.0
C      1  0.4663700000000  0.4492410000000  0.4405260000000 1.0
C      1  0.5331570000000  0.4520990000000  0.5582860000000 1.0
C      1  0.5328530000000  0.4180290000000  0.4728140000000 1.0
C      1  0.4672990000000  0.4192120000000  0.5263400000000 1.0
C      1  0.5329300000000  0.4188400000000  0.5271530000000 1.0
C      1  0.4683970000000  0.4213430000000  0.4719610000000 1.0
C      1  0.4296740000000  0.4912240000000  0.4404240000000 1.0
C      1  0.5868590000000  0.4958210000000  0.5662810000000 1.0
C      1  0.4299800000000  0.4941270000000  0.5587470000000 1.0
C      1  0.5713900000000  0.4932640000000  0.4389910000000 1.0
C      1  0.4865100000000  0.5560500000000  0.4223180000000 1.0
C      1  0.5137070000000  0.5558330000000  0.5783340000000 1.0
C      1  0.4868550000000  0.5558920000000  0.5781030000000 1.0
C      1  0.5134940000000  0.5555340000000  0.4229290000000 1.0
C      1  0.4431900000000  0.4384930000000  0.5279890000000 1.0
C      1  0.5581170000000  0.4362680000000  0.4708530000000 1.0
C      1  0.4412510000000  0.4395870000000  0.4709640000000 1.0
C      1  0.5585820000000  0.4377500000000  0.5293480000000 1.0
C      1  0.5020720000000  0.5211200000000  0.4641360000000 1.0
C      1  0.5012330000000  0.5171690000000  0.5384530000000 1.0
END
