TITL C-2441163-1170-1193 0.0541473430089769 125000 -20976.3303183503 0 0 150 (C1) n - 1
REM
REM in /home/bkarasulu/work/CARBON/AIRSS/Generating-Clusters/ReaxFF-fromJPCA2015/Units_Real/with-SteepDescent/Higher-Symm
REM
REM
REM
REM
REM
REM ./C.cell (1df0a924f5614ab8850e4351716899ee)
REM
REM compiler GCC version 9.2.1 20190827 (Red Hat 9.2.1-1)
REM options -cpp -mtune=generic -march=x86-64 -g -O0 -fpre-include=/usr/include/finclude/math-vector-fortran.h
REM seed -1950948458 -377528703 -1132710451 -1868432600 -1840122946 -1754466816 -1113007716 1764988044 1510603470 -1647925489 -902179158 57245833 425303225 1371432876 -10897808 1190081317 -307230596 -813579405 -2076377592 -1129437255 -1192142961 -1500399016 1190385501 -1838362988 600244045 -226662326 -2060785463 -267057467 -888489794 2106467141 -281833060 -1412854149 1262580822
REM
CELL 1.54180   50.00000   50.00000   50.00000   90.00000   90.00000   90.00000
LATT -1
SFAC C  
C      1  0.5316830000000  0.4621440000000  0.5181850000000 1.0
C      1  0.5081520000000  0.4466580000000  0.5273050000000 1.0
C      1  0.4763570000000  0.4564280000000  0.5185010000000 1.0
C      1  0.4540670000000  0.4771680000000  0.5257560000000 1.0
C      1  0.4466240000000  0.5043310000000  0.5161690000000 1.0
C      1  0.4689440000000  0.5368770000000  0.5189190000000 1.0
C      1  0.4925440000000  0.5516070000000  0.5283280000000 1.0
C      1  0.5256670000000  0.5428480000000  0.5180450000000 1.0
C      1  0.5479830000000  0.5235500000000  0.5256460000000 1.0
C      1  0.5528460000000  0.4961220000000  0.5161700000000 1.0
C      1  0.4286640000000  0.4644920000000  0.5179130000000 1.0
C      1  0.4182850000000  0.5116840000000  0.5165020000000 1.0
C      1  0.4456650000000  0.5553860000000  0.5160970000000 1.0
C      1  0.4868290000000  0.5781920000000  0.5165620000000 1.0
C      1  0.5368750000000  0.5726190000000  0.5171410000000 1.0
C      1  0.5788260000000  0.5356440000000  0.5240950000000 1.0
C      1  0.5807360000000  0.4867470000000  0.5179610000000 1.0
C      1  0.5552250000000  0.4439060000000  0.5162900000000 1.0
C      1  0.5138970000000  0.4175670000000  0.5160110000000 1.0
C      1  0.4626090000000  0.4284000000000  0.5168000000000 1.0
C      1  0.4265530000000  0.4497850000000  0.4669470000000 1.0
C      1  0.4165540000000  0.5026620000000  0.4655290000000 1.0
C      1  0.4300130000000  0.5546300000000  0.4651250000000 1.0
C      1  0.4746690000000  0.5861900000000  0.4667890000000 1.0
C      1  0.5287880000000  0.5841370000000  0.4673660000000 1.0
C      1  0.5732610000000  0.5503520000000  0.4671630000000 1.0
C      1  0.5869230000000  0.4973460000000  0.4651230000000 1.0
C      1  0.5704670000000  0.4457640000000  0.4653350000000 1.0
C      1  0.5258690000000  0.4136930000000  0.4672260000000 1.0
C      1  0.4705170000000  0.4159080000000  0.4678640000000 1.0
C      1  0.4140010000000  0.4753500000000  0.4769960000000 1.0
C      1  0.4165530000000  0.5320060000000  0.4774240000000 1.0
C      1  0.4491890000000  0.5759540000000  0.4774450000000 1.0
C      1  0.5029830000000  0.5920140000000  0.4784360000000 1.0
C      1  0.5559070000000  0.5709290000000  0.4788880000000 1.0
C      1  0.5863750000000  0.5241430000000  0.4769870000000 1.0
C      1  0.5847060000000  0.4683480000000  0.4770580000000 1.0
C      1  0.5511950000000  0.4237680000000  0.4774390000000 1.0
C      1  0.4962120000000  0.4079780000000  0.4792180000000 1.0
C      1  0.4432670000000  0.4287440000000  0.4793710000000 1.0
C      1  0.4646600000000  0.5938640000000  0.5258980000000 1.0
C      1  0.5250430000000  0.5978300000000  0.5260090000000 1.0
C      1  0.5802760000000  0.5665540000000  0.5288950000000 1.0
C      1  0.6039500000000  0.5034130000000  0.5225970000000 1.0
C      1  0.5823990000000  0.4435870000000  0.5262010000000 1.0
C      1  0.5382900000000  0.4063750000000  0.5269080000000 1.0
C      1  0.4738730000000  0.4041650000000  0.5284570000000 1.0
C      1  0.4192230000000  0.4392850000000  0.5281080000000 1.0
C      1  0.3949980000000  0.4933400000000  0.5222370000000 1.0
C      1  0.4187620000000  0.5560700000000  0.5263130000000 1.0
C      1  0.4495540000000  0.5120220000000  0.4054240000000 1.0
C      1  0.4731530000000  0.5276880000000  0.4037100000000 1.0
C      1  0.4953360000000  0.5447640000000  0.4057580000000 1.0
C      1  0.5208720000000  0.5324990000000  0.4026460000000 1.0
C      1  0.5465220000000  0.5196250000000  0.4070970000000 1.0
C      1  0.5479610000000  0.4896460000000  0.4064770000000 1.0
C      1  0.5247490000000  0.4745380000000  0.4045640000000 1.0
C      1  0.5035380000000  0.4574910000000  0.4069310000000 1.0
C      1  0.4774430000000  0.4690650000000  0.4107340000000 1.0
C      1  0.4518100000000  0.4822370000000  0.4065780000000 1.0
C      1  0.4663410000000  0.4841660000000  0.4805250000000 1.0
C      1  0.4588930000000  0.5097340000000  0.4893470000000 1.0
C      1  0.4775400000000  0.5299250000000  0.4939510000000 1.0
C      1  0.4974570000000  0.5433280000000  0.4793670000000 1.0
C      1  0.5210570000000  0.5355320000000  0.4919780000000 1.0
C      1  0.5326030000000  0.5145190000000  0.4814590000000 1.0
C      1  0.5410040000000  0.4906230000000  0.4897200000000 1.0
C      1  0.5232220000000  0.4693360000000  0.4927890000000 1.0
C      1  0.5033470000000  0.4561520000000  0.4783610000000 1.0
C      1  0.4797550000000  0.4628990000000  0.4916030000000 1.0
C      1  0.5595080000000  0.4539840000000  0.5767460000000 1.0
C      1  0.5207520000000  0.4268930000000  0.5769710000000 1.0
C      1  0.4752020000000  0.4272660000000  0.5813450000000 1.0
C      1  0.4352160000000  0.4614260000000  0.5772880000000 1.0
C      1  0.4191420000000  0.4872740000000  0.5704370000000 1.0
C      1  0.4411170000000  0.5452250000000  0.5764180000000 1.0
C      1  0.4782070000000  0.5727860000000  0.5774990000000 1.0
C      1  0.5221540000000  0.5804730000000  0.5735670000000 1.0
C      1  0.5626620000000  0.5344850000000  0.5805700000000 1.0
C      1  0.5787200000000  0.5137720000000  0.5679300000000 1.0
C      1  0.5246480000000  0.5806160000000  0.4390280000000 1.0
C      1  0.5700380000000  0.5511400000000  0.4382660000000 1.0
C      1  0.5823900000000  0.5020280000000  0.4369620000000 1.0
C      1  0.5694680000000  0.4514940000000  0.4371480000000 1.0
C      1  0.5265980000000  0.4183080000000  0.4387860000000 1.0
C      1  0.4754460000000  0.4190410000000  0.4395760000000 1.0
C      1  0.4297790000000  0.4489310000000  0.4378970000000 1.0
C      1  0.4174850000000  0.4991520000000  0.4363180000000 1.0
C      1  0.4293790000000  0.5487110000000  0.4363660000000 1.0
C      1  0.4735280000000  0.5809600000000  0.4384030000000 1.0
C      1  0.4623930000000  0.5306310000000  0.5907160000000 1.0
C      1  0.4851110000000  0.5481280000000  0.5923870000000 1.0
C      1  0.5150980000000  0.5436040000000  0.5916060000000 1.0
C      1  0.5381670000000  0.5251280000000  0.5943390000000 1.0
C      1  0.5364330000000  0.4973580000000  0.5860030000000 1.0
C      1  0.5374560000000  0.4679510000000  0.5911800000000 1.0
C      1  0.5136660000000  0.4511460000000  0.5921620000000 1.0
C      1  0.4833260000000  0.4529970000000  0.5944570000000 1.0
C      1  0.4622290000000  0.4723970000000  0.5915900000000 1.0
C      1  0.4637820000000  0.5007430000000  0.5853250000000 1.0
C      1  0.5447950000000  0.4854540000000  0.4529450000000 1.0
C      1  0.5306800000000  0.4627630000000  0.4448080000000 1.0
C      1  0.5029840000000  0.4556090000000  0.4500250000000 1.0
C      1  0.4759140000000  0.4650550000000  0.4388260000000 1.0
C      1  0.4643700000000  0.4865660000000  0.4544780000000 1.0
C      1  0.4553470000000  0.5136200000000  0.4560360000000 1.0
C      1  0.4700780000000  0.5351990000000  0.4445860000000 1.0
C      1  0.4980130000000  0.5429190000000  0.4503570000000 1.0
C      1  0.5253490000000  0.5361390000000  0.4425750000000 1.0
C      1  0.5364150000000  0.5127160000000  0.4552730000000 1.0
C      1  0.4565040000000  0.4391290000000  0.4328640000000 1.0
C      1  0.4293940000000  0.4748950000000  0.4235240000000 1.0
C      1  0.4271660000000  0.5226050000000  0.4226310000000 1.0
C      1  0.4569460000000  0.5572720000000  0.4323630000000 1.0
C      1  0.4986040000000  0.5696740000000  0.4281350000000 1.0
C      1  0.5419700000000  0.5581940000000  0.4333160000000 1.0
C      1  0.5700060000000  0.5257110000000  0.4242620000000 1.0
C      1  0.5702850000000  0.4785250000000  0.4240340000000 1.0
C      1  0.5434310000000  0.4410770000000  0.4311410000000 1.0
C      1  0.5019350000000  0.4320220000000  0.4294090000000 1.0
C      1  0.4412370000000  0.5283880000000  0.5546930000000 1.0
C      1  0.4779470000000  0.5583490000000  0.5529560000000 1.0
C      1  0.5211080000000  0.5541670000000  0.5651210000000 1.0
C      1  0.5483870000000  0.5417390000000  0.5561440000000 1.0
C      1  0.5557030000000  0.4972930000000  0.5643470000000 1.0
C      1  0.5577820000000  0.4707890000000  0.5532100000000 1.0
C      1  0.5229650000000  0.4417770000000  0.5524930000000 1.0
C      1  0.4763440000000  0.4406230000000  0.5564290000000 1.0
C      1  0.4533990000000  0.4573340000000  0.5536220000000 1.0
C      1  0.4431540000000  0.5031490000000  0.5653590000000 1.0
C      1  0.4938050000000  0.3986770000000  0.5069060000000 1.0
C      1  0.4355930000000  0.4241620000000  0.5068850000000 1.0
C      1  0.4038990000000  0.4705830000000  0.5041280000000 1.0
C      1  0.4090550000000  0.5369410000000  0.5049920000000 1.0
C      1  0.4444730000000  0.5825000000000  0.5056540000000 1.0
C      1  0.5019190000000  0.6007650000000  0.5066380000000 1.0
C      1  0.5632420000000  0.5775750000000  0.5061480000000 1.0
C      1  0.5983170000000  0.5249190000000  0.5032480000000 1.0
C      1  0.5914170000000  0.4631610000000  0.5048400000000 1.0
C      1  0.5570170000000  0.4167910000000  0.5055670000000 1.0
C      1  0.4807070000000  0.4121060000000  0.5557840000000 1.0
C      1  0.4302760000000  0.4416920000000  0.5548040000000 1.0
C      1  0.4021990000000  0.4896910000000  0.5486730000000 1.0
C      1  0.4214310000000  0.5470620000000  0.5544690000000 1.0
C      1  0.4634100000000  0.5831710000000  0.5536200000000 1.0
C      1  0.5238970000000  0.5937220000000  0.5542290000000 1.0
C      1  0.5688590000000  0.5620400000000  0.5536870000000 1.0
C      1  0.5951790000000  0.5198010000000  0.5449690000000 1.0
C      1  0.5796540000000  0.4521980000000  0.5546060000000 1.0
C      1  0.5382350000000  0.4172990000000  0.5541430000000 1.0
END
