TITL C-2441162-9305-136 0.0255021798321931 125000 -10614.6406561988 0 0 79 (C1) n - 1
REM
REM in /home/bkarasulu/work/CARBON/AIRSS/Generating-Clusters/ReaxFF-fromJPCA2015/Units_Real/with-SteepDescent/Higher-Symm
REM
REM
REM
REM
REM
REM ./C.cell (1df0a924f5614ab8850e4351716899ee)
REM
REM compiler GCC version 9.2.1 20190827 (Red Hat 9.2.1-1)
REM options -cpp -mtune=generic -march=x86-64 -g -O0 -fpre-include=/usr/include/finclude/math-vector-fortran.h
REM seed 1498780333 -1554346206 346294949 -1318046177 642161329 -1511349023 1203224350 1768048179 -1053137134 1825999786 -105679288 249217291 -750246374 1428927781 -1646747135 567100487 1351779302 1617941189 -1395418795 1197300678 137552574 -2000133519 -1788582374 -1250998278 -1921957617 974272365 -44759615 -1249974387 -1729662156 -189048069 648914215 -43581812 -1392238715
REM
CELL 1.54180   50.00000   50.00000   50.00000   90.00000   90.00000   90.00000
LATT -1
SFAC C  
C      1  0.4481850000000  0.4570570000000  0.4681290000000 1.0
C      1  0.5501160000000  0.5458190000000  0.4744270000000 1.0
C      1  0.4517890000000  0.5508020000000  0.5273990000000 1.0
C      1  0.5527930000000  0.4522740000000  0.5287370000000 1.0
C      1  0.5358130000000  0.5246860000000  0.4897320000000 1.0
C      1  0.4633980000000  0.4738650000000  0.4851030000000 1.0
C      1  0.5374530000000  0.4702690000000  0.5128000000000 1.0
C      1  0.4642670000000  0.5287430000000  0.5113860000000 1.0
C      1  0.5533740000000  0.4637970000000  0.4509480000000 1.0
C      1  0.4469520000000  0.5317400000000  0.4493900000000 1.0
C      1  0.5528900000000  0.5329900000000  0.5462420000000 1.0
C      1  0.4453360000000  0.4690130000000  0.5522910000000 1.0
C      1  0.4354830000000  0.5442070000000  0.4760870000000 1.0
C      1  0.5660290000000  0.4589170000000  0.4762060000000 1.0
C      1  0.4370220000000  0.4597770000000  0.5257200000000 1.0
C      1  0.5637890000000  0.5425530000000  0.5214290000000 1.0
C      1  0.4635240000000  0.5149330000000  0.4676420000000 1.0
C      1  0.5375080000000  0.4858320000000  0.4631880000000 1.0
C      1  0.4657840000000  0.4885630000000  0.5248770000000 1.0
C      1  0.5359700000000  0.5112590000000  0.5343820000000 1.0
C      1  0.5414090000000  0.5628660000000  0.5155380000000 1.0
C      1  0.4599150000000  0.4373370000000  0.5170410000000 1.0
C      1  0.5406830000000  0.4371970000000  0.4823600000000 1.0
C      1  0.4600580000000  0.5639520000000  0.4835590000000 1.0
C      1  0.4661600000000  0.5705610000000  0.5110370000000 1.0
C      1  0.5305180000000  0.4258140000000  0.5059470000000 1.0
C      1  0.4717540000000  0.4265570000000  0.4939610000000 1.0
C      1  0.5361420000000  0.5684290000000  0.4875420000000 1.0
C      1  0.4702220000000  0.4814400000000  0.4404690000000 1.0
C      1  0.5308140000000  0.5229700000000  0.4406710000000 1.0
C      1  0.4704750000000  0.5190910000000  0.5604590000000 1.0
C      1  0.5211270000000  0.4716000000000  0.5603370000000 1.0
C      1  0.4804430000000  0.5648580000000  0.4631790000000 1.0
C      1  0.5188900000000  0.4348250000000  0.4625840000000 1.0
C      1  0.4797570000000  0.4370750000000  0.5382340000000 1.0
C      1  0.5206670000000  0.5661500000000  0.5356010000000 1.0
C      1  0.5522660000000  0.5093690000000  0.4541710000000 1.0
C      1  0.4487400000000  0.4960530000000  0.4524300000000 1.0
C      1  0.5360240000000  0.4966440000000  0.5604580000000 1.0
C      1  0.4518180000000  0.4976660000000  0.5487820000000 1.0
C      1  0.4716130000000  0.4561630000000  0.5582490000000 1.0
C      1  0.5302130000000  0.5497990000000  0.5580370000000 1.0
C      1  0.4726370000000  0.5476530000000  0.4408690000000 1.0
C      1  0.5277170000000  0.4504240000000  0.4396090000000 1.0
C      1  0.4907990000000  0.4661510000000  0.4802140000000 1.0
C      1  0.5103930000000  0.5341640000000  0.4814170000000 1.0
C      1  0.4908230000000  0.5361300000000  0.5179730000000 1.0
C      1  0.5102670000000  0.4625950000000  0.5178890000000 1.0
C      1  0.4886170000000  0.5014200000000  0.5770360000000 1.0
C      1  0.5174250000000  0.5092280000000  0.5801020000000 1.0
C      1  0.4871660000000  0.5019870000000  0.4220390000000 1.0
C      1  0.5162780000000  0.4990880000000  0.4223400000000 1.0
C      1  0.4685990000000  0.4534380000000  0.4488260000000 1.0
C      1  0.5322130000000  0.5498900000000  0.4505290000000 1.0
C      1  0.4699120000000  0.5463250000000  0.5503440000000 1.0
C      1  0.5325640000000  0.4475600000000  0.5478960000000 1.0
C      1  0.5107100000000  0.5627240000000  0.4695970000000 1.0
C      1  0.4891690000000  0.4380020000000  0.4701070000000 1.0
C      1  0.5100890000000  0.4356320000000  0.5299920000000 1.0
C      1  0.4910920000000  0.5629300000000  0.5303360000000 1.0
C      1  0.5762530000000  0.4961270000000  0.5126840000000 1.0
C      1  0.4246300000000  0.5053180000000  0.5162380000000 1.0
C      1  0.5741350000000  0.5125340000000  0.4743680000000 1.0
C      1  0.4217030000000  0.4923060000000  0.4768960000000 1.0
C      1  0.4897790000000  0.5161750000000  0.4775810000000 1.0
C      1  0.5131110000000  0.4828780000000  0.4787610000000 1.0
C      1  0.4917800000000  0.4819000000000  0.5198210000000 1.0
C      1  0.5094020000000  0.5173590000000  0.5224730000000 1.0
C      1  0.5781910000000  0.4844540000000  0.4857810000000 1.0
C      1  0.4206020000000  0.5198340000000  0.4900680000000 1.0
C      1  0.5784890000000  0.5235000000000  0.5027040000000 1.0
C      1  0.4222580000000  0.4776530000000  0.5093800000000 1.0
C      1  0.5135420000000  0.4720760000000  0.4288850000000 1.0
C      1  0.4905830000000  0.5291990000000  0.4298520000000 1.0
C      1  0.5106300000000  0.5344330000000  0.5712420000000 1.0
C      1  0.4930750000000  0.4736330000000  0.5683480000000 1.0
C      1  0.5463540000000  0.4994430000000  0.5090380000000 1.0
C      1  0.4536160000000  0.5016170000000  0.5046690000000 1.0
C      1  0.5019490000000  0.5003400000000  0.4996420000000 1.0
END
