TITL C-2441158-471-322 0.071777171089699 125000 -28015.3332243585 0 0 196 (C1) n - 1
REM
REM in /home/bkarasulu/work/CARBON/AIRSS/Generating-Clusters/ReaxFF-fromJPCA2015/Units_Real/with-SteepDescent/Higher-Symm
REM
REM
REM
REM
REM
REM ./C.cell (1df0a924f5614ab8850e4351716899ee)
REM
REM compiler GCC version 9.2.1 20190827 (Red Hat 9.2.1-1)
REM options -cpp -mtune=generic -march=x86-64 -g -O0 -fpre-include=/usr/include/finclude/math-vector-fortran.h
REM seed 1943806064 321614346 528967331 1684077397 -40971832 -832568966 1804490478 946243625 2089103242 -1400024158 -1300561317 1032748677 2033350695 357720181 1155280141 1396206149 -1676230289 1367763645 -131721742 -616254863 -523868403 300460717 545426547 255874815 975189891 480318299 1747486549 456245080 -603878436 217438465 743115012 -853871699 -1549392702
REM
CELL 1.54180   50.00000   50.00000   50.00000   90.00000   90.00000   90.00000
LATT -1
SFAC C  
C      1  0.5232460000000  0.4892110000000  0.4308230000000 1.0
C      1  0.4876990000000  0.4897210000000  0.4537250000000 1.0
C      1  0.5005630000000  0.5122420000000  0.4574870000000 1.0
C      1  0.5929530000000  0.5514910000000  0.4616650000000 1.0
C      1  0.4936040000000  0.3946620000000  0.4646810000000 1.0
C      1  0.4126990000000  0.5576030000000  0.4627480000000 1.0
C      1  0.5271500000000  0.4114610000000  0.5197880000000 1.0
C      1  0.4104740000000  0.5215020000000  0.5225120000000 1.0
C      1  0.5630060000000  0.5661430000000  0.5183210000000 1.0
C      1  0.3910120000000  0.5168360000000  0.4780290000000 1.0
C      1  0.5670320000000  0.5856510000000  0.4839600000000 1.0
C      1  0.5404460000000  0.3997590000000  0.4833090000000 1.0
C      1  0.5138620000000  0.4773310000000  0.5583850000000 1.0
C      1  0.4732160000000  0.5009990000000  0.5584620000000 1.0
C      1  0.5145670000000  0.5241500000000  0.5572660000000 1.0
C      1  0.4441150000000  0.4960390000000  0.3993000000000 1.0
C      1  0.5247310000000  0.5486970000000  0.4011480000000 1.0
C      1  0.5297740000000  0.4529270000000  0.3999150000000 1.0
C      1  0.4147210000000  0.5453890000000  0.5623180000000 1.0
C      1  0.5823500000000  0.5518060000000  0.5616200000000 1.0
C      1  0.4994000000000  0.4061950000000  0.5610570000000 1.0
C      1  0.5686400000000  0.4080590000000  0.4919430000000 1.0
C      1  0.3862720000000  0.4895920000000  0.4890510000000 1.0
C      1  0.5465600000000  0.6063290000000  0.4917620000000 1.0
C      1  0.4591910000000  0.4064530000000  0.5310030000000 1.0
C      1  0.4392870000000  0.5796830000000  0.5370280000000 1.0
C      1  0.5995570000000  0.5130600000000  0.5367040000000 1.0
C      1  0.4761290000000  0.5212280000000  0.4955640000000 1.0
C      1  0.5342950000000  0.5043500000000  0.4955310000000 1.0
C      1  0.4927750000000  0.4744460000000  0.4971870000000 1.0
C      1  0.4866750000000  0.5875970000000  0.5668210000000 1.0
C      1  0.5827010000000  0.4686570000000  0.5660860000000 1.0
C      1  0.4517290000000  0.4312480000000  0.5678560000000 1.0
C      1  0.5105960000000  0.3936420000000  0.5367510000000 1.0
C      1  0.3997860000000  0.5446560000000  0.5362960000000 1.0
C      1  0.5874110000000  0.5640110000000  0.5347800000000 1.0
C      1  0.4193220000000  0.5527140000000  0.4353220000000 1.0
C      1  0.5875420000000  0.5439200000000  0.4347860000000 1.0
C      1  0.4938960000000  0.4048330000000  0.4365710000000 1.0
C      1  0.4885250000000  0.5659450000000  0.4684220000000 1.0
C      1  0.5619410000000  0.4788760000000  0.4676650000000 1.0
C      1  0.4504080000000  0.4601050000000  0.4681670000000 1.0
C      1  0.5604440000000  0.5559130000000  0.5826570000000 1.0
C      1  0.5162120000000  0.4214460000000  0.5814950000000 1.0
C      1  0.4222370000000  0.5232880000000  0.5823330000000 1.0
C      1  0.5334060000000  0.5864170000000  0.5573580000000 1.0
C      1  0.5604280000000  0.4266270000000  0.5587300000000 1.0
C      1  0.4077250000000  0.4840580000000  0.5574120000000 1.0
C      1  0.4989430000000  0.4454910000000  0.4541760000000 1.0
C      1  0.4604630000000  0.5230400000000  0.4477100000000 1.0
C      1  0.5474500000000  0.5267780000000  0.4526990000000 1.0
C      1  0.5176160000000  0.4222140000000  0.4384090000000 1.0
C      1  0.4130840000000  0.5256110000000  0.4290330000000 1.0
C      1  0.5587990000000  0.5523090000000  0.4388750000000 1.0
C      1  0.5119410000000  0.5594070000000  0.5939320000000 1.0
C      1  0.5461510000000  0.4606980000000  0.5931250000000 1.0
C      1  0.4437170000000  0.4796730000000  0.5922520000000 1.0
C      1  0.6027950000000  0.4835090000000  0.4542010000000 1.0
C      1  0.4298600000000  0.4191110000000  0.4518460000000 1.0
C      1  0.4628000000000  0.5965010000000  0.4533310000000 1.0
C      1  0.4219530000000  0.5002670000000  0.5375610000000 1.0
C      1  0.5416280000000  0.5640280000000  0.5392910000000 1.0
C      1  0.5401650000000  0.4298130000000  0.5377690000000 1.0
C      1  0.5972080000000  0.4674910000000  0.5068140000000 1.0
C      1  0.4211900000000  0.4323160000000  0.5049030000000 1.0
C      1  0.4796440000000  0.6018920000000  0.5071250000000 1.0
C      1  0.5224660000000  0.6069980000000  0.4748750000000 1.0
C      1  0.5809380000000  0.4284880000000  0.4750080000000 1.0
C      1  0.3974800000000  0.4677810000000  0.4725490000000 1.0
C      1  0.4200110000000  0.4939080000000  0.5819780000000 1.0
C      1  0.5365970000000  0.5727830000000  0.5825980000000 1.0
C      1  0.5428920000000  0.4332380000000  0.5808890000000 1.0
C      1  0.5199580000000  0.5185100000000  0.4368300000000 1.0
C      1  0.5046460000000  0.4715220000000  0.4424900000000 1.0
C      1  0.4674540000000  0.4985500000000  0.4346640000000 1.0
C      1  0.4189480000000  0.4174220000000  0.4789660000000 1.0
C      1  0.4617650000000  0.6052440000000  0.4817720000000 1.0
C      1  0.6114780000000  0.4802460000000  0.4827310000000 1.0
C      1  0.5748740000000  0.4230960000000  0.5159270000000 1.0
C      1  0.3981600000000  0.4771790000000  0.5126690000000 1.0
C      1  0.5304440000000  0.6034380000000  0.5157470000000 1.0
C      1  0.5370040000000  0.4839850000000  0.4053230000000 1.0
C      1  0.4677230000000  0.4795030000000  0.4092740000000 1.0
C      1  0.5006850000000  0.5364840000000  0.4140750000000 1.0
C      1  0.4237110000000  0.5793940000000  0.5120800000000 1.0
C      1  0.6075340000000  0.5260830000000  0.5115640000000 1.0
C      1  0.4710060000000  0.3926710000000  0.5079450000000 1.0
C      1  0.4002120000000  0.4549240000000  0.5508440000000 1.0
C      1  0.5091590000000  0.6025880000000  0.5523880000000 1.0
C      1  0.5855340000000  0.4414250000000  0.5526900000000 1.0
C      1  0.4992640000000  0.5872990000000  0.4862070000000 1.0
C      1  0.5745670000000  0.4588500000000  0.4858790000000 1.0
C      1  0.4262910000000  0.4584240000000  0.4839310000000 1.0
C      1  0.4967410000000  0.5178110000000  0.3913870000000 1.0
C      1  0.5162120000000  0.4960690000000  0.3869250000000 1.0
C      1  0.4883100000000  0.4891170000000  0.3897230000000 1.0
C      1  0.5200400000000  0.5557780000000  0.5227560000000 1.0
C      1  0.5389260000000  0.4540240000000  0.5242180000000 1.0
C      1  0.4441540000000  0.4901970000000  0.5216850000000 1.0
C      1  0.4349550000000  0.5236810000000  0.4091750000000 1.0
C      1  0.5534640000000  0.5433090000000  0.4102040000000 1.0
C      1  0.5107810000000  0.4321240000000  0.4095640000000 1.0
C      1  0.5210260000000  0.5780570000000  0.4041090000000 1.0
C      1  0.5512360000000  0.4451680000000  0.4134020000000 1.0
C      1  0.4245990000000  0.4827200000000  0.4125740000000 1.0
C      1  0.5873250000000  0.5240030000000  0.5614800000000 1.0
C      1  0.4705340000000  0.4097850000000  0.5580270000000 1.0
C      1  0.4359330000000  0.5637470000000  0.5616830000000 1.0
C      1  0.5044410000000  0.6109770000000  0.5250520000000 1.0
C      1  0.5946240000000  0.4415700000000  0.5251620000000 1.0
C      1  0.3992630000000  0.4495880000000  0.5222290000000 1.0
C      1  0.5672830000000  0.5036860000000  0.4529120000000 1.0
C      1  0.4680690000000  0.4430770000000  0.4532940000000 1.0
C      1  0.4654130000000  0.5533080000000  0.4542420000000 1.0
C      1  0.4698320000000  0.4929640000000  0.4952570000000 1.0
C      1  0.4994970000000  0.5258500000000  0.4791380000000 1.0
C      1  0.5188210000000  0.4839870000000  0.4849860000000 1.0
C      1  0.5748540000000  0.4462810000000  0.4278410000000 1.0
C      1  0.4135280000000  0.4611530000000  0.4255870000000 1.0
C      1  0.5092240000000  0.5915480000000  0.4279600000000 1.0
C      1  0.5224600000000  0.5341070000000  0.6036290000000 1.0
C      1  0.5212870000000  0.4641670000000  0.6072680000000 1.0
C      1  0.4592150000000  0.5014710000000  0.6033620000000 1.0
C      1  0.4558320000000  0.4877070000000  0.4710820000000 1.0
C      1  0.5106210000000  0.5498290000000  0.4697840000000 1.0
C      1  0.5360540000000  0.4684450000000  0.4694660000000 1.0
C      1  0.5424410000000  0.4166690000000  0.4579760000000 1.0
C      1  0.4062600000000  0.5074120000000  0.4537080000000 1.0
C      1  0.5505850000000  0.5778370000000  0.4594720000000 1.0
C      1  0.5634530000000  0.5122710000000  0.5776070000000 1.0
C      1  0.4839210000000  0.4524770000000  0.5846750000000 1.0
C      1  0.4584110000000  0.5493150000000  0.5787980000000 1.0
C      1  0.4827900000000  0.4248020000000  0.4159010000000 1.0
C      1  0.4450220000000  0.5499900000000  0.4172230000000 1.0
C      1  0.5741250000000  0.5234620000000  0.4144600000000 1.0
C      1  0.4574140000000  0.4175670000000  0.4603670000000 1.0
C      1  0.4429360000000  0.5749230000000  0.4612630000000 1.0
C      1  0.5964160000000  0.5113440000000  0.4599760000000 1.0
C      1  0.5518880000000  0.5223390000000  0.5290900000000 1.0
C      1  0.4921760000000  0.4429520000000  0.5326380000000 1.0
C      1  0.4555760000000  0.5355400000000  0.5311050000000 1.0
C      1  0.4816500000000  0.5680160000000  0.5461110000000 1.0
C      1  0.5677130000000  0.4831090000000  0.5457970000000 1.0
C      1  0.4477940000000  0.4497760000000  0.5465250000000 1.0
C      1  0.5535550000000  0.4462030000000  0.5015990000000 1.0
C      1  0.4255920000000  0.4821810000000  0.5003590000000 1.0
C      1  0.5205120000000  0.5743620000000  0.5020910000000 1.0
C      1  0.4981940000000  0.3835640000000  0.5118550000000 1.0
C      1  0.4016300000000  0.5604690000000  0.5115150000000 1.0
C      1  0.6020280000000  0.5545180000000  0.5113330000000 1.0
C      1  0.5861570000000  0.4901340000000  0.5249200000000 1.0
C      1  0.4454870000000  0.4312790000000  0.5247850000000 1.0
C      1  0.4662220000000  0.5810050000000  0.5257210000000 1.0
C      1  0.4389870000000  0.5885840000000  0.4876210000000 1.0
C      1  0.6087770000000  0.5087370000000  0.4866990000000 1.0
C      1  0.4688150000000  0.3985360000000  0.4789780000000 1.0
C      1  0.5902690000000  0.5662220000000  0.4857410000000 1.0
C      1  0.5132400000000  0.3893730000000  0.4863980000000 1.0
C      1  0.3986480000000  0.5448390000000  0.4843530000000 1.0
C      1  0.5040270000000  0.4426620000000  0.4858330000000 1.0
C      1  0.4461310000000  0.5284300000000  0.4859360000000 1.0
C      1  0.5468390000000  0.5292690000000  0.4836900000000 1.0
C      1  0.4636340000000  0.4786170000000  0.5401510000000 1.0
C      1  0.5006880000000  0.5415500000000  0.5369640000000 1.0
C      1  0.5353350000000  0.4781630000000  0.5381540000000 1.0
C      1  0.5662930000000  0.4806420000000  0.5866330000000 1.0
C      1  0.4548910000000  0.4521660000000  0.5884860000000 1.0
C      1  0.4848130000000  0.5671760000000  0.5871590000000 1.0
C      1  0.4317590000000  0.5046340000000  0.4766220000000 1.0
C      1  0.5341190000000  0.5603840000000  0.4801560000000 1.0
C      1  0.5343120000000  0.4415550000000  0.4798200000000 1.0
C      1  0.4734000000000  0.5576900000000  0.4218560000000 1.0
C      1  0.5686600000000  0.4947570000000  0.4191940000000 1.0
C      1  0.4612030000000  0.4459100000000  0.4197890000000 1.0
C      1  0.3994870000000  0.4781120000000  0.4462630000000 1.0
C      1  0.5295770000000  0.5975660000000  0.4491420000000 1.0
C      1  0.5700890000000  0.4253640000000  0.4489820000000 1.0
C      1  0.5050290000000  0.4405690000000  0.6002110000000 1.0
C      1  0.4463930000000  0.5277940000000  0.5972810000000 1.0
C      1  0.5515350000000  0.5322350000000  0.5969800000000 1.0
C      1  0.4983280000000  0.4536140000000  0.5594550000000 1.0
C      1  0.4605090000000  0.5267230000000  0.5582740000000 1.0
C      1  0.5429300000000  0.5267360000000  0.5564550000000 1.0
C      1  0.4852260000000  0.4682760000000  0.5243400000000 1.0
C      1  0.4802190000000  0.5307150000000  0.5211060000000 1.0
C      1  0.5357830000000  0.5014450000000  0.5214730000000 1.0
C      1  0.5098990000000  0.4867720000000  0.6222220000000 1.0
C      1  0.4831450000000  0.4989410000000  0.6204010000000 1.0
C      1  0.5072510000000  0.5159450000000  0.6209390000000 1.0
C      1  0.4349200000000  0.5336830000000  0.5112220000000 1.0
C      1  0.5607400000000  0.5388870000000  0.5077680000000 1.0
C      1  0.5043220000000  0.4283660000000  0.5111310000000 1.0
C      1  0.4803820000000  0.5852000000000  0.4320950000000 1.0
C      1  0.5856620000000  0.4740540000000  0.4318520000000 1.0
C      1  0.4339840000000  0.4397020000000  0.4292680000000 1.0
C      1  0.5007370000000  0.5011350000000  0.5638410000000 1.0
END
