TITL C-2441169-1362-1240 0.0961209654580275 125000 -24962.1951500588 0 0 182 (C1) n - 1
REM
REM in /home/bkarasulu/work/CARBON/AIRSS/Generating-Clusters/ReaxFF-fromJPCA2015/Units_Real/with-SteepDescent/Higher-Symm
REM
REM
REM
REM
REM
REM ./C.cell (1df0a924f5614ab8850e4351716899ee)
REM
REM compiler GCC version 9.2.1 20190827 (Red Hat 9.2.1-1)
REM options -cpp -mtune=generic -march=x86-64 -g -O0 -fpre-include=/usr/include/finclude/math-vector-fortran.h
REM seed 396588899 -1974002293 2023512623 1418989853 1083792769 484439511 -1677758465 1232381447 1295734146 645722583 595195028 1309186728 1699718753 -544609823 -392972905 1565846468 33467084 1883904778 2054720587 1351583178 1632244973 757751407 -1372527475 1390347656 2091779194 -460537924 2081591954 483562576 -1251040232 -676576565 -2103313797 487401188 -931628751
REM
CELL 1.54180   50.00000   50.00000   50.00000   90.00000   90.00000   90.00000
LATT -1
SFAC C  
C      1  0.4939240000000  0.5844790000000  0.5419180000000 1.0
C      1  0.4662610000000  0.5884560000000  0.4733350000000 1.0
C      1  0.5416820000000  0.5841320000000  0.4829680000000 1.0
C      1  0.4866100000000  0.4999320000000  0.3900250000000 1.0
C      1  0.5997830000000  0.4964420000000  0.5515710000000 1.0
C      1  0.4087750000000  0.4873720000000  0.5626790000000 1.0
C      1  0.4596180000000  0.4242670000000  0.4526070000000 1.0
C      1  0.5621170000000  0.4383390000000  0.5067190000000 1.0
C      1  0.4622160000000  0.4247860000000  0.5635520000000 1.0
C      1  0.4696570000000  0.5273970000000  0.5160170000000 1.0
C      1  0.4935360000000  0.5301530000000  0.4659020000000 1.0
C      1  0.5328430000000  0.5338490000000  0.5260840000000 1.0
C      1  0.5847580000000  0.4354910000000  0.5257870000000 1.0
C      1  0.4334920000000  0.4327750000000  0.5669260000000 1.0
C      1  0.4854210000000  0.4336350000000  0.4096210000000 1.0
C      1  0.4489590000000  0.5062530000000  0.4519250000000 1.0
C      1  0.5719850000000  0.4977490000000  0.4787860000000 1.0
C      1  0.4867110000000  0.5012620000000  0.5668720000000 1.0
C      1  0.5079410000000  0.5477620000000  0.4825900000000 1.0
C      1  0.5128300000000  0.5486040000000  0.5121860000000 1.0
C      1  0.4872170000000  0.5466700000000  0.5036910000000 1.0
C      1  0.5051480000000  0.4710160000000  0.6058480000000 1.0
C      1  0.4057210000000  0.4729250000000  0.4476710000000 1.0
C      1  0.5873720000000  0.4697840000000  0.4424870000000 1.0
C      1  0.5417820000000  0.4627130000000  0.5512770000000 1.0
C      1  0.4371900000000  0.4621420000000  0.5023180000000 1.0
C      1  0.5259200000000  0.4608350000000  0.4437050000000 1.0
C      1  0.4657220000000  0.5667170000000  0.5760490000000 1.0
C      1  0.4508080000000  0.5680590000000  0.4291020000000 1.0
C      1  0.5783800000000  0.5684370000000  0.4893880000000 1.0
C      1  0.5051450000000  0.4782290000000  0.3907740000000 1.0
C      1  0.5935020000000  0.4677970000000  0.5588120000000 1.0
C      1  0.4074360000000  0.4649040000000  0.5426790000000 1.0
C      1  0.4975100000000  0.5901020000000  0.4251310000000 1.0
C      1  0.5645440000000  0.5898300000000  0.5352740000000 1.0
C      1  0.4380880000000  0.5904250000000  0.5392690000000 1.0
C      1  0.4777150000000  0.5428730000000  0.4487650000000 1.0
C      1  0.5564610000000  0.5413840000000  0.5111840000000 1.0
C      1  0.4624530000000  0.5403900000000  0.5412660000000 1.0
C      1  0.4475430000000  0.5201080000000  0.5853050000000 1.0
C      1  0.4459550000000  0.5230980000000  0.4078450000000 1.0
C      1  0.6032460000000  0.5225940000000  0.5030810000000 1.0
C      1  0.4591070000000  0.4736890000000  0.4050740000000 1.0
C      1  0.5953350000000  0.4784720000000  0.5148740000000 1.0
C      1  0.4460010000000  0.4775310000000  0.5787500000000 1.0
C      1  0.4644250000000  0.4836740000000  0.4641530000000 1.0
C      1  0.5479980000000  0.4825950000000  0.4817280000000 1.0
C      1  0.4988110000000  0.4776230000000  0.5534780000000 1.0
C      1  0.5266840000000  0.5083160000000  0.4513230000000 1.0
C      1  0.5293620000000  0.5153210000000  0.5477590000000 1.0
C      1  0.4464450000000  0.5106630000000  0.5008310000000 1.0
C      1  0.4206110000000  0.5527590000000  0.4710920000000 1.0
C      1  0.5631180000000  0.5491810000000  0.4402040000000 1.0
C      1  0.5162310000000  0.5520630000000  0.5845910000000 1.0
C      1  0.4286930000000  0.5516760000000  0.4411970000000 1.0
C      1  0.5852540000000  0.5531440000000  0.4651870000000 1.0
C      1  0.4860340000000  0.5506150000000  0.5902740000000 1.0
C      1  0.4405080000000  0.4420700000000  0.4418580000000 1.0
C      1  0.5775710000000  0.4432950000000  0.4801650000000 1.0
C      1  0.4793940000000  0.4385220000000  0.5823140000000 1.0
C      1  0.4875960000000  0.4135870000000  0.4553510000000 1.0
C      1  0.5425450000000  0.4174210000000  0.5159170000000 1.0
C      1  0.4619020000000  0.4141510000000  0.5370350000000 1.0
C      1  0.4641580000000  0.5663750000000  0.4550240000000 1.0
C      1  0.5511780000000  0.5573650000000  0.4873690000000 1.0
C      1  0.4793150000000  0.5613450000000  0.5509560000000 1.0
C      1  0.5196930000000  0.4655380000000  0.5105750000000 1.0
C      1  0.4751150000000  0.4587270000000  0.5172200000000 1.0
C      1  0.4964520000000  0.4570280000000  0.4743720000000 1.0
C      1  0.5298160000000  0.6000040000000  0.5032120000000 1.0
C      1  0.4840480000000  0.6013340000000  0.5227720000000 1.0
C      1  0.4901740000000  0.6014530000000  0.4740770000000 1.0
C      1  0.5481880000000  0.4645930000000  0.5226940000000 1.0
C      1  0.4504730000000  0.4688680000000  0.5264920000000 1.0
C      1  0.4972990000000  0.4673860000000  0.4464340000000 1.0
C      1  0.5198880000000  0.4219240000000  0.4774060000000 1.0
C      1  0.5113550000000  0.4245600000000  0.5298300000000 1.0
C      1  0.4828680000000  0.4162660000000  0.4983330000000 1.0
C      1  0.5727610000000  0.4472420000000  0.4529980000000 1.0
C      1  0.5049040000000  0.4475020000000  0.5895720000000 1.0
C      1  0.4192190000000  0.4496230000000  0.4571500000000 1.0
C      1  0.4779270000000  0.3981910000000  0.4785180000000 1.0
C      1  0.5339460000000  0.4043690000000  0.4923570000000 1.0
C      1  0.4868490000000  0.4077670000000  0.5239250000000 1.0
C      1  0.5339520000000  0.4439770000000  0.5753870000000 1.0
C      1  0.4171190000000  0.4446300000000  0.4868990000000 1.0
C      1  0.5470080000000  0.4429690000000  0.4332640000000 1.0
C      1  0.5008410000000  0.5539130000000  0.4059790000000 1.0
C      1  0.5813350000000  0.5553300000000  0.5490590000000 1.0
C      1  0.4192610000000  0.5541810000000  0.5450990000000 1.0
C      1  0.5996190000000  0.4571190000000  0.5335060000000 1.0
C      1  0.4258290000000  0.4575780000000  0.5789300000000 1.0
C      1  0.4837150000000  0.4580910000000  0.3972450000000 1.0
C      1  0.5921350000000  0.5194030000000  0.4439890000000 1.0
C      1  0.5201060000000  0.5092080000000  0.6059480000000 1.0
C      1  0.3989750000000  0.5098490000000  0.4643710000000 1.0
C      1  0.4727910000000  0.5260750000000  0.5993500000000 1.0
C      1  0.4231160000000  0.5277830000000  0.4251640000000 1.0
C      1  0.6009640000000  0.5317200000000  0.4751230000000 1.0
C      1  0.5504640000000  0.4657180000000  0.4109990000000 1.0
C      1  0.5495810000000  0.4635200000000  0.5925460000000 1.0
C      1  0.3942950000000  0.4634710000000  0.4929420000000 1.0
C      1  0.5784230000000  0.5668090000000  0.5203990000000 1.0
C      1  0.4398280000000  0.5692010000000  0.5602990000000 1.0
C      1  0.4777690000000  0.5701060000000  0.4155990000000 1.0
C      1  0.5080990000000  0.4087140000000  0.4331460000000 1.0
C      1  0.5552410000000  0.4126250000000  0.5456440000000 1.0
C      1  0.4365370000000  0.4206930000000  0.5236640000000 1.0
C      1  0.4592110000000  0.5154160000000  0.5578280000000 1.0
C      1  0.4660990000000  0.5237080000000  0.4301670000000 1.0
C      1  0.5730510000000  0.5153090000000  0.5024400000000 1.0
C      1  0.5385500000000  0.5980130000000  0.5292350000000 1.0
C      1  0.4567010000000  0.5996780000000  0.5190200000000 1.0
C      1  0.5068600000000  0.5976370000000  0.4518920000000 1.0
C      1  0.5733780000000  0.5062840000000  0.5447970000000 1.0
C      1  0.4200280000000  0.5047310000000  0.5425690000000 1.0
C      1  0.4919300000000  0.5102270000000  0.4177130000000 1.0
C      1  0.3935810000000  0.4745020000000  0.5188240000000 1.0
C      1  0.5318250000000  0.4855880000000  0.4015160000000 1.0
C      1  0.5731250000000  0.4754530000000  0.5792420000000 1.0
C      1  0.5614310000000  0.5271250000000  0.5866110000000 1.0
C      1  0.3961310000000  0.5272280000000  0.5081940000000 1.0
C      1  0.5594350000000  0.5281210000000  0.4198780000000 1.0
C      1  0.5772710000000  0.5080450000000  0.4230690000000 1.0
C      1  0.5327050000000  0.5313740000000  0.5946960000000 1.0
C      1  0.4037140000000  0.5322600000000  0.4804110000000 1.0
C      1  0.5226590000000  0.4509520000000  0.4845770000000 1.0
C      1  0.4993220000000  0.4577410000000  0.5311080000000 1.0
C      1  0.4779420000000  0.4436920000000  0.4923780000000 1.0
C      1  0.3913320000000  0.4819920000000  0.4705520000000 1.0
C      1  0.5740430000000  0.4796300000000  0.4184600000000 1.0
C      1  0.5313260000000  0.4814640000000  0.6074530000000 1.0
C      1  0.4601500000000  0.4665660000000  0.6222570000000 1.0
C      1  0.4186350000000  0.4695010000000  0.4050810000000 1.0
C      1  0.6243980000000  0.4646210000000  0.4757780000000 1.0
C      1  0.5193290000000  0.5725490000000  0.4167780000000 1.0
C      1  0.5612140000000  0.5737550000000  0.5595010000000 1.0
C      1  0.4212180000000  0.5725640000000  0.5234090000000 1.0
C      1  0.5671880000000  0.4916540000000  0.5207990000000 1.0
C      1  0.4467210000000  0.4967140000000  0.5352570000000 1.0
C      1  0.5038680000000  0.4955660000000  0.4398590000000 1.0
C      1  0.5261860000000  0.4866090000000  0.5550970000000 1.0
C      1  0.4467670000000  0.4839710000000  0.4882080000000 1.0
C      1  0.5399840000000  0.4829310000000  0.4536280000000 1.0
C      1  0.5083070000000  0.4294600000000  0.4139720000000 1.0
C      1  0.5754900000000  0.4311470000000  0.5514120000000 1.0
C      1  0.4197290000000  0.4381000000000  0.5418800000000 1.0
C      1  0.4927280000000  0.5039050000000  0.5988470000000 1.0
C      1  0.4176000000000  0.5039840000000  0.4431730000000 1.0
C      1  0.5917010000000  0.4942120000000  0.4586130000000 1.0
C      1  0.5309620000000  0.5037610000000  0.4932850000000 1.0
C      1  0.4903380000000  0.5068260000000  0.5256450000000 1.0
C      1  0.4831280000000  0.5051730000000  0.4770140000000 1.0
C      1  0.5112040000000  0.5284350000000  0.4085710000000 1.0
C      1  0.5665460000000  0.5315440000000  0.5573640000000 1.0
C      1  0.4106290000000  0.5302860000000  0.5332430000000 1.0
C      1  0.4487510000000  0.5879620000000  0.4942980000000 1.0
C      1  0.5325790000000  0.5865920000000  0.4567690000000 1.0
C      1  0.5210230000000  0.5866270000000  0.5479050000000 1.0
C      1  0.5142340000000  0.4090950000000  0.5533770000000 1.0
C      1  0.4507230000000  0.4087540000000  0.4756670000000 1.0
C      1  0.5422070000000  0.4074980000000  0.4654300000000 1.0
C      1  0.4390490000000  0.4603460000000  0.4191460000000 1.0
C      1  0.6010520000000  0.4615600000000  0.4864030000000 1.0
C      1  0.4645950000000  0.4623350000000  0.5971860000000 1.0
C      1  0.5358880000000  0.5149270000000  0.4065840000000 1.0
C      1  0.5770430000000  0.5033220000000  0.5851890000000 1.0
C      1  0.3931450000000  0.5005660000000  0.5108840000000 1.0
C      1  0.4580380000000  0.5003770000000  0.3937570000000 1.0
C      1  0.6100670000000  0.5026660000000  0.5236970000000 1.0
C      1  0.4279280000000  0.4988130000000  0.5842080000000 1.0
C      1  0.5418900000000  0.5680020000000  0.4364860000000 1.0
C      1  0.5328560000000  0.5695350000000  0.5677310000000 1.0
C      1  0.4275060000000  0.5690660000000  0.4942760000000 1.0
C      1  0.4570020000000  0.5206490000000  0.4764680000000 1.0
C      1  0.5318490000000  0.5260780000000  0.4747690000000 1.0
C      1  0.5014990000000  0.5184570000000  0.5491370000000 1.0
C      1  0.5369010000000  0.4131360000000  0.5688530000000 1.0
C      1  0.4322090000000  0.4183190000000  0.4955820000000 1.0
C      1  0.5368480000000  0.4134220000000  0.4376790000000 1.0
C      1  0.5013510000000  0.6050090000000  0.5002100000000 1.0
C      1  0.5044430000000  0.4950370000000  0.5027790000000 1.0
END
