TITL C-2441166-8118-20 0.0037891302858524 125000 -4857.47699608348 0 0 35 (C1) n - 1
REM
REM in /home/bkarasulu/work/CARBON/AIRSS/Generating-Clusters/ReaxFF-fromJPCA2015/Units_Real/with-SteepDescent/Higher-Symm
REM
REM
REM
REM
REM
REM ./C.cell (1df0a924f5614ab8850e4351716899ee)
REM
REM compiler GCC version 9.2.1 20190827 (Red Hat 9.2.1-1)
REM options -cpp -mtune=generic -march=x86-64 -g -O0 -fpre-include=/usr/include/finclude/math-vector-fortran.h
REM seed -985323294 2009226180 -982488961 -770539985 -713514513 -916683254 122806283 1057914490 -1984290238 -1098293755 616656829 1779847557 -1247190762 496556084 -1197902492 495478376 -1545249661 1937864812 1815361805 -1824292857 211770352 -595509321 1548692694 1308055789 1001003942 857351699 1204028396 1724208399 -1314498819 1781555701 1353294309 1892711379 1864955919
REM
CELL 1.54180   50.00000   50.00000   50.00000   90.00000   90.00000   90.00000
LATT -1
SFAC C  
C      1  0.5508280000000  0.5456790000000  0.5138720000000 1.0
C      1  0.4970010000000  0.5460260000000  0.5375440000000 1.0
C      1  0.4785760000000  0.5468190000000  0.4860390000000 1.0
C      1  0.5360460000000  0.5121750000000  0.5463020000000 1.0
C      1  0.5209690000000  0.4754860000000  0.5185620000000 1.0
C      1  0.4736190000000  0.4594070000000  0.5145020000000 1.0
C      1  0.4719190000000  0.5035990000000  0.4546740000000 1.0
C      1  0.4831630000000  0.5024120000000  0.5029710000000 1.0
C      1  0.5405360000000  0.4446610000000  0.4715940000000 1.0
C      1  0.4355260000000  0.4982130000000  0.5024440000000 1.0
C      1  0.4517760000000  0.5407780000000  0.4829190000000 1.0
C      1  0.5540680000000  0.4700620000000  0.4810630000000 1.0
C      1  0.4996500000000  0.5518750000000  0.5083880000000 1.0
C      1  0.4448180000000  0.4948730000000  0.4621550000000 1.0
C      1  0.5581440000000  0.5223070000000  0.5298280000000 1.0
C      1  0.5076650000000  0.4800950000000  0.4656510000000 1.0
C      1  0.5351640000000  0.5153090000000  0.4874050000000 1.0
C      1  0.4591750000000  0.5002910000000  0.5199370000000 1.0
C      1  0.5102330000000  0.5252410000000  0.5538570000000 1.0
C      1  0.4919650000000  0.4859630000000  0.4482220000000 1.0
C      1  0.5463720000000  0.4818700000000  0.4548660000000 1.0
C      1  0.5247180000000  0.4624700000000  0.4512380000000 1.0
C      1  0.5006460000000  0.4963010000000  0.5635750000000 1.0
C      1  0.4848270000000  0.5185210000000  0.4782220000000 1.0
C      1  0.4613230000000  0.4759880000000  0.5374310000000 1.0
C      1  0.5227250000000  0.4857690000000  0.5460420000000 1.0
C      1  0.4544160000000  0.4506450000000  0.4942510000000 1.0
C      1  0.4393050000000  0.4754550000000  0.4839140000000 1.0
C      1  0.4352660000000  0.5178230000000  0.4794590000000 1.0
C      1  0.4962460000000  0.4756260000000  0.5010630000000 1.0
C      1  0.5420350000000  0.4865790000000  0.5021600000000 1.0
C      1  0.5621350000000  0.5218340000000  0.5003830000000 1.0
C      1  0.5258600000000  0.5435060000000  0.4994550000000 1.0
C      1  0.4766790000000  0.4838740000000  0.5587750000000 1.0
C      1  0.5266050000000  0.5024670000000  0.4612360000000 1.0
END
