TITL C-2441167-4473-982 0.0404507068275604 125000 -9193.42968337983 0 0 66 (C1) n - 1
REM
REM in /home/bkarasulu/work/CARBON/AIRSS/Generating-Clusters/ReaxFF-fromJPCA2015/Units_Real/with-SteepDescent/Higher-Symm
REM
REM
REM
REM
REM
REM ./C.cell (1df0a924f5614ab8850e4351716899ee)
REM
REM compiler GCC version 9.2.1 20190827 (Red Hat 9.2.1-1)
REM options -cpp -mtune=generic -march=x86-64 -g -O0 -fpre-include=/usr/include/finclude/math-vector-fortran.h
REM seed -1339928208 -1311821750 334705206 1350458803 800545225 -101948962 -2041235866 658946289 1717038827 1813912280 -42538026 3900907 -157551189 -744915117 -47790292 -1479310216 -910298327 128181898 2144991047 191832075 -1032966819 199383799 330806438 -437007022 -1476322201 -738105312 -115469870 -234102561 1863028010 54175970 -276888460 1520125793 943234983
REM
CELL 1.54180   50.00000   50.00000   50.00000   90.00000   90.00000   90.00000
LATT -1
SFAC C  
C      1  0.5620160000000  0.5307460000000  0.5089280000000 1.0
C      1  0.5499130000000  0.5401290000000  0.5460390000000 1.0
C      1  0.5240120000000  0.5328920000000  0.5518130000000 1.0
C      1  0.4847460000000  0.5365170000000  0.5609120000000 1.0
C      1  0.4452720000000  0.5359910000000  0.5492300000000 1.0
C      1  0.4265170000000  0.5369860000000  0.5118190000000 1.0
C      1  0.4323630000000  0.5349390000000  0.4675170000000 1.0
C      1  0.4683690000000  0.5260660000000  0.4515760000000 1.0
C      1  0.4994120000000  0.5359210000000  0.4267910000000 1.0
C      1  0.5344040000000  0.5320730000000  0.4463080000000 1.0
C      1  0.5677500000000  0.5364280000000  0.4693910000000 1.0
C      1  0.5247680000000  0.4372360000000  0.5444670000000 1.0
C      1  0.4955370000000  0.4387930000000  0.5498850000000 1.0
C      1  0.4681150000000  0.4392990000000  0.5406320000000 1.0
C      1  0.4509120000000  0.4412810000000  0.5165670000000 1.0
C      1  0.4516010000000  0.4462240000000  0.4880520000000 1.0
C      1  0.4634460000000  0.4372230000000  0.4628310000000 1.0
C      1  0.4897850000000  0.4396390000000  0.4497930000000 1.0
C      1  0.5187550000000  0.4382310000000  0.4505690000000 1.0
C      1  0.5416330000000  0.4401890000000  0.4692210000000 1.0
C      1  0.5527630000000  0.4390530000000  0.4959710000000 1.0
C      1  0.5456480000000  0.4409100000000  0.5246450000000 1.0
C      1  0.5013420000000  0.4605370000000  0.5675450000000 1.0
C      1  0.4545200000000  0.4631890000000  0.5514520000000 1.0
C      1  0.4377090000000  0.4647720000000  0.5288680000000 1.0
C      1  0.4395600000000  0.4718840000000  0.4808510000000 1.0
C      1  0.4546580000000  0.4590680000000  0.4450850000000 1.0
C      1  0.4796000000000  0.4617580000000  0.4351970000000 1.0
C      1  0.5291780000000  0.4618710000000  0.4356480000000 1.0
C      1  0.5512750000000  0.4635300000000  0.4537660000000 1.0
C      1  0.5694800000000  0.4632060000000  0.4997900000000 1.0
C      1  0.5627240000000  0.4644290000000  0.5260330000000 1.0
C      1  0.5276850000000  0.4600550000000  0.5625370000000 1.0
C      1  0.5167460000000  0.4885250000000  0.4327880000000 1.0
C      1  0.5529520000000  0.4903280000000  0.4636270000000 1.0
C      1  0.5666620000000  0.4889420000000  0.4868980000000 1.0
C      1  0.5557650000000  0.4898210000000  0.5366150000000 1.0
C      1  0.5386190000000  0.4858920000000  0.5576790000000 1.0
C      1  0.4917510000000  0.4870270000000  0.5673640000000 1.0
C      1  0.4663250000000  0.4890110000000  0.5591970000000 1.0
C      1  0.4423610000000  0.4926670000000  0.5228960000000 1.0
C      1  0.4388780000000  0.4952750000000  0.4961240000000 1.0
C      1  0.4415790000000  0.4831610000000  0.4550720000000 1.0
C      1  0.4899290000000  0.4881630000000  0.4347440000000 1.0
C      1  0.4594160000000  0.5567090000000  0.5330950000000 1.0
C      1  0.4465850000000  0.5583250000000  0.5068900000000 1.0
C      1  0.4506630000000  0.5564750000000  0.4777900000000 1.0
C      1  0.4733380000000  0.5539450000000  0.4598880000000 1.0
C      1  0.4993940000000  0.5576030000000  0.4469130000000 1.0
C      1  0.5268560000000  0.5577990000000  0.4573330000000 1.0
C      1  0.5491160000000  0.5582380000000  0.4766010000000 1.0
C      1  0.5504590000000  0.5572320000000  0.5054850000000 1.0
C      1  0.5411920000000  0.5642460000000  0.5323410000000 1.0
C      1  0.5152060000000  0.5598990000000  0.5459770000000 1.0
C      1  0.4854400000000  0.5611280000000  0.5473280000000 1.0
C      1  0.4242650000000  0.5193210000000  0.4898150000000 1.0
C      1  0.4435630000000  0.5124790000000  0.4530840000000 1.0
C      1  0.4806890000000  0.5151970000000  0.4289260000000 1.0
C      1  0.5211300000000  0.5174250000000  0.4262630000000 1.0
C      1  0.5572150000000  0.5169600000000  0.4522760000000 1.0
C      1  0.5754050000000  0.5170000000000  0.4885860000000 1.0
C      1  0.5629830000000  0.5180350000000  0.5339310000000 1.0
C      1  0.5295420000000  0.5104590000000  0.5712560000000 1.0
C      1  0.5056300000000  0.5058670000000  0.5876860000000 1.0
C      1  0.4632890000000  0.5180820000000  0.5634510000000 1.0
C      1  0.4315850000000  0.5177000000000  0.5323530000000 1.0
END
