TITL C-2441166-8118-906 0.0105726654637449 125000 -3294.13716860299 0 0 26 (Cs) n - 1
REM
REM in /home/bkarasulu/work/CARBON/AIRSS/Generating-Clusters/ReaxFF-fromJPCA2015/Units_Real/with-SteepDescent/Higher-Symm
REM
REM
REM
REM
REM
REM ./C.cell (1df0a924f5614ab8850e4351716899ee)
REM
REM compiler GCC version 9.2.1 20190827 (Red Hat 9.2.1-1)
REM options -cpp -mtune=generic -march=x86-64 -g -O0 -fpre-include=/usr/include/finclude/math-vector-fortran.h
REM seed 2126145858 -1375198302 1371985131 1021026305 141303124 1309243410 841832134 -602760533 -818137279 1931644140 -1264622317 -681834416 -791925797 -322617651 872916490 898710232 -506135948 -1629762610 615943561 -78898522 1807315856 -2102109780 2015981201 1145760291 -1589640754 -622149821 878996326 1597151452 -206325457 42310916 -682174635 1910372050 -1940923594
REM
CELL 1.54180   50.00000   50.00000   50.00000   90.00000   90.00000   90.00000
LATT -1
SFAC C  
C      1  0.4778270000000  0.4952900000000  0.5351990000000 1.0
C      1  0.4773760000000  0.5351300000000  0.5029890000000 1.0
C      1  0.4776420000000  0.5024350000000  0.4639680000000 1.0
C      1  0.4775120000000  0.4625530000000  0.4962200000000 1.0
C      1  0.5246820000000  0.4955090000000  0.5346000000000 1.0
C      1  0.5253290000000  0.5350220000000  0.5029670000000 1.0
C      1  0.5249810000000  0.5021300000000  0.4641040000000 1.0
C      1  0.5251070000000  0.4629170000000  0.4956930000000 1.0
C      1  0.4872300000000  0.5295450000000  0.4756510000000 1.0
C      1  0.4873270000000  0.4740960000000  0.4688350000000 1.0
C      1  0.4872360000000  0.4679790000000  0.5240890000000 1.0
C      1  0.4872520000000  0.5237040000000  0.5294400000000 1.0
C      1  0.5155420000000  0.5296070000000  0.4756400000000 1.0
C      1  0.5155210000000  0.4743110000000  0.4690200000000 1.0
C      1  0.5153650000000  0.4674880000000  0.5243350000000 1.0
C      1  0.5154570000000  0.5240090000000  0.5294880000000 1.0
C      1  0.4525870000000  0.4998740000000  0.5201990000000 1.0
C      1  0.4528700000000  0.5195630000000  0.4985280000000 1.0
C      1  0.4524320000000  0.4977000000000  0.4790080000000 1.0
C      1  0.4524630000000  0.4784620000000  0.5006300000000 1.0
C      1  0.5504560000000  0.4999180000000  0.5202200000000 1.0
C      1  0.5499570000000  0.5196400000000  0.4985050000000 1.0
C      1  0.5504460000000  0.4976530000000  0.4789390000000 1.0
C      1  0.5504650000000  0.4784440000000  0.5006730000000 1.0
C      1  0.5129070000000  0.4973900000000  0.5001050000000 1.0
C      1  0.4900900000000  0.4978030000000  0.4992520000000 1.0
END
