TITL C-2441165-58-175 0.143371860382941 125000 -21294.8911024292 0 0 167 (C1) n - 1
REM
REM in /home/bkarasulu/work/CARBON/AIRSS/Generating-Clusters/ReaxFF-fromJPCA2015/Units_Real/with-SteepDescent/Higher-Symm
REM
REM
REM
REM
REM
REM ./C.cell (1df0a924f5614ab8850e4351716899ee)
REM
REM compiler GCC version 9.2.1 20190827 (Red Hat 9.2.1-1)
REM options -cpp -mtune=generic -march=x86-64 -g -O0 -fpre-include=/usr/include/finclude/math-vector-fortran.h
REM seed 794828246 648144448 1538855016 378757601 -1784022734 -1820269186 1445866769 -2004403069 815816001 2011995141 1140622016 682945526 -401349519 1665135612 -1871069497 2060749253 -924478820 299893476 223055208 -414867444 2084051966 1862565723 1629923312 -1848734500 -1121687601 -1059520894 694225324 -603072991 -349145417 -1450500335 1507966925 -1018697940 1188181454
REM
CELL 1.54180   50.00000   50.00000   50.00000   90.00000   90.00000   90.00000
LATT -1
SFAC C  
C      1  0.5092740000000  0.4771610000000  0.5970930000000 1.0
C      1  0.5616670000000  0.4524980000000  0.5787270000000 1.0
C      1  0.4522050000000  0.4270550000000  0.4508580000000 1.0
C      1  0.6021770000000  0.5217460000000  0.5177390000000 1.0
C      1  0.5002060000000  0.5346000000000  0.4998550000000 1.0
C      1  0.5314240000000  0.4099960000000  0.5054820000000 1.0
C      1  0.4421890000000  0.5151010000000  0.5081460000000 1.0
C      1  0.4702670000000  0.4650620000000  0.4595730000000 1.0
C      1  0.5489270000000  0.4985390000000  0.4604400000000 1.0
C      1  0.5420940000000  0.4102800000000  0.5318490000000 1.0
C      1  0.4320720000000  0.5206480000000  0.5735900000000 1.0
C      1  0.4728080000000  0.5083280000000  0.5360860000000 1.0
C      1  0.4880900000000  0.4401450000000  0.5808090000000 1.0
C      1  0.5570320000000  0.4852850000000  0.4189630000000 1.0
C      1  0.3893340000000  0.4977820000000  0.5251710000000 1.0
C      1  0.5025980000000  0.5755830000000  0.5714100000000 1.0
C      1  0.5091920000000  0.5279560000000  0.5230960000000 1.0
C      1  0.4606520000000  0.4806830000000  0.5945800000000 1.0
C      1  0.4832150000000  0.4629470000000  0.5997980000000 1.0
C      1  0.4951820000000  0.5659450000000  0.4601640000000 1.0
C      1  0.4864630000000  0.5039580000000  0.4831930000000 1.0
C      1  0.5338670000000  0.5366060000000  0.4274790000000 1.0
C      1  0.5420780000000  0.5521210000000  0.4855720000000 1.0
C      1  0.5416230000000  0.4706890000000  0.4601380000000 1.0
C      1  0.5902100000000  0.5466720000000  0.5073030000000 1.0
C      1  0.5402020000000  0.5581230000000  0.5744510000000 1.0
C      1  0.5074280000000  0.4724140000000  0.4183710000000 1.0
C      1  0.4455670000000  0.4616490000000  0.5826410000000 1.0
C      1  0.4625470000000  0.4540040000000  0.5087640000000 1.0
C      1  0.5084160000000  0.4983440000000  0.4336030000000 1.0
C      1  0.5823270000000  0.4930720000000  0.5650870000000 1.0
C      1  0.5073670000000  0.4521730000000  0.4860050000000 1.0
C      1  0.5400350000000  0.4634170000000  0.4163710000000 1.0
C      1  0.5840370000000  0.4630500000000  0.4612820000000 1.0
C      1  0.4702570000000  0.5420590000000  0.5860290000000 1.0
C      1  0.5319470000000  0.4169500000000  0.4397510000000 1.0
C      1  0.5034320000000  0.5454100000000  0.4408790000000 1.0
C      1  0.5375820000000  0.4078290000000  0.4657770000000 1.0
C      1  0.4028020000000  0.5188480000000  0.5145790000000 1.0
C      1  0.4861990000000  0.5708770000000  0.4842320000000 1.0
C      1  0.4217540000000  0.5456360000000  0.4370170000000 1.0
C      1  0.4716680000000  0.5374620000000  0.5410090000000 1.0
C      1  0.5364770000000  0.5237250000000  0.5215520000000 1.0
C      1  0.4696900000000  0.4098470000000  0.4688590000000 1.0
C      1  0.4185140000000  0.4627620000000  0.4579800000000 1.0
C      1  0.6026650000000  0.5236470000000  0.4583330000000 1.0
C      1  0.4888130000000  0.4304000000000  0.4239210000000 1.0
C      1  0.4756980000000  0.5962560000000  0.4757550000000 1.0
C      1  0.3939430000000  0.4735170000000  0.5392600000000 1.0
C      1  0.4812970000000  0.4965050000000  0.5118840000000 1.0
C      1  0.5702640000000  0.4851950000000  0.5148910000000 1.0
C      1  0.4562870000000  0.5410360000000  0.5147350000000 1.0
C      1  0.5321920000000  0.4510310000000  0.5011660000000 1.0
C      1  0.4993410000000  0.4943390000000  0.5710060000000 1.0
C      1  0.4296520000000  0.5810700000000  0.4767400000000 1.0
C      1  0.5481380000000  0.4242340000000  0.4875490000000 1.0
C      1  0.5203010000000  0.4909740000000  0.5484760000000 1.0
C      1  0.4207480000000  0.5529150000000  0.4825390000000 1.0
C      1  0.5470650000000  0.4381230000000  0.4277440000000 1.0
C      1  0.4579880000000  0.4636800000000  0.4119980000000 1.0
C      1  0.4479800000000  0.5852010000000  0.5180020000000 1.0
C      1  0.5803070000000  0.5189190000000  0.5518620000000 1.0
C      1  0.4087880000000  0.4622010000000  0.5016890000000 1.0
C      1  0.5272230000000  0.5126440000000  0.4132830000000 1.0
C      1  0.5114210000000  0.6042730000000  0.5070950000000 1.0
C      1  0.4957760000000  0.4006520000000  0.4619510000000 1.0
C      1  0.4265950000000  0.5424660000000  0.5567310000000 1.0
C      1  0.4650970000000  0.4065450000000  0.4969090000000 1.0
C      1  0.5643090000000  0.4974120000000  0.5867950000000 1.0
C      1  0.4495400000000  0.5966030000000  0.4918180000000 1.0
C      1  0.5498030000000  0.5964550000000  0.4831340000000 1.0
C      1  0.4138390000000  0.4763220000000  0.4345410000000 1.0
C      1  0.4451870000000  0.5583840000000  0.4680600000000 1.0
C      1  0.5557360000000  0.5336270000000  0.5631120000000 1.0
C      1  0.4568130000000  0.5145130000000  0.5927300000000 1.0
C      1  0.5733160000000  0.5800890000000  0.4891540000000 1.0
C      1  0.4345790000000  0.4812140000000  0.4147300000000 1.0
C      1  0.6094980000000  0.4975490000000  0.5025660000000 1.0
C      1  0.4205210000000  0.4368690000000  0.5134660000000 1.0
C      1  0.5538590000000  0.5437810000000  0.4471090000000 1.0
C      1  0.4904870000000  0.3989140000000  0.5077910000000 1.0
C      1  0.4654860000000  0.4632380000000  0.5421970000000 1.0
C      1  0.5850960000000  0.5462020000000  0.4532300000000 1.0
C      1  0.4189290000000  0.5266230000000  0.4576490000000 1.0
C      1  0.4122240000000  0.4897990000000  0.4886830000000 1.0
C      1  0.5145600000000  0.4336350000000  0.5729560000000 1.0
C      1  0.5602880000000  0.4503470000000  0.4502560000000 1.0
C      1  0.5318640000000  0.4552380000000  0.5315080000000 1.0
C      1  0.4691850000000  0.4388670000000  0.5578890000000 1.0
C      1  0.4317220000000  0.5587900000000  0.5134910000000 1.0
C      1  0.4718280000000  0.5252440000000  0.4715560000000 1.0
C      1  0.5616510000000  0.4525180000000  0.5362140000000 1.0
C      1  0.4701220000000  0.5880590000000  0.5368180000000 1.0
C      1  0.4340160000000  0.4321400000000  0.5387260000000 1.0
C      1  0.5011240000000  0.4924800000000  0.4602010000000 1.0
C      1  0.5903620000000  0.4514420000000  0.4875920000000 1.0
C      1  0.5200470000000  0.5351750000000  0.4796360000000 1.0
C      1  0.4330530000000  0.4395730000000  0.4672750000000 1.0
C      1  0.5235010000000  0.5833110000000  0.4390790000000 1.0
C      1  0.4976690000000  0.5884500000000  0.5271600000000 1.0
C      1  0.5134270000000  0.4642900000000  0.4613710000000 1.0
C      1  0.5046180000000  0.4095440000000  0.4360520000000 1.0
C      1  0.5320990000000  0.4516210000000  0.5894070000000 1.0
C      1  0.5468490000000  0.5711360000000  0.4452430000000 1.0
C      1  0.5270120000000  0.5262620000000  0.5976630000000 1.0
C      1  0.5026000000000  0.6083320000000  0.4796140000000 1.0
C      1  0.5416500000000  0.5513230000000  0.5140430000000 1.0
C      1  0.4432610000000  0.5092570000000  0.4160040000000 1.0
C      1  0.5549590000000  0.5234640000000  0.5897410000000 1.0
C      1  0.5951710000000  0.5065860000000  0.4794920000000 1.0
C      1  0.5257120000000  0.6002400000000  0.4632720000000 1.0
C      1  0.5671970000000  0.4257250000000  0.5260030000000 1.0
C      1  0.4551680000000  0.5535280000000  0.4403970000000 1.0
C      1  0.5760190000000  0.5121690000000  0.5248190000000 1.0
C      1  0.4821830000000  0.5036080000000  0.3907890000000 1.0
C      1  0.5781480000000  0.5712060000000  0.5166560000000 1.0
C      1  0.4427040000000  0.4319680000000  0.4952260000000 1.0
C      1  0.5751570000000  0.4292230000000  0.4984670000000 1.0
C      1  0.5049440000000  0.5229040000000  0.3940700000000 1.0
C      1  0.4060720000000  0.4900750000000  0.4598300000000 1.0
C      1  0.5163560000000  0.5032880000000  0.6117110000000 1.0
C      1  0.5155950000000  0.3949890000000  0.4840750000000 1.0
C      1  0.4870550000000  0.5437480000000  0.4025740000000 1.0
C      1  0.4927710000000  0.4557760000000  0.4399600000000 1.0
C      1  0.5956340000000  0.4725630000000  0.5073370000000 1.0
C      1  0.5468350000000  0.4761250000000  0.5815960000000 1.0
C      1  0.4548860000000  0.4896710000000  0.4618490000000 1.0
C      1  0.4763440000000  0.5764620000000  0.4402410000000 1.0
C      1  0.5778080000000  0.4646200000000  0.5580700000000 1.0
C      1  0.4816360000000  0.4355110000000  0.5198960000000 1.0
C      1  0.5384470000000  0.5122400000000  0.5470920000000 1.0
C      1  0.5059050000000  0.4847640000000  0.5211840000000 1.0
C      1  0.4744410000000  0.4871010000000  0.5548420000000 1.0
C      1  0.5665760000000  0.5098240000000  0.4216970000000 1.0
C      1  0.4119420000000  0.4741840000000  0.5629000000000 1.0
C      1  0.4737950000000  0.5769630000000  0.5638720000000 1.0
C      1  0.4143580000000  0.5412260000000  0.5305990000000 1.0
C      1  0.5477860000000  0.4755170000000  0.4974840000000 1.0
C      1  0.4415980000000  0.5100000000000  0.4452490000000 1.0
C      1  0.4756970000000  0.5462110000000  0.4938020000000 1.0
C      1  0.4349350000000  0.4969520000000  0.5289610000000 1.0
C      1  0.4405410000000  0.4959940000000  0.4867480000000 1.0
C      1  0.5312650000000  0.5099820000000  0.4800610000000 1.0
C      1  0.5138120000000  0.5706710000000  0.5442160000000 1.0
C      1  0.4637440000000  0.5247970000000  0.4005110000000 1.0
C      1  0.4761410000000  0.5313800000000  0.4438130000000 1.0
C      1  0.4280870000000  0.4497180000000  0.5633070000000 1.0
C      1  0.5176920000000  0.5578990000000  0.5895970000000 1.0
C      1  0.4566570000000  0.5538720000000  0.5642190000000 1.0
C      1  0.5004960000000  0.4036070000000  0.5333220000000 1.0
C      1  0.4975270000000  0.5685230000000  0.4211840000000 1.0
C      1  0.5763620000000  0.4910100000000  0.4641560000000 1.0
C      1  0.4607200000000  0.4363870000000  0.4242680000000 1.0
C      1  0.5197480000000  0.4131660000000  0.5518260000000 1.0
C      1  0.4802920000000  0.4587910000000  0.4860560000000 1.0
C      1  0.4205020000000  0.4741140000000  0.5247550000000 1.0
C      1  0.5505410000000  0.5755910000000  0.5276950000000 1.0
C      1  0.5034320000000  0.4514030000000  0.5308760000000 1.0
C      1  0.4819950000000  0.4768140000000  0.4022560000000 1.0
C      1  0.5002160000000  0.5446880000000  0.5432270000000 1.0
C      1  0.5256670000000  0.4919710000000  0.5001620000000 1.0
C      1  0.5735730000000  0.5498820000000  0.4823670000000 1.0
C      1  0.4847390000000  0.5181920000000  0.5844020000000 1.0
C      1  0.5891440000000  0.5233210000000  0.4330290000000 1.0
C      1  0.4293060000000  0.4973340000000  0.5567600000000 1.0
C      1  0.5397990000000  0.5973430000000  0.5096970000000 1.0
C      1  0.4617680000000  0.4196380000000  0.5363460000000 1.0
END
