TITL C-2441157-2117-304 0.0318709804545389 125000 -8310.29490940411 0 0 63 (C1) n - 1
REM
REM in /home/bkarasulu/work/CARBON/AIRSS/Generating-Clusters/ReaxFF-fromJPCA2015/Units_Real/with-SteepDescent/Higher-Symm
REM
REM
REM
REM
REM
REM ./C.cell (1df0a924f5614ab8850e4351716899ee)
REM
REM compiler GCC version 9.2.1 20190827 (Red Hat 9.2.1-1)
REM options -cpp -mtune=generic -march=x86-64 -g -O0 -fpre-include=/usr/include/finclude/math-vector-fortran.h
REM seed -1775776003 1988260276 -2086039415 -1069433172 189832357 1182762228 167485284 -828074551 825910740 1800968279 -79802892 -1369547918 369665048 1990863489 -1818718564 1875682713 1593678505 -244464661 1795995659 -1165006918 1161754000 -1386228888 -338584733 -2014311865 1536733125 -1494981772 -985283764 802430311 -917492580 1980915008 -889115633 -935267686 134541568
REM
CELL 1.54180   50.00000   50.00000   50.00000   90.00000   90.00000   90.00000
LATT -1
SFAC C  
C      1  0.4405410000000  0.5698330000000  0.4896170000000 1.0
C      1  0.4668430000000  0.4145650000000  0.4797860000000 1.0
C      1  0.5899640000000  0.5094710000000  0.4858190000000 1.0
C      1  0.5587890000000  0.5701090000000  0.5108060000000 1.0
C      1  0.5318160000000  0.4160540000000  0.5085670000000 1.0
C      1  0.4114900000000  0.5095170000000  0.5129210000000 1.0
C      1  0.4726620000000  0.4996420000000  0.4967730000000 1.0
C      1  0.5158870000000  0.4758690000000  0.4943720000000 1.0
C      1  0.5143430000000  0.5242590000000  0.4952930000000 1.0
C      1  0.5276760000000  0.4998100000000  0.5021690000000 1.0
C      1  0.4872920000000  0.4750100000000  0.5014130000000 1.0
C      1  0.4862150000000  0.5241880000000  0.5027960000000 1.0
C      1  0.4717510000000  0.4558060000000  0.5174170000000 1.0
C      1  0.5446800000000  0.4966450000000  0.5247120000000 1.0
C      1  0.4810580000000  0.5439810000000  0.5273560000000 1.0
C      1  0.5257680000000  0.4645950000000  0.4700220000000 1.0
C      1  0.4518680000000  0.4955930000000  0.4725650000000 1.0
C      1  0.5189930000000  0.5430630000000  0.4707320000000 1.0
C      1  0.4531440000000  0.4389070000000  0.4784690000000 1.0
C      1  0.5772430000000  0.4868330000000  0.4770470000000 1.0
C      1  0.4681610000000  0.5681200000000  0.4807260000000 1.0
C      1  0.5450470000000  0.4404990000000  0.5181280000000 1.0
C      1  0.4289980000000  0.4898310000000  0.5227130000000 1.0
C      1  0.5318240000000  0.5681990000000  0.5158420000000 1.0
C      1  0.4900480000000  0.4024990000000  0.4802420000000 1.0
C      1  0.5914870000000  0.5355500000000  0.4945150000000 1.0
C      1  0.4221920000000  0.5537250000000  0.4735310000000 1.0
C      1  0.5093290000000  0.4074760000000  0.5249950000000 1.0
C      1  0.4100550000000  0.5357480000000  0.5173410000000 1.0
C      1  0.5791010000000  0.5518060000000  0.5173350000000 1.0
C      1  0.5291970000000  0.5472370000000  0.5353170000000 1.0
C      1  0.4486680000000  0.5011100000000  0.5395870000000 1.0
C      1  0.5321720000000  0.4513520000000  0.5420880000000 1.0
C      1  0.4699200000000  0.5456280000000  0.4598600000000 1.0
C      1  0.5557230000000  0.5038100000000  0.4630200000000 1.0
C      1  0.4741950000000  0.4506690000000  0.4626180000000 1.0
C      1  0.4945650000000  0.5110660000000  0.4379070000000 1.0
C      1  0.4890730000000  0.4823950000000  0.4418740000000 1.0
C      1  0.5226540000000  0.5082690000000  0.4404190000000 1.0
C      1  0.5102760000000  0.5192180000000  0.5583360000000 1.0
C      1  0.5088460000000  0.4647590000000  0.5505780000000 1.0
C      1  0.4823270000000  0.5115160000000  0.5605180000000 1.0
C      1  0.4631550000000  0.5257680000000  0.5436970000000 1.0
C      1  0.4805870000000  0.4631340000000  0.5442090000000 1.0
C      1  0.5360010000000  0.5195310000000  0.5430230000000 1.0
C      1  0.5394720000000  0.5269530000000  0.4549010000000 1.0
C      1  0.5012770000000  0.4585490000000  0.4544720000000 1.0
C      1  0.4596050000000  0.5195040000000  0.4573990000000 1.0
C      1  0.4672050000000  0.4866300000000  0.5555730000000 1.0
C      1  0.5337030000000  0.4785870000000  0.5455600000000 1.0
C      1  0.5037690000000  0.5433250000000  0.5446460000000 1.0
C      1  0.5361830000000  0.4858800000000  0.4520950000000 1.0
C      1  0.4638180000000  0.4749680000000  0.4527380000000 1.0
C      1  0.4960090000000  0.5371340000000  0.4512790000000 1.0
C      1  0.5665880000000  0.4793640000000  0.5031810000000 1.0
C      1  0.4863170000000  0.5669930000000  0.5029700000000 1.0
C      1  0.4460580000000  0.4545700000000  0.5025310000000 1.0
C      1  0.4328910000000  0.4793800000000  0.4960460000000 1.0
C      1  0.5133270000000  0.5666770000000  0.4936110000000 1.0
C      1  0.5514010000000  0.4566660000000  0.4949430000000 1.0
C      1  0.5038120000000  0.4202410000000  0.4964470000000 1.0
C      1  0.4320880000000  0.5427930000000  0.5015810000000 1.0
C      1  0.5648500000000  0.5491240000000  0.4940420000000 1.0
END
